MODEL 1
REMARK VINA RESULT:      -7.1      0.000      0.000
REMARK  Name = 
REMARK  5 active torsions:
REMARK  status: ('A' for Active; 'I' for Inactive)
REMARK    1  A    between atoms: N_7  and  C_8
REMARK    2  A    between atoms: C_8  and  C_9
REMARK    3  A    between atoms: C_15  and  C_16
REMARK    4  A    between atoms: N_27  and  C_28
REMARK    5  A    between atoms: C_28  and  C_29
REMARK                            x       y       z     vdW  Elec       q    Type
REMARK                         _______ _______ _______ _____ _____    ______ ____
ROOT
ATOM      1  O   UNL     1      -3.283  12.480  23.899  0.00  0.00    +0.000 OA
ATOM      2  C   UNL     1      -2.517  13.100  23.175  0.00  0.00    +0.000 C 
ATOM      3  C   UNL     1      -2.690  14.546  22.844  0.00  0.00    +0.000 C 
ATOM      4  C   UNL     1      -1.278  14.998  22.449  0.00  0.00    +0.000 C 
ATOM      5  C   UNL     1      -0.500  13.707  22.391  0.00  0.00    +0.000 C 
ATOM      6  O   UNL     1       0.714  13.630  22.278  0.00  0.00    +0.000 OA
ATOM      7  N   UNL     1      -1.348  12.663  22.630  0.00  0.00    +0.000 N 
ATOM      8  C   UNL     1      -1.433  15.741  21.136  0.00  0.00    +0.000 C 
ATOM      9  N   UNL     1      -2.667  15.176  20.520  0.00  0.00    +0.000 NA
ATOM     10  C   UNL     1      -3.622  14.839  21.649  0.00  0.00    +0.000 C 
ATOM     11  C   UNL     1      -4.446  16.088  22.000  0.00  0.00    +0.000 C 
ATOM     12  C   UNL     1      -5.599  15.682  22.913  0.00  0.00    +0.000 C 
ATOM     13  C   UNL     1      -6.569  14.885  22.065  0.00  0.00    +0.000 C 
ATOM     14  N   UNL     1      -5.953  13.644  21.624  0.00  0.00    +0.000 N 
ATOM     15  C   UNL     1      -4.596  13.607  21.234  0.00  0.00    +0.000 C 
ATOM     16  O   UNL     1      -4.116  12.618  20.674  0.00  0.00    +0.000 OA
ATOM     17  H   UNL     1      -2.438  14.296  20.048  0.00  0.00    +0.000 HD
ENDROOT
BRANCH   8  18
ATOM     18  C   UNL     1      -0.140  15.789  20.321  0.00  0.00    +0.000 A 
ATOM     19  C   UNL     1       0.122  14.909  19.261  0.00  0.00    +0.000 A 
ATOM     20  C   UNL     1       1.399  14.835  18.680  0.00  0.00    +0.000 A 
ATOM     21  C   UNL     1       2.433  15.653  19.127  0.00  0.00    +0.000 A 
ATOM     22  C   UNL     1       2.189  16.561  20.155  0.00  0.00    +0.000 A 
ATOM     23  C   UNL     1       0.919  16.626  20.747  0.00  0.00    +0.000 A 
ENDBRANCH   8  18
BRANCH   7  24
ATOM     24  C   UNL     1      -0.877  11.307  22.727  0.00  0.00    +0.000 C 
BRANCH  24  25
ATOM     25  C   UNL     1      -0.444  10.770  21.386  0.00  0.00    +0.000 A 
ATOM     26  C   UNL     1      -0.993  11.274  20.197  0.00  0.00    +0.000 A 
ATOM     27  C   UNL     1      -0.534  10.820  18.958  0.00  0.00    +0.000 A 
ATOM     28  C   UNL     1       0.463   9.848  18.897  0.00  0.00    +0.000 A 
ATOM     29  C   UNL     1       0.976   9.303  20.072  0.00  0.00    +0.000 A 
ATOM     30  C   UNL     1       0.515   9.753  21.310  0.00  0.00    +0.000 A 
ENDBRANCH  24  25
ENDBRANCH   7  24
BRANCH  14  31
ATOM     31  C   UNL     1      -6.757  12.405  21.778  0.00  0.00    +0.000 C 
BRANCH  31  32
ATOM     32  C   UNL     1      -6.990  11.556  20.556  0.00  0.00    +0.000 A 
ATOM     33  C   UNL     1      -6.991  11.764  19.189  0.00  0.00    +0.000 A 
ATOM     34  C   UNL     1      -7.012  10.487  18.567  0.00  0.00    +0.000 A 
ATOM     35  C   UNL     1      -7.058   9.561  19.583  0.00  0.00    +0.000 A 
ATOM     36  O   UNL     1      -7.059  10.197  20.785  0.00  0.00    +0.000 OA
ENDBRANCH  31  32
ENDBRANCH  14  31
TORSDOF 5
ENDMDL
MODEL 2
REMARK VINA RESULT:      -7.1      2.453      6.871
REMARK  Name = 
REMARK  5 active torsions:
REMARK  status: ('A' for Active; 'I' for Inactive)
REMARK    1  A    between atoms: N_7  and  C_8
REMARK    2  A    between atoms: C_8  and  C_9
REMARK    3  A    between atoms: C_15  and  C_16
REMARK    4  A    between atoms: N_27  and  C_28
REMARK    5  A    between atoms: C_28  and  C_29
REMARK                            x       y       z     vdW  Elec       q    Type
REMARK                         _______ _______ _______ _____ _____    ______ ____
ROOT
ATOM      1  O   UNL     1       0.200  14.372  18.932  0.00  0.00    +0.000 OA
ATOM      2  C   UNL     1      -0.723  14.206  19.716  0.00  0.00    +0.000 C 
ATOM      3  C   UNL     1      -1.404  15.325  20.432  0.00  0.00    +0.000 C 
ATOM      4  C   UNL     1      -2.776  14.741  20.793  0.00  0.00    +0.000 C 
ATOM      5  C   UNL     1      -2.642  13.282  20.433  0.00  0.00    +0.000 C 
ATOM      6  O   UNL     1      -3.567  12.484  20.405  0.00  0.00    +0.000 OA
ATOM      7  N   UNL     1      -1.365  13.042  20.010  0.00  0.00    +0.000 N 
ATOM      8  C   UNL     1      -2.981  15.047  22.265  0.00  0.00    +0.000 C 
ATOM      9  N   UNL     1      -1.606  15.168  22.826  0.00  0.00    +0.000 NA
ATOM     10  C   UNL     1      -0.728  15.771  21.746  0.00  0.00    +0.000 C 
ATOM     11  C   UNL     1      -0.824  17.304  21.818  0.00  0.00    +0.000 C 
ATOM     12  C   UNL     1       0.270  17.912  20.946  0.00  0.00    +0.000 C 
ATOM     13  C   UNL     1       1.588  17.638  21.644  0.00  0.00    +0.000 C 
ATOM     14  N   UNL     1       1.853  16.209  21.680  0.00  0.00    +0.000 N 
ATOM     15  C   UNL     1       0.812  15.284  21.913  0.00  0.00    +0.000 C 
ATOM     16  O   UNL     1       1.049  14.095  22.143  0.00  0.00    +0.000 OA
ATOM     17  H   UNL     1      -1.237  14.233  23.025  0.00  0.00    +0.000 HD
ENDROOT
BRANCH   8  18
ATOM     18  C   UNL     1      -3.987  14.110  22.935  0.00  0.00    +0.000 A 
ATOM     19  C   UNL     1      -5.373  14.261  22.797  0.00  0.00    +0.000 A 
ATOM     20  C   UNL     1      -6.266  13.526  23.596  0.00  0.00    +0.000 A 
ATOM     21  C   UNL     1      -5.793  12.609  24.531  0.00  0.00    +0.000 A 
ATOM     22  C   UNL     1      -4.421  12.414  24.664  0.00  0.00    +0.000 A 
ATOM     23  C   UNL     1      -3.528  13.158  23.878  0.00  0.00    +0.000 A 
ENDBRANCH   8  18
BRANCH   7  24
ATOM     24  C   UNL     1      -0.958  11.754  19.514  0.00  0.00    +0.000 C 
BRANCH  24  25
ATOM     25  C   UNL     1      -0.557  10.827  20.634  0.00  0.00    +0.000 A 
ATOM     26  C   UNL     1      -0.817  11.158  21.972  0.00  0.00    +0.000 A 
ATOM     27  C   UNL     1      -0.506  10.260  22.996  0.00  0.00    +0.000 A 
ATOM     28  C   UNL     1       0.085   9.034  22.694  0.00  0.00    +0.000 A 
ATOM     29  C   UNL     1       0.396   8.719  21.373  0.00  0.00    +0.000 A 
ATOM     30  C   UNL     1       0.089   9.616  20.350  0.00  0.00    +0.000 A 
ENDBRANCH  24  25
ENDBRANCH   7  24
BRANCH  14  31
ATOM     31  C   UNL     1       3.215  15.771  21.283  0.00  0.00    +0.000 C 
BRANCH  31  32
ATOM     32  C   UNL     1       3.487  15.539  19.820  0.00  0.00    +0.000 A 
ATOM     33  C   UNL     1       3.032  16.077  18.630  0.00  0.00    +0.000 A 
ATOM     34  C   UNL     1       3.890  15.609  17.599  0.00  0.00    +0.000 A 
ATOM     35  C   UNL     1       4.807  14.780  18.204  0.00  0.00    +0.000 A 
ATOM     36  O   UNL     1       4.562  14.722  19.540  0.00  0.00    +0.000 OA
ENDBRANCH  31  32
ENDBRANCH  14  31
TORSDOF 5
ENDMDL
MODEL 3
REMARK VINA RESULT:      -7.1      2.386      6.988
REMARK  Name = 
REMARK  5 active torsions:
REMARK  status: ('A' for Active; 'I' for Inactive)
REMARK    1  A    between atoms: N_7  and  C_8
REMARK    2  A    between atoms: C_8  and  C_9
REMARK    3  A    between atoms: C_15  and  C_16
REMARK    4  A    between atoms: N_27  and  C_28
REMARK    5  A    between atoms: C_28  and  C_29
REMARK                            x       y       z     vdW  Elec       q    Type
REMARK                         _______ _______ _______ _____ _____    ______ ____
ROOT
ATOM      1  O   UNL     1       0.040  13.701  18.697  0.00  0.00    +0.000 OA
ATOM      2  C   UNL     1      -0.863  13.638  19.520  0.00  0.00    +0.000 C 
ATOM      3  C   UNL     1      -1.259  14.783  20.392  0.00  0.00    +0.000 C 
ATOM      4  C   UNL     1      -2.707  14.457  20.781  0.00  0.00    +0.000 C 
ATOM      5  C   UNL     1      -2.901  13.053  20.264  0.00  0.00    +0.000 C 
ATOM      6  O   UNL     1      -3.975  12.472  20.214  0.00  0.00    +0.000 OA
ATOM      7  N   UNL     1      -1.724  12.606  19.733  0.00  0.00    +0.000 N 
ATOM      8  C   UNL     1      -2.779  14.626  22.287  0.00  0.00    +0.000 C 
ATOM      9  N   UNL     1      -1.386  14.395  22.765  0.00  0.00    +0.000 NA
ATOM     10  C   UNL     1      -0.448  14.926  21.697  0.00  0.00    +0.000 C 
ATOM     11  C   UNL     1      -0.213  16.426  21.935  0.00  0.00    +0.000 C 
ATOM     12  C   UNL     1       0.946  16.893  21.060  0.00  0.00    +0.000 C 
ATOM     13  C   UNL     1       2.205  16.275  21.635  0.00  0.00    +0.000 C 
ATOM     14  N   UNL     1       2.162  14.827  21.505  0.00  0.00    +0.000 N 
ATOM     15  C   UNL     1       0.960  14.116  21.710  0.00  0.00    +0.000 C 
ATOM     16  O   UNL     1       0.950  12.885  21.798  0.00  0.00    +0.000 OA
ATOM     17  H   UNL     1      -1.215  13.388  22.841  0.00  0.00    +0.000 HD
ENDROOT
BRANCH   8  18
ATOM     18  C   UNL     1      -3.930  13.845  22.922  0.00  0.00    +0.000 A 
ATOM     19  C   UNL     1      -5.274  14.203  22.753  0.00  0.00    +0.000 A 
ATOM     20  C   UNL     1      -6.287  13.604  23.520  0.00  0.00    +0.000 A 
ATOM     21  C   UNL     1      -5.981  12.619  24.456  0.00  0.00    +0.000 A 
ATOM     22  C   UNL     1      -4.657  12.220  24.620  0.00  0.00    +0.000 A 
ATOM     23  C   UNL     1      -3.642  12.828  23.865  0.00  0.00    +0.000 A 
ENDBRANCH   8  18
BRANCH   7  24
ATOM     24  C   UNL     1      -1.621  11.328  19.080  0.00  0.00    +0.000 C 
BRANCH  24  25
ATOM     25  C   UNL     1      -0.627  10.427  19.769  0.00  0.00    +0.000 A 
ATOM     26  C   UNL     1      -0.774  10.094  21.124  0.00  0.00    +0.000 A 
ATOM     27  C   UNL     1       0.112   9.202  21.733  0.00  0.00    +0.000 A 
ATOM     28  C   UNL     1       1.163   8.652  21.000  0.00  0.00    +0.000 A 
ATOM     29  C   UNL     1       1.349   9.019  19.669  0.00  0.00    +0.000 A 
ATOM     30  C   UNL     1       0.466   9.912  19.060  0.00  0.00    +0.000 A 
ENDBRANCH  24  25
ENDBRANCH   7  24
BRANCH  14  31
ATOM     31  C   UNL     1       3.382  14.167  20.975  0.00  0.00    +0.000 C 
BRANCH  31  32
ATOM     32  C   UNL     1       3.879  14.582  19.615  0.00  0.00    +0.000 A 
ATOM     33  C   UNL     1       3.339  14.663  18.345  0.00  0.00    +0.000 A 
ATOM     34  C   UNL     1       4.254  15.396  17.542  0.00  0.00    +0.000 A 
ATOM     35  C   UNL     1       5.325  15.697  18.351  0.00  0.00    +0.000 A 
ATOM     36  O   UNL     1       5.112  15.199  19.599  0.00  0.00    +0.000 OA
ENDBRANCH  31  32
ENDBRANCH  14  31
TORSDOF 5
ENDMDL
MODEL 4
REMARK VINA RESULT:      -7.0      0.464      1.237
REMARK  Name = 
REMARK  5 active torsions:
REMARK  status: ('A' for Active; 'I' for Inactive)
REMARK    1  A    between atoms: N_7  and  C_8
REMARK    2  A    between atoms: C_8  and  C_9
REMARK    3  A    between atoms: C_15  and  C_16
REMARK    4  A    between atoms: N_27  and  C_28
REMARK    5  A    between atoms: C_28  and  C_29
REMARK                            x       y       z     vdW  Elec       q    Type
REMARK                         _______ _______ _______ _____ _____    ______ ____
ROOT
ATOM      1  O   UNL     1      -3.344  12.457  23.860  0.00  0.00    +0.000 OA
ATOM      2  C   UNL     1      -2.595  13.165  23.202  0.00  0.00    +0.000 C 
ATOM      3  C   UNL     1      -2.822  14.626  22.992  0.00  0.00    +0.000 C 
ATOM      4  C   UNL     1      -1.425  15.164  22.657  0.00  0.00    +0.000 C 
ATOM      5  C   UNL     1      -0.595  13.913  22.501  0.00  0.00    +0.000 C 
ATOM      6  O   UNL     1       0.622  13.892  22.399  0.00  0.00    +0.000 OA
ATOM      7  N   UNL     1      -1.405  12.821  22.639  0.00  0.00    +0.000 N 
ATOM      8  C   UNL     1      -1.594  16.009  21.409  0.00  0.00    +0.000 C 
ATOM      9  N   UNL     1      -2.798  15.451  20.730  0.00  0.00    +0.000 NA
ATOM     10  C   UNL     1      -3.751  14.984  21.813  0.00  0.00    +0.000 C 
ATOM     11  C   UNL     1      -4.628  16.166  22.256  0.00  0.00    +0.000 C 
ATOM     12  C   UNL     1      -5.774  15.641  23.115  0.00  0.00    +0.000 C 
ATOM     13  C   UNL     1      -6.702  14.881  22.189  0.00  0.00    +0.000 C 
ATOM     14  N   UNL     1      -6.033  13.707  21.654  0.00  0.00    +0.000 N 
ATOM     15  C   UNL     1      -4.672  13.755  21.282  0.00  0.00    +0.000 C 
ATOM     16  O   UNL     1      -4.147  12.836  20.647  0.00  0.00    +0.000 OA
ATOM     17  H   UNL     1      -2.529  14.624  20.188  0.00  0.00    +0.000 HD
ENDROOT
BRANCH   8  18
ATOM     18  C   UNL     1      -0.296  16.176  20.619  0.00  0.00    +0.000 A 
ATOM     19  C   UNL     1       0.710  17.078  20.993  0.00  0.00    +0.000 A 
ATOM     20  C   UNL     1       1.783  17.365  20.133  0.00  0.00    +0.000 A 
ATOM     21  C   UNL     1       1.888  16.740  18.893  0.00  0.00    +0.000 A 
ATOM     22  C   UNL     1       0.921  15.813  18.512  0.00  0.00    +0.000 A 
ATOM     23  C   UNL     1      -0.160  15.536  19.363  0.00  0.00    +0.000 A 
ENDBRANCH   8  18
BRANCH   7  24
ATOM     24  C   UNL     1      -0.882  11.480  22.628  0.00  0.00    +0.000 C 
BRANCH  24  25
ATOM     25  C   UNL     1      -0.507  11.040  21.235  0.00  0.00    +0.000 A 
ATOM     26  C   UNL     1       0.559  10.152  21.022  0.00  0.00    +0.000 A 
ATOM     27  C   UNL     1       0.851   9.695  19.735  0.00  0.00    +0.000 A 
ATOM     28  C   UNL     1       0.095  10.134  18.649  0.00  0.00    +0.000 A 
ATOM     29  C   UNL     1      -0.931  11.056  18.844  0.00  0.00    +0.000 A 
ATOM     30  C   UNL     1      -1.222  11.517  20.129  0.00  0.00    +0.000 A 
ENDBRANCH  24  25
ENDBRANCH   7  24
BRANCH  14  31
ATOM     31  C   UNL     1      -6.789  12.430  21.691  0.00  0.00    +0.000 C 
BRANCH  31  32
ATOM     32  C   UNL     1      -6.978  11.680  20.398  0.00  0.00    +0.000 A 
ATOM     33  C   UNL     1      -7.047  12.016  19.059  0.00  0.00    +0.000 A 
ATOM     34  C   UNL     1      -6.963  10.809  18.315  0.00  0.00    +0.000 A 
ATOM     35  C   UNL     1      -6.882   9.790  19.237  0.00  0.00    +0.000 A 
ATOM     36  O   UNL     1      -6.905  10.307  20.494  0.00  0.00    +0.000 OA
ENDBRANCH  31  32
ENDBRANCH  14  31
TORSDOF 5
ENDMDL
MODEL 5
REMARK VINA RESULT:      -6.9      2.424      6.862
REMARK  Name = 
REMARK  5 active torsions:
REMARK  status: ('A' for Active; 'I' for Inactive)
REMARK    1  A    between atoms: N_7  and  C_8
REMARK    2  A    between atoms: C_8  and  C_9
REMARK    3  A    between atoms: C_15  and  C_16
REMARK    4  A    between atoms: N_27  and  C_28
REMARK    5  A    between atoms: C_28  and  C_29
REMARK                            x       y       z     vdW  Elec       q    Type
REMARK                         _______ _______ _______ _____ _____    ______ ____
ROOT
ATOM      1  O   UNL     1      -0.063  14.353  19.112  0.00  0.00    +0.000 OA
ATOM      2  C   UNL     1      -0.947  14.249  19.951  0.00  0.00    +0.000 C 
ATOM      3  C   UNL     1      -1.494  15.409  20.715  0.00  0.00    +0.000 C 
ATOM      4  C   UNL     1      -2.882  14.929  21.157  0.00  0.00    +0.000 C 
ATOM      5  C   UNL     1      -2.884  13.468  20.780  0.00  0.00    +0.000 C 
ATOM      6  O   UNL     1      -3.868  12.744  20.803  0.00  0.00    +0.000 OA
ATOM      7  N   UNL     1      -1.658  13.135  20.277  0.00  0.00    +0.000 N 
ATOM      8  C   UNL     1      -2.973  15.233  22.640  0.00  0.00    +0.000 C 
ATOM      9  N   UNL     1      -1.561  15.241  23.116  0.00  0.00    +0.000 NA
ATOM     10  C   UNL     1      -0.707  15.787  21.988  0.00  0.00    +0.000 C 
ATOM     11  C   UNL     1      -0.679  17.321  22.075  0.00  0.00    +0.000 C 
ATOM     12  C   UNL     1       0.405  17.854  21.142  0.00  0.00    +0.000 C 
ATOM     13  C   UNL     1       1.737  17.471  21.754  0.00  0.00    +0.000 C 
ATOM     14  N   UNL     1       1.892  16.025  21.765  0.00  0.00    +0.000 N 
ATOM     15  C   UNL     1       0.799  15.181  22.056  0.00  0.00    +0.000 C 
ATOM     16  O   UNL     1       0.957  13.975  22.263  0.00  0.00    +0.000 OA
ATOM     17  H   UNL     1      -1.254  14.278  23.286  0.00  0.00    +0.000 HD
ENDROOT
BRANCH   8  18
ATOM     18  C   UNL     1      -4.005  14.369  23.365  0.00  0.00    +0.000 A 
ATOM     19  C   UNL     1      -3.652  13.260  24.146  0.00  0.00    +0.000 A 
ATOM     20  C   UNL     1      -4.626  12.363  24.615  0.00  0.00    +0.000 A 
ATOM     21  C   UNL     1      -5.975  12.567  24.335  0.00  0.00    +0.000 A 
ATOM     22  C   UNL     1      -6.356  13.681  23.590  0.00  0.00    +0.000 A 
ATOM     23  C   UNL     1      -5.383  14.569  23.108  0.00  0.00    +0.000 A 
ENDBRANCH   8  18
BRANCH   7  24
ATOM     24  C   UNL     1      -1.384  11.825  19.748  0.00  0.00    +0.000 C 
BRANCH  24  25
ATOM     25  C   UNL     1      -0.800  10.912  20.796  0.00  0.00    +0.000 A 
ATOM     26  C   UNL     1       0.062   9.863  20.440  0.00  0.00    +0.000 A 
ATOM     27  C   UNL     1       0.654   9.069  21.424  0.00  0.00    +0.000 A 
ATOM     28  C   UNL     1       0.374   9.301  22.770  0.00  0.00    +0.000 A 
ATOM     29  C   UNL     1      -0.522  10.304  23.131  0.00  0.00    +0.000 A 
ATOM     30  C   UNL     1      -1.116  11.097  22.148  0.00  0.00    +0.000 A 
ENDBRANCH  24  25
ENDBRANCH   7  24
BRANCH  14  31
ATOM     31  C   UNL     1       3.189  15.488  21.282  0.00  0.00    +0.000 C 
BRANCH  31  32
ATOM     32  C   UNL     1       3.445  15.480  19.798  0.00  0.00    +0.000 A 
ATOM     33  C   UNL     1       3.345  14.550  18.779  0.00  0.00    +0.000 A 
ATOM     34  C   UNL     1       3.472  15.251  17.551  0.00  0.00    +0.000 A 
ATOM     35  C   UNL     1       3.677  16.572  17.878  0.00  0.00    +0.000 A 
ATOM     36  O   UNL     1       3.676  16.716  19.230  0.00  0.00    +0.000 OA
ENDBRANCH  31  32
ENDBRANCH  14  31
TORSDOF 5
ENDMDL
MODEL 6
REMARK VINA RESULT:      -6.9      2.495      7.275
REMARK  Name = 
REMARK  5 active torsions:
REMARK  status: ('A' for Active; 'I' for Inactive)
REMARK    1  A    between atoms: N_7  and  C_8
REMARK    2  A    between atoms: C_8  and  C_9
REMARK    3  A    between atoms: C_15  and  C_16
REMARK    4  A    between atoms: N_27  and  C_28
REMARK    5  A    between atoms: C_28  and  C_29
REMARK                            x       y       z     vdW  Elec       q    Type
REMARK                         _______ _______ _______ _____ _____    ______ ____
ROOT
ATOM      1  O   UNL     1       0.321  13.762  18.653  0.00  0.00    +0.000 OA
ATOM      2  C   UNL     1      -0.583  13.703  19.474  0.00  0.00    +0.000 C 
ATOM      3  C   UNL     1      -1.073  14.886  20.242  0.00  0.00    +0.000 C 
ATOM      4  C   UNL     1      -2.497  14.487  20.651  0.00  0.00    +0.000 C 
ATOM      5  C   UNL     1      -2.581  13.033  20.256  0.00  0.00    +0.000 C 
ATOM      6  O   UNL     1      -3.608  12.371  20.252  0.00  0.00    +0.000 OA
ATOM      7  N   UNL     1      -1.367  12.631  19.772  0.00  0.00    +0.000 N 
ATOM      8  C   UNL     1      -2.598  14.779  22.136  0.00  0.00    +0.000 C 
ATOM      9  N   UNL     1      -1.197  14.695  22.639  0.00  0.00    +0.000 NA
ATOM     10  C   UNL     1      -0.289  15.200  21.534  0.00  0.00    +0.000 C 
ATOM     11  C   UNL     1      -0.169  16.729  21.641  0.00  0.00    +0.000 C 
ATOM     12  C   UNL     1       0.963  17.204  20.735  0.00  0.00    +0.000 C 
ATOM     13  C   UNL     1       2.257  16.733  21.368  0.00  0.00    +0.000 C 
ATOM     14  N   UNL     1       2.323  15.281  21.363  0.00  0.00    +0.000 N 
ATOM     15  C   UNL     1       1.175  14.502  21.623  0.00  0.00    +0.000 C 
ATOM     16  O   UNL     1       1.254  13.286  21.818  0.00  0.00    +0.000 OA
ATOM     17  H   UNL     1      -0.954  13.714  22.803  0.00  0.00    +0.000 HD
ENDROOT
BRANCH   8  18
ATOM     18  C   UNL     1      -3.695  13.972  22.831  0.00  0.00    +0.000 A 
ATOM     19  C   UNL     1      -5.055  14.291  22.723  0.00  0.00    +0.000 A 
ATOM     20  C   UNL     1      -6.013  13.670  23.543  0.00  0.00    +0.000 A 
ATOM     21  C   UNL     1      -5.636  12.702  24.470  0.00  0.00    +0.000 A 
ATOM     22  C   UNL     1      -4.294  12.341  24.573  0.00  0.00    +0.000 A 
ATOM     23  C   UNL     1      -3.335  12.971  23.766  0.00  0.00    +0.000 A 
ENDBRANCH   8  18
BRANCH   7  24
ATOM     24  C   UNL     1      -1.163  11.312  19.233  0.00  0.00    +0.000 C 
BRANCH  24  25
ATOM     25  C   UNL     1      -0.414  10.426  20.196  0.00  0.00    +0.000 A 
ATOM     26  C   UNL     1       0.537   9.503  19.734  0.00  0.00    +0.000 A 
ATOM     27  C   UNL     1       1.276   8.738  20.639  0.00  0.00    +0.000 A 
ATOM     28  C   UNL     1       1.058   8.874  22.010  0.00  0.00    +0.000 A 
ATOM     29  C   UNL     1       0.079   9.748  22.474  0.00  0.00    +0.000 A 
ATOM     30  C   UNL     1      -0.663  10.510  21.571  0.00  0.00    +0.000 A 
ENDBRANCH  24  25
ENDBRANCH   7  24
BRANCH  14  31
ATOM     31  C   UNL     1       3.594  14.670  20.898  0.00  0.00    +0.000 C 
BRANCH  31  32
ATOM     32  C   UNL     1       4.678  14.430  21.916  0.00  0.00    +0.000 A 
ATOM     33  C   UNL     1       6.058  14.334  21.890  0.00  0.00    +0.000 A 
ATOM     34  C   UNL     1       6.509  14.371  23.237  0.00  0.00    +0.000 A 
ATOM     35  C   UNL     1       5.382  14.452  24.022  0.00  0.00    +0.000 A 
ATOM     36  O   UNL     1       4.274  14.475  23.233  0.00  0.00    +0.000 OA
ENDBRANCH  31  32
ENDBRANCH  14  31
TORSDOF 5
ENDMDL
MODEL 7
REMARK VINA RESULT:      -6.8      2.320      3.422
REMARK  Name = 
REMARK  5 active torsions:
REMARK  status: ('A' for Active; 'I' for Inactive)
REMARK    1  A    between atoms: N_7  and  C_8
REMARK    2  A    between atoms: C_8  and  C_9
REMARK    3  A    between atoms: C_15  and  C_16
REMARK    4  A    between atoms: N_27  and  C_28
REMARK    5  A    between atoms: C_28  and  C_29
REMARK                            x       y       z     vdW  Elec       q    Type
REMARK                         _______ _______ _______ _____ _____    ______ ____
ROOT
ATOM      1  O   UNL     1      -4.115  12.178  21.747  0.00  0.00    +0.000 OA
ATOM      2  C   UNL     1      -3.603  13.053  22.431  0.00  0.00    +0.000 C 
ATOM      3  C   UNL     1      -4.313  13.741  23.550  0.00  0.00    +0.000 C 
ATOM      4  C   UNL     1      -3.173  14.268  24.432  0.00  0.00    +0.000 C 
ATOM      5  C   UNL     1      -1.940  14.008  23.603  0.00  0.00    +0.000 C 
ATOM      6  O   UNL     1      -0.792  14.123  24.007  0.00  0.00    +0.000 OA
ATOM      7  N   UNL     1      -2.314  13.491  22.395  0.00  0.00    +0.000 N 
ATOM      8  C   UNL     1      -3.498  15.725  24.702  0.00  0.00    +0.000 C 
ATOM      9  N   UNL     1      -4.341  16.149  23.549  0.00  0.00    +0.000 NA
ATOM     10  C   UNL     1      -5.176  14.952  23.134  0.00  0.00    +0.000 C 
ATOM     11  C   UNL     1      -6.459  14.916  23.979  0.00  0.00    +0.000 C 
ATOM     12  C   UNL     1      -7.427  13.906  23.370  0.00  0.00    +0.000 C 
ATOM     13  C   UNL     1      -7.916  14.500  22.064  0.00  0.00    +0.000 C 
ATOM     14  N   UNL     1      -6.817  14.620  21.120  0.00  0.00    +0.000 N 
ATOM     15  C   UNL     1      -5.532  15.015  21.551  0.00  0.00    +0.000 C 
ATOM     16  O   UNL     1      -4.648  15.312  20.743  0.00  0.00    +0.000 OA
ATOM     17  H   UNL     1      -3.738  16.384  22.755  0.00  0.00    +0.000 HD
ENDROOT
BRANCH   8  18
ATOM     18  C   UNL     1      -2.268  16.552  25.078  0.00  0.00    +0.000 A 
ATOM     19  C   UNL     1      -1.691  17.489  24.211  0.00  0.00    +0.000 A 
ATOM     20  C   UNL     1      -0.443  18.068  24.496  0.00  0.00    +0.000 A 
ATOM     21  C   UNL     1       0.243  17.742  25.663  0.00  0.00    +0.000 A 
ATOM     22  C   UNL     1      -0.325  16.839  26.559  0.00  0.00    +0.000 A 
ATOM     23  C   UNL     1      -1.564  16.249  26.268  0.00  0.00    +0.000 A 
ENDBRANCH   8  18
BRANCH   7  24
ATOM     24  C   UNL     1      -1.348  13.059  21.420  0.00  0.00    +0.000 C 
BRANCH  24  25
ATOM     25  C   UNL     1      -0.969  11.612  21.614  0.00  0.00    +0.000 A 
ATOM     26  C   UNL     1      -0.644  10.799  20.517  0.00  0.00    +0.000 A 
ATOM     27  C   UNL     1      -0.226   9.481  20.713  0.00  0.00    +0.000 A 
ATOM     28  C   UNL     1      -0.148   8.958  22.003  0.00  0.00    +0.000 A 
ATOM     29  C   UNL     1      -0.520   9.740  23.094  0.00  0.00    +0.000 A 
ATOM     30  C   UNL     1      -0.941  11.057  22.899  0.00  0.00    +0.000 A 
ENDBRANCH  24  25
ENDBRANCH   7  24
BRANCH  14  31
ATOM     31  C   UNL     1      -7.066  14.136  19.739  0.00  0.00    +0.000 C 
BRANCH  31  32
ATOM     32  C   UNL     1      -6.774  12.691  19.431  0.00  0.00    +0.000 A 
ATOM     33  C   UNL     1      -7.342  11.474  19.758  0.00  0.00    +0.000 A 
ATOM     34  C   UNL     1      -6.750  10.492  18.920  0.00  0.00    +0.000 A 
ATOM     35  C   UNL     1      -5.823  11.151  18.145  0.00  0.00    +0.000 A 
ATOM     36  O   UNL     1      -5.822  12.474  18.457  0.00  0.00    +0.000 OA
ENDBRANCH  31  32
ENDBRANCH  14  31
TORSDOF 5
ENDMDL
MODEL 8
REMARK VINA RESULT:      -6.8      2.490      6.444
REMARK  Name = 
REMARK  5 active torsions:
REMARK  status: ('A' for Active; 'I' for Inactive)
REMARK    1  A    between atoms: N_7  and  C_8
REMARK    2  A    between atoms: C_8  and  C_9
REMARK    3  A    between atoms: C_15  and  C_16
REMARK    4  A    between atoms: N_27  and  C_28
REMARK    5  A    between atoms: C_28  and  C_29
REMARK                            x       y       z     vdW  Elec       q    Type
REMARK                         _______ _______ _______ _____ _____    ______ ____
ROOT
ATOM      1  O   UNL     1      -0.307  14.779  23.545  0.00  0.00    +0.000 OA
ATOM      2  C   UNL     1      -0.556  14.051  22.595  0.00  0.00    +0.000 C 
ATOM      3  C   UNL     1       0.059  14.224  21.246  0.00  0.00    +0.000 C 
ATOM      4  C   UNL     1      -0.067  12.833  20.611  0.00  0.00    +0.000 C 
ATOM      5  C   UNL     1      -0.935  12.079  21.587  0.00  0.00    +0.000 C 
ATOM      6  O   UNL     1      -1.144  10.875  21.549  0.00  0.00    +0.000 OA
ATOM      7  N   UNL     1      -1.322  12.926  22.587  0.00  0.00    +0.000 N 
ATOM      8  C   UNL     1      -0.658  13.059  19.232  0.00  0.00    +0.000 C 
ATOM      9  N   UNL     1      -1.417  14.337  19.346  0.00  0.00    +0.000 NA
ATOM     10  C   UNL     1      -0.663  15.224  20.318  0.00  0.00    +0.000 C 
ATOM     11  C   UNL     1       0.417  16.006  19.552  0.00  0.00    +0.000 C 
ATOM     12  C   UNL     1       0.969  17.106  20.454  0.00  0.00    +0.000 C 
ATOM     13  C   UNL     1      -0.130  18.138  20.608  0.00  0.00    +0.000 C 
ATOM     14  N   UNL     1      -1.263  17.569  21.318  0.00  0.00    +0.000 N 
ATOM     15  C   UNL     1      -1.676  16.241  21.079  0.00  0.00    +0.000 C 
ATOM     16  O   UNL     1      -2.745  15.811  21.520  0.00  0.00    +0.000 OA
ATOM     17  H   UNL     1      -2.335  14.151  19.759  0.00  0.00    +0.000 HD
ENDROOT
BRANCH   8  18
ATOM     18  C   UNL     1      -1.356  11.819  18.670  0.00  0.00    +0.000 A 
ATOM     19  C   UNL     1      -0.656  10.752  18.091  0.00  0.00    +0.000 A 
ATOM     20  C   UNL     1      -1.330   9.737  17.392  0.00  0.00    +0.000 A 
ATOM     21  C   UNL     1      -2.717   9.754  17.276  0.00  0.00    +0.000 A 
ATOM     22  C   UNL     1      -3.440  10.785  17.872  0.00  0.00    +0.000 A 
ATOM     23  C   UNL     1      -2.767  11.807  18.558  0.00  0.00    +0.000 A 
ENDBRANCH   8  18
BRANCH   7  24
ATOM     24  C   UNL     1      -2.088  12.469  23.717  0.00  0.00    +0.000 C 
BRANCH  24  25
ATOM     25  C   UNL     1      -3.571  12.575  23.465  0.00  0.00    +0.000 A 
ATOM     26  C   UNL     1      -4.488  12.518  24.525  0.00  0.00    +0.000 A 
ATOM     27  C   UNL     1      -5.854  12.690  24.288  0.00  0.00    +0.000 A 
ATOM     28  C   UNL     1      -6.317  12.900  22.990  0.00  0.00    +0.000 A 
ATOM     29  C   UNL     1      -5.419  12.904  21.925  0.00  0.00    +0.000 A 
ATOM     30  C   UNL     1      -4.055  12.730  22.159  0.00  0.00    +0.000 A 
ENDBRANCH  24  25
ENDBRANCH   7  24
BRANCH  14  31
ATOM     31  C   UNL     1      -1.838  18.380  22.421  0.00  0.00    +0.000 C 
BRANCH  31  32
ATOM     32  C   UNL     1      -1.324  18.143  23.817  0.00  0.00    +0.000 A 
ATOM     33  C   UNL     1      -0.233  18.562  24.556  0.00  0.00    +0.000 A 
ATOM     34  C   UNL     1      -0.473  18.197  25.908  0.00  0.00    +0.000 A 
ATOM     35  C   UNL     1      -1.683  17.543  25.925  0.00  0.00    +0.000 A 
ATOM     36  O   UNL     1      -2.196  17.494  24.666  0.00  0.00    +0.000 OA
ENDBRANCH  31  32
ENDBRANCH  14  31
TORSDOF 5
ENDMDL
MODEL 9
REMARK VINA RESULT:      -6.8      2.216      3.642
REMARK  Name = 
REMARK  5 active torsions:
REMARK  status: ('A' for Active; 'I' for Inactive)
REMARK    1  A    between atoms: N_7  and  C_8
REMARK    2  A    between atoms: C_8  and  C_9
REMARK    3  A    between atoms: C_15  and  C_16
REMARK    4  A    between atoms: N_27  and  C_28
REMARK    5  A    between atoms: C_28  and  C_29
REMARK                            x       y       z     vdW  Elec       q    Type
REMARK                         _______ _______ _______ _____ _____    ______ ____
ROOT
ATOM      1  O   UNL     1      -3.839  12.260  20.882  0.00  0.00    +0.000 OA
ATOM      2  C   UNL     1      -3.402  13.007  21.747  0.00  0.00    +0.000 C 
ATOM      3  C   UNL     1      -4.013  13.138  23.103  0.00  0.00    +0.000 C 
ATOM      4  C   UNL     1      -2.862  13.671  23.967  0.00  0.00    +0.000 C 
ATOM      5  C   UNL     1      -1.785  13.988  22.960  0.00  0.00    +0.000 C 
ATOM      6  O   UNL     1      -0.632  14.279  23.241  0.00  0.00    +0.000 OA
ATOM      7  N   UNL     1      -2.267  13.757  21.702  0.00  0.00    +0.000 N 
ATOM      8  C   UNL     1      -3.430  14.853  24.729  0.00  0.00    +0.000 C 
ATOM      9  N   UNL     1      -4.549  15.353  23.882  0.00  0.00    +0.000 NA
ATOM     10  C   UNL     1      -5.175  14.149  23.204  0.00  0.00    +0.000 C 
ATOM     11  C   UNL     1      -6.235  13.541  24.137  0.00  0.00    +0.000 C 
ATOM     12  C   UNL     1      -7.067  12.530  23.353  0.00  0.00    +0.000 C 
ATOM     13  C   UNL     1      -7.912  13.322  22.376  0.00  0.00    +0.000 C 
ATOM     14  N   UNL     1      -7.066  13.987  21.399  0.00  0.00    +0.000 N 
ATOM     15  C   UNL     1      -5.835  14.564  21.779  0.00  0.00    +0.000 C 
ATOM     16  O   UNL     1      -5.206  15.298  21.012  0.00  0.00    +0.000 OA
ATOM     17  H   UNL     1      -4.173  15.952  23.141  0.00  0.00    +0.000 HD
ENDROOT
BRANCH   8  18
ATOM     18  C   UNL     1      -2.354  15.830  25.204  0.00  0.00    +0.000 A 
ATOM     19  C   UNL     1      -1.419  15.506  26.198  0.00  0.00    +0.000 A 
ATOM     20  C   UNL     1      -0.592  16.490  26.764  0.00  0.00    +0.000 A 
ATOM     21  C   UNL     1      -0.663  17.813  26.333  0.00  0.00    +0.000 A 
ATOM     22  C   UNL     1      -1.558  18.155  25.323  0.00  0.00    +0.000 A 
ATOM     23  C   UNL     1      -2.396  17.177  24.767  0.00  0.00    +0.000 A 
ENDBRANCH   8  18
BRANCH   7  24
ATOM     24  C   UNL     1      -1.437  13.887  20.534  0.00  0.00    +0.000 C 
BRANCH  24  25
ATOM     25  C   UNL     1      -0.907  12.552  20.075  0.00  0.00    +0.000 A 
ATOM     26  C   UNL     1      -0.012  11.820  20.871  0.00  0.00    +0.000 A 
ATOM     27  C   UNL     1       0.416  10.552  20.469  0.00  0.00    +0.000 A 
ATOM     28  C   UNL     1      -0.029  10.015  19.262  0.00  0.00    +0.000 A 
ATOM     29  C   UNL     1      -0.874  10.757  18.440  0.00  0.00    +0.000 A 
ATOM     30  C   UNL     1      -1.300  12.025  18.839  0.00  0.00    +0.000 A 
ENDBRANCH  24  25
ENDBRANCH   7  24
BRANCH  14  31
ATOM     31  C   UNL     1      -7.467  13.869  19.974  0.00  0.00    +0.000 C 
BRANCH  31  32
ATOM     32  C   UNL     1      -6.939  12.701  19.184  0.00  0.00    +0.000 A 
ATOM     33  C   UNL     1      -5.932  12.506  18.257  0.00  0.00    +0.000 A 
ATOM     34  C   UNL     1      -5.771  11.104  18.095  0.00  0.00    +0.000 A 
ATOM     35  C   UNL     1      -6.712  10.509  18.904  0.00  0.00    +0.000 A 
ATOM     36  O   UNL     1      -7.429  11.466  19.553  0.00  0.00    +0.000 OA
ENDBRANCH  31  32
ENDBRANCH  14  31
TORSDOF 5
ENDMDL
