MODEL 1
REMARK VINA RESULT:      -8.6      0.000      0.000
REMARK  Name = 
REMARK  3 active torsions:
REMARK  status: ('A' for Active; 'I' for Inactive)
REMARK    1  A    between atoms: C_2  and  C_4
REMARK    2  A    between atoms: C_6  and  C_7
REMARK    3  A    between atoms: C_15  and  C_16
REMARK                            x       y       z     vdW  Elec       q    Type
REMARK                         _______ _______ _______ _____ _____    ______ ____
ROOT
ATOM      1  C   UNL     1       6.890   5.181  17.951  0.00  0.00    +0.000 A 
ATOM      2  C   UNL     1       7.461   5.344  16.652  0.00  0.00    +0.000 A 
ATOM      3  C   UNL     1       6.699   4.656  15.727  0.00  0.00    +0.000 A 
ATOM      4  N   UNL     1       5.658   4.100  16.437  0.00  0.00    +0.000 N 
ATOM      5  C   UNL     1       5.724   4.443  17.769  0.00  0.00    +0.000 A 
ATOM      6  H   UNL     1       4.902   3.593  15.994  0.00  0.00    +0.000 HD
ENDROOT
BRANCH   3   7
ATOM      7  C   UNL     1       6.852   4.481  14.284  0.00  0.00    +0.000 A 
ATOM      8  C   UNL     1       7.653   5.317  13.535  0.00  0.00    +0.000 A 
ATOM      9  C   UNL     1       7.697   5.049  12.192  0.00  0.00    +0.000 A 
ATOM     10  N   UNL     1       7.018   4.044  11.619  0.00  0.00    +0.000 NA
ATOM     11  C   UNL     1       6.284   3.277  12.432  0.00  0.00    +0.000 A 
ATOM     12  N   UNL     1       5.572   2.255  11.839  0.00  0.00    +0.000 N 
ATOM     13  N   UNL     1       6.153   3.457  13.753  0.00  0.00    +0.000 NA
ATOM     14  H   UNL     1       5.443   2.469  10.860  0.00  0.00    +0.000 HD
ATOM     15  H   UNL     1       4.743   2.052  12.377  0.00  0.00    +0.000 HD
ENDBRANCH   3   7
BRANCH   5  16
ATOM     16  C   UNL     1       4.660   4.102  18.776  0.00  0.00    +0.000 A 
ATOM     17  C   UNL     1       4.567   2.848  19.342  0.00  0.00    +0.000 A 
ATOM     18  S   UNL     1       3.291   2.719  20.457  0.00  0.00    +0.000 S 
ATOM     19  C   UNL     1       2.846   4.366  20.241  0.00  0.00    +0.000 A 
ATOM     20  C   UNL     1       1.799   5.037  20.901  0.00  0.00    +0.000 A 
ATOM     21  C   UNL     1       1.552   6.374  20.597  0.00  0.00    +0.000 A 
ATOM     22  C   UNL     1       2.313   7.027  19.639  0.00  0.00    +0.000 A 
ATOM     23  C   UNL     1       3.348   6.355  18.982  0.00  0.00    +0.000 A 
ATOM     24  C   UNL     1       3.657   5.005  19.294  0.00  0.00    +0.000 A 
ENDBRANCH   5  16
BRANCH   1  26
ATOM     25  N   UNL     1       8.229   6.836  19.041  0.00  0.00    +0.000 N 
ATOM     26  C   UNL     1       7.484   5.702  19.173  0.00  0.00    +0.000 C 
ATOM     27  O   UNL     1       7.287   5.204  20.278  0.00  0.00    +0.000 OA
ATOM     28  H   UNL     1       8.667   7.218  19.868  0.00  0.00    +0.000 HD
ATOM     29  H   UNL     1       8.356   7.298  18.153  0.00  0.00    +0.000 HD
ENDBRANCH   1  26
TORSDOF 3
ENDMDL
MODEL 2
REMARK VINA RESULT:      -8.5      0.827      1.415
REMARK  Name = 
REMARK  3 active torsions:
REMARK  status: ('A' for Active; 'I' for Inactive)
REMARK    1  A    between atoms: C_2  and  C_4
REMARK    2  A    between atoms: C_6  and  C_7
REMARK    3  A    between atoms: C_15  and  C_16
REMARK                            x       y       z     vdW  Elec       q    Type
REMARK                         _______ _______ _______ _____ _____    ______ ____
ROOT
ATOM      1  C   UNL     1       6.872   5.139  18.070  0.00  0.00    +0.000 A 
ATOM      2  C   UNL     1       7.447   5.340  16.777  0.00  0.00    +0.000 A 
ATOM      3  C   UNL     1       6.679   4.690  15.830  0.00  0.00    +0.000 A 
ATOM      4  N   UNL     1       5.631   4.122  16.520  0.00  0.00    +0.000 N 
ATOM      5  C   UNL     1       5.699   4.420  17.863  0.00  0.00    +0.000 A 
ATOM      6  H   UNL     1       4.870   3.638  16.060  0.00  0.00    +0.000 HD
ENDROOT
BRANCH   3   7
ATOM      7  C   UNL     1       6.831   4.562  14.381  0.00  0.00    +0.000 A 
ATOM      8  C   UNL     1       6.227   3.542  13.678  0.00  0.00    +0.000 A 
ATOM      9  C   UNL     1       6.463   3.532  12.329  0.00  0.00    +0.000 A 
ATOM     10  N   UNL     1       7.223   4.447  11.707  0.00  0.00    +0.000 NA
ATOM     11  C   UNL     1       7.748   5.408  12.472  0.00  0.00    +0.000 A 
ATOM     12  N   UNL     1       8.544   6.337  11.835  0.00  0.00    +0.000 N 
ATOM     13  N   UNL     1       7.602   5.505  13.800  0.00  0.00    +0.000 NA
ATOM     14  H   UNL     1       8.883   5.941  10.969  0.00  0.00    +0.000 HD
ATOM     15  H   UNL     1       9.236   6.700  12.475  0.00  0.00    +0.000 HD
ENDBRANCH   3   7
BRANCH   5  16
ATOM     16  C   UNL     1       4.631   4.056  18.858  0.00  0.00    +0.000 A 
ATOM     17  C   UNL     1       4.540   2.793  19.401  0.00  0.00    +0.000 A 
ATOM     18  S   UNL     1       3.258   2.638  20.506  0.00  0.00    +0.000 S 
ATOM     19  C   UNL     1       2.807   4.287  20.316  0.00  0.00    +0.000 A 
ATOM     20  C   UNL     1       1.754   4.942  20.982  0.00  0.00    +0.000 A 
ATOM     21  C   UNL     1       1.503   6.284  20.700  0.00  0.00    +0.000 A 
ATOM     22  C   UNL     1       2.266   6.957  19.758  0.00  0.00    +0.000 A 
ATOM     23  C   UNL     1       3.308   6.300  19.095  0.00  0.00    +0.000 A 
ATOM     24  C   UNL     1       3.621   4.946  19.385  0.00  0.00    +0.000 A 
ENDBRANCH   5  16
BRANCH   1  26
ATOM     25  N   UNL     1       8.307   6.684  19.200  0.00  0.00    +0.000 N 
ATOM     26  C   UNL     1       7.471   5.613  19.309  0.00  0.00    +0.000 C 
ATOM     27  O   UNL     1       7.204   5.135  20.407  0.00  0.00    +0.000 OA
ATOM     28  H   UNL     1       8.751   7.031  20.038  0.00  0.00    +0.000 HD
ATOM     29  H   UNL     1       8.496   7.133  18.315  0.00  0.00    +0.000 HD
ENDBRANCH   1  26
TORSDOF 3
ENDMDL
MODEL 3
REMARK VINA RESULT:      -8.5      1.288      1.965
REMARK  Name = 
REMARK  3 active torsions:
REMARK  status: ('A' for Active; 'I' for Inactive)
REMARK    1  A    between atoms: C_2  and  C_4
REMARK    2  A    between atoms: C_6  and  C_7
REMARK    3  A    between atoms: C_15  and  C_16
REMARK                            x       y       z     vdW  Elec       q    Type
REMARK                         _______ _______ _______ _____ _____    ______ ____
ROOT
ATOM      1  C   UNL     1       6.625   5.384  17.774  0.00  0.00    +0.000 A 
ATOM      2  C   UNL     1       7.360   5.241  16.558  0.00  0.00    +0.000 A 
ATOM      3  C   UNL     1       6.497   4.875  15.542  0.00  0.00    +0.000 A 
ATOM      4  N   UNL     1       5.245   4.822  16.114  0.00  0.00    +0.000 N 
ATOM      5  C   UNL     1       5.289   5.172  17.445  0.00  0.00    +0.000 A 
ATOM      6  H   UNL     1       4.405   4.643  15.577  0.00  0.00    +0.000 HD
ENDROOT
BRANCH   3   7
ATOM      7  C   UNL     1       6.732   4.585  14.129  0.00  0.00    +0.000 A 
ATOM      8  C   UNL     1       7.593   5.346  13.368  0.00  0.00    +0.000 A 
ATOM      9  C   UNL     1       7.711   4.973  12.055  0.00  0.00    +0.000 A 
ATOM     10  N   UNL     1       7.048   3.936  11.521  0.00  0.00    +0.000 NA
ATOM     11  C   UNL     1       6.251   3.247  12.345  0.00  0.00    +0.000 A 
ATOM     12  N   UNL     1       5.555   2.193  11.791  0.00  0.00    +0.000 N 
ATOM     13  N   UNL     1       6.044   3.533  13.637  0.00  0.00    +0.000 NA
ATOM     14  H   UNL     1       5.489   2.332  10.792  0.00  0.00    +0.000 HD
ATOM     15  H   UNL     1       4.691   2.046  12.291  0.00  0.00    +0.000 HD
ENDBRANCH   3   7
BRANCH   5  16
ATOM     16  C   UNL     1       4.069   5.339  18.309  0.00  0.00    +0.000 A 
ATOM     17  C   UNL     1       3.671   6.572  18.779  0.00  0.00    +0.000 A 
ATOM     18  S   UNL     1       2.259   6.496  19.722  0.00  0.00    +0.000 S 
ATOM     19  C   UNL     1       2.116   4.798  19.492  0.00  0.00    +0.000 A 
ATOM     20  C   UNL     1       1.097   3.974  20.005  0.00  0.00    +0.000 A 
ATOM     21  C   UNL     1       1.136   2.605  19.746  0.00  0.00    +0.000 A 
ATOM     22  C   UNL     1       2.180   2.060  19.013  0.00  0.00    +0.000 A 
ATOM     23  C   UNL     1       3.194   2.882  18.511  0.00  0.00    +0.000 A 
ATOM     24  C   UNL     1       3.167   4.287  18.719  0.00  0.00    +0.000 A 
ENDBRANCH   5  16
BRANCH   1  26
ATOM     25  N   UNL     1       8.181   6.658  19.069  0.00  0.00    +0.000 N 
ATOM     26  C   UNL     1       7.233   5.678  19.063  0.00  0.00    +0.000 C 
ATOM     27  O   UNL     1       6.884   5.137  20.108  0.00  0.00    +0.000 OA
ATOM     28  H   UNL     1       8.634   6.878  19.944  0.00  0.00    +0.000 HD
ATOM     29  H   UNL     1       8.443   7.160  18.233  0.00  0.00    +0.000 HD
ENDBRANCH   1  26
TORSDOF 3
ENDMDL
MODEL 4
REMARK VINA RESULT:      -8.0      1.555      2.425
REMARK  Name = 
REMARK  3 active torsions:
REMARK  status: ('A' for Active; 'I' for Inactive)
REMARK    1  A    between atoms: C_2  and  C_4
REMARK    2  A    between atoms: C_6  and  C_7
REMARK    3  A    between atoms: C_15  and  C_16
REMARK                            x       y       z     vdW  Elec       q    Type
REMARK                         _______ _______ _______ _____ _____    ______ ____
ROOT
ATOM      1  C   UNL     1       6.556   5.254  18.011  0.00  0.00    +0.000 A 
ATOM      2  C   UNL     1       7.300   5.174  16.793  0.00  0.00    +0.000 A 
ATOM      3  C   UNL     1       6.442   4.872  15.753  0.00  0.00    +0.000 A 
ATOM      4  N   UNL     1       5.185   4.795  16.311  0.00  0.00    +0.000 N 
ATOM      5  C   UNL     1       5.222   5.070  17.660  0.00  0.00    +0.000 A 
ATOM      6  H   UNL     1       4.349   4.652  15.759  0.00  0.00    +0.000 HD
ENDROOT
BRANCH   3   7
ATOM      7  C   UNL     1       6.686   4.661  14.327  0.00  0.00    +0.000 A 
ATOM      8  C   UNL     1       6.124   3.602  13.646  0.00  0.00    +0.000 A 
ATOM      9  C   UNL     1       6.445   3.515  12.317  0.00  0.00    +0.000 A 
ATOM     10  N   UNL     1       7.248   4.391  11.694  0.00  0.00    +0.000 NA
ATOM     11  C   UNL     1       7.728   5.394  12.435  0.00  0.00    +0.000 A 
ATOM     12  N   UNL     1       8.568   6.284  11.799  0.00  0.00    +0.000 N 
ATOM     13  N   UNL     1       7.497   5.568  13.743  0.00  0.00    +0.000 NA
ATOM     14  H   UNL     1       8.960   5.838  10.980  0.00  0.00    +0.000 HD
ATOM     15  H   UNL     1       9.219   6.682  12.459  0.00  0.00    +0.000 HD
ENDBRANCH   3   7
BRANCH   5  16
ATOM     16  C   UNL     1       3.996   5.195  18.524  0.00  0.00    +0.000 A 
ATOM     17  C   UNL     1       3.654   6.382  19.135  0.00  0.00    +0.000 A 
ATOM     18  S   UNL     1       2.222   6.269  20.045  0.00  0.00    +0.000 S 
ATOM     19  C   UNL     1       1.997   4.620  19.609  0.00  0.00    +0.000 A 
ATOM     20  C   UNL     1       0.927   3.796  20.005  0.00  0.00    +0.000 A 
ATOM     21  C   UNL     1       0.901   2.468  19.582  0.00  0.00    +0.000 A 
ATOM     22  C   UNL     1       1.928   1.961  18.801  0.00  0.00    +0.000 A 
ATOM     23  C   UNL     1       2.992   2.782  18.415  0.00  0.00    +0.000 A 
ATOM     24  C   UNL     1       3.034   4.151  18.791  0.00  0.00    +0.000 A 
ENDBRANCH   5  16
BRANCH   1  26
ATOM     25  N   UNL     1       8.182   6.367  19.366  0.00  0.00    +0.000 N 
ATOM     26  C   UNL     1       7.156   5.471  19.319  0.00  0.00    +0.000 C 
ATOM     27  O   UNL     1       6.739   4.940  20.344  0.00  0.00    +0.000 OA
ATOM     28  H   UNL     1       8.631   6.532  20.256  0.00  0.00    +0.000 HD
ATOM     29  H   UNL     1       8.505   6.862  18.548  0.00  0.00    +0.000 HD
ENDBRANCH   1  26
TORSDOF 3
ENDMDL
MODEL 5
REMARK VINA RESULT:      -7.7      4.137      7.803
REMARK  Name = 
REMARK  3 active torsions:
REMARK  status: ('A' for Active; 'I' for Inactive)
REMARK    1  A    between atoms: C_2  and  C_4
REMARK    2  A    between atoms: C_6  and  C_7
REMARK    3  A    between atoms: C_15  and  C_16
REMARK                            x       y       z     vdW  Elec       q    Type
REMARK                         _______ _______ _______ _____ _____    ______ ____
ROOT
ATOM      1  C   UNL     1       2.935   4.719  19.884  0.00  0.00    +0.000 A 
ATOM      2  C   UNL     1       1.810   5.502  20.286  0.00  0.00    +0.000 A 
ATOM      3  C   UNL     1       2.114   6.843  20.150  0.00  0.00    +0.000 A 
ATOM      4  N   UNL     1       3.394   6.889  19.645  0.00  0.00    +0.000 N 
ATOM      5  C   UNL     1       3.891   5.623  19.430  0.00  0.00    +0.000 A 
ATOM      6  H   UNL     1       3.848   7.755  19.381  0.00  0.00    +0.000 HD
ENDROOT
BRANCH   3   7
ATOM      7  C   UNL     1       1.335   8.047  20.437  0.00  0.00    +0.000 A 
ATOM      8  C   UNL     1       1.216   9.067  19.519  0.00  0.00    +0.000 A 
ATOM      9  C   UNL     1       0.469  10.143  19.922  0.00  0.00    +0.000 A 
ATOM     10  N   UNL     1      -0.124  10.220  21.123  0.00  0.00    +0.000 NA
ATOM     11  C   UNL     1       0.033   9.170  21.936  0.00  0.00    +0.000 A 
ATOM     12  N   UNL     1      -0.560   9.258  23.178  0.00  0.00    +0.000 N 
ATOM     13  N   UNL     1       0.756   8.078  21.656  0.00  0.00    +0.000 NA
ATOM     14  H   UNL     1      -0.715  10.232  23.400  0.00  0.00    +0.000 HD
ATOM     15  H   UNL     1      -0.043   8.712  23.850  0.00  0.00    +0.000 HD
ENDBRANCH   3   7
BRANCH   5  16
ATOM     16  C   UNL     1       5.209   5.342  18.762  0.00  0.00    +0.000 A 
ATOM     17  C   UNL     1       6.405   5.429  19.443  0.00  0.00    +0.000 A 
ATOM     18  S   UNL     1       7.748   5.053  18.472  0.00  0.00    +0.000 S 
ATOM     19  C   UNL     1       6.754   4.720  17.109  0.00  0.00    +0.000 A 
ATOM     20  C   UNL     1       7.197   4.299  15.841  0.00  0.00    +0.000 A 
ATOM     21  C   UNL     1       6.261   4.091  14.829  0.00  0.00    +0.000 A 
ATOM     22  C   UNL     1       4.914   4.318  15.064  0.00  0.00    +0.000 A 
ATOM     23  C   UNL     1       4.479   4.742  16.323  0.00  0.00    +0.000 A 
ATOM     24  C   UNL     1       5.397   4.925  17.391  0.00  0.00    +0.000 A 
ENDBRANCH   5  16
BRANCH   1  26
ATOM     25  N   UNL     1       2.855   2.743  21.230  0.00  0.00    +0.000 N 
ATOM     26  C   UNL     1       2.993   3.268  19.980  0.00  0.00    +0.000 C 
ATOM     27  O   UNL     1       3.094   2.536  19.000  0.00  0.00    +0.000 OA
ATOM     28  H   UNL     1       2.903   1.740  21.335  0.00  0.00    +0.000 HD
ATOM     29  H   UNL     1       2.710   3.322  22.045  0.00  0.00    +0.000 HD
ENDBRANCH   1  26
TORSDOF 3
ENDMDL
MODEL 6
REMARK VINA RESULT:      -7.7      3.922      7.556
REMARK  Name = 
REMARK  3 active torsions:
REMARK  status: ('A' for Active; 'I' for Inactive)
REMARK    1  A    between atoms: C_2  and  C_4
REMARK    2  A    between atoms: C_6  and  C_7
REMARK    3  A    between atoms: C_15  and  C_16
REMARK                            x       y       z     vdW  Elec       q    Type
REMARK                         _______ _______ _______ _____ _____    ______ ____
ROOT
ATOM      1  C   UNL     1       2.990   4.758  19.879  0.00  0.00    +0.000 A 
ATOM      2  C   UNL     1       1.859   5.551  20.246  0.00  0.00    +0.000 A 
ATOM      3  C   UNL     1       2.154   6.887  20.049  0.00  0.00    +0.000 A 
ATOM      4  N   UNL     1       3.434   6.919  19.541  0.00  0.00    +0.000 N 
ATOM      5  C   UNL     1       3.939   5.648  19.384  0.00  0.00    +0.000 A 
ATOM      6  H   UNL     1       3.881   7.775  19.238  0.00  0.00    +0.000 HD
ENDROOT
BRANCH   3   7
ATOM      7  C   UNL     1       1.367   8.097  20.282  0.00  0.00    +0.000 A 
ATOM      8  C   UNL     1       0.694   8.304  21.467  0.00  0.00    +0.000 A 
ATOM      9  C   UNL     1      -0.015   9.474  21.548  0.00  0.00    +0.000 A 
ATOM     10  N   UNL     1      -0.064  10.376  20.557  0.00  0.00    +0.000 NA
ATOM     11  C   UNL     1       0.639  10.094  19.455  0.00  0.00    +0.000 A 
ATOM     12  N   UNL     1       0.573  11.013  18.430  0.00  0.00    +0.000 N 
ATOM     13  N   UNL     1       1.350   8.976  19.258  0.00  0.00    +0.000 NA
ATOM     14  H   UNL     1      -0.264  11.569  18.539  0.00  0.00    +0.000 HD
ATOM     15  H   UNL     1       0.705  10.553  17.541  0.00  0.00    +0.000 HD
ENDBRANCH   3   7
BRANCH   5  16
ATOM     16  C   UNL     1       5.259   5.346  18.728  0.00  0.00    +0.000 A 
ATOM     17  C   UNL     1       6.448   5.395  19.425  0.00  0.00    +0.000 A 
ATOM     18  S   UNL     1       7.794   5.002  18.465  0.00  0.00    +0.000 S 
ATOM     19  C   UNL     1       6.810   4.713  17.085  0.00  0.00    +0.000 A 
ATOM     20  C   UNL     1       7.260   4.302  15.816  0.00  0.00    +0.000 A 
ATOM     21  C   UNL     1       6.333   4.132  14.789  0.00  0.00    +0.000 A 
ATOM     22  C   UNL     1       4.988   4.388  15.010  0.00  0.00    +0.000 A 
ATOM     23  C   UNL     1       4.547   4.802  16.271  0.00  0.00    +0.000 A 
ATOM     24  C   UNL     1       5.455   4.947  17.353  0.00  0.00    +0.000 A 
ENDBRANCH   5  16
BRANCH   1  26
ATOM     25  N   UNL     1       2.826   2.839  21.296  0.00  0.00    +0.000 N 
ATOM     26  C   UNL     1       3.058   3.314  20.040  0.00  0.00    +0.000 C 
ATOM     27  O   UNL     1       3.247   2.544  19.103  0.00  0.00    +0.000 OA
ATOM     28  H   UNL     1       2.879   1.842  21.447  0.00  0.00    +0.000 HD
ATOM     29  H   UNL     1       2.609   3.448  22.072  0.00  0.00    +0.000 HD
ENDBRANCH   1  26
TORSDOF 3
ENDMDL
MODEL 7
REMARK VINA RESULT:      -7.7      2.911      4.824
REMARK  Name = 
REMARK  3 active torsions:
REMARK  status: ('A' for Active; 'I' for Inactive)
REMARK    1  A    between atoms: C_2  and  C_4
REMARK    2  A    between atoms: C_6  and  C_7
REMARK    3  A    between atoms: C_15  and  C_16
REMARK                            x       y       z     vdW  Elec       q    Type
REMARK                         _______ _______ _______ _____ _____    ______ ____
ROOT
ATOM      1  C   UNL     1       2.636   4.500  20.068  0.00  0.00    +0.000 A 
ATOM      2  C   UNL     1       3.739   3.845  19.439  0.00  0.00    +0.000 A 
ATOM      3  C   UNL     1       4.409   4.748  18.636  0.00  0.00    +0.000 A 
ATOM      4  N   UNL     1       3.750   5.948  18.788  0.00  0.00    +0.000 N 
ATOM      5  C   UNL     1       2.710   5.835  19.683  0.00  0.00    +0.000 A 
ATOM      6  H   UNL     1       4.073   6.807  18.362  0.00  0.00    +0.000 HD
ENDROOT
BRANCH   3   7
ATOM      7  C   UNL     1       5.577   4.593  17.771  0.00  0.00    +0.000 A 
ATOM      8  C   UNL     1       6.853   4.847  18.226  0.00  0.00    +0.000 A 
ATOM      9  C   UNL     1       7.855   4.675  17.308  0.00  0.00    +0.000 A 
ATOM     10  N   UNL     1       7.637   4.280  16.044  0.00  0.00    +0.000 NA
ATOM     11  C   UNL     1       6.367   4.039  15.704  0.00  0.00    +0.000 A 
ATOM     12  N   UNL     1       6.141   3.652  14.399  0.00  0.00    +0.000 N 
ATOM     13  N   UNL     1       5.308   4.193  16.510  0.00  0.00    +0.000 NA
ATOM     14  H   UNL     1       6.918   3.952  13.828  0.00  0.00    +0.000 HD
ATOM     15  H   UNL     1       5.219   3.939  14.106  0.00  0.00    +0.000 HD
ENDBRANCH   3   7
BRANCH   5  16
ATOM     16  C   UNL     1       1.885   6.999  20.160  0.00  0.00    +0.000 A 
ATOM     17  C   UNL     1       1.201   6.966  21.357  0.00  0.00    +0.000 A 
ATOM     18  S   UNL     1       0.355   8.405  21.675  0.00  0.00    +0.000 S 
ATOM     19  C   UNL     1       0.919   9.137  20.224  0.00  0.00    +0.000 A 
ATOM     20  C   UNL     1       0.625  10.441  19.783  0.00  0.00    +0.000 A 
ATOM     21  C   UNL     1       1.146  10.879  18.567  0.00  0.00    +0.000 A 
ATOM     22  C   UNL     1       1.924  10.033  17.792  0.00  0.00    +0.000 A 
ATOM     23  C   UNL     1       2.209   8.736  18.232  0.00  0.00    +0.000 A 
ATOM     24  C   UNL     1       1.731   8.267  19.484  0.00  0.00    +0.000 A 
ENDBRANCH   5  16
BRANCH   1  26
ATOM     25  N   UNL     1       0.455   3.557  20.346  0.00  0.00    +0.000 N 
ATOM     26  C   UNL     1       1.664   3.825  20.916  0.00  0.00    +0.000 C 
ATOM     27  O   UNL     1       1.917   3.452  22.058  0.00  0.00    +0.000 OA
ATOM     28  H   UNL     1      -0.248   3.101  20.910  0.00  0.00    +0.000 HD
ATOM     29  H   UNL     1       0.244   3.800  19.389  0.00  0.00    +0.000 HD
ENDBRANCH   1  26
TORSDOF 3
ENDMDL
MODEL 8
REMARK VINA RESULT:      -7.7      4.374      8.079
REMARK  Name = 
REMARK  3 active torsions:
REMARK  status: ('A' for Active; 'I' for Inactive)
REMARK    1  A    between atoms: C_2  and  C_4
REMARK    2  A    between atoms: C_6  and  C_7
REMARK    3  A    between atoms: C_15  and  C_16
REMARK                            x       y       z     vdW  Elec       q    Type
REMARK                         _______ _______ _______ _____ _____    ______ ____
ROOT
ATOM      1  C   UNL     1       2.112   4.878  20.346  0.00  0.00    +0.000 A 
ATOM      2  C   UNL     1       1.268   5.853  20.963  0.00  0.00    +0.000 A 
ATOM      3  C   UNL     1       1.597   7.108  20.487  0.00  0.00    +0.000 A 
ATOM      4  N   UNL     1       2.607   6.911  19.571  0.00  0.00    +0.000 N 
ATOM      5  C   UNL     1       2.900   5.572  19.433  0.00  0.00    +0.000 A 
ATOM      6  H   UNL     1       2.994   7.661  19.013  0.00  0.00    +0.000 HD
ENDROOT
BRANCH   3   7
ATOM      7  C   UNL     1       1.064   8.433  20.800  0.00  0.00    +0.000 A 
ATOM      8  C   UNL     1       1.244   9.504  19.952  0.00  0.00    +0.000 A 
ATOM      9  C   UNL     1       0.704  10.691  20.373  0.00  0.00    +0.000 A 
ATOM     10  N   UNL     1       0.035  10.827  21.528  0.00  0.00    +0.000 NA
ATOM     11  C   UNL     1      -0.104   9.725  22.272  0.00  0.00    +0.000 A 
ATOM     12  N   UNL     1      -0.776   9.870  23.468  0.00  0.00    +0.000 N 
ATOM     13  N   UNL     1       0.397   8.520  21.970  0.00  0.00    +0.000 NA
ATOM     14  H   UNL     1      -0.744  10.841  23.748  0.00  0.00    +0.000 HD
ATOM     15  H   UNL     1      -0.447   9.190  24.137  0.00  0.00    +0.000 HD
ENDBRANCH   3   7
BRANCH   5  16
ATOM     16  C   UNL     1       3.862   5.025  18.414  0.00  0.00    +0.000 A 
ATOM     17  C   UNL     1       3.429   4.405  17.262  0.00  0.00    +0.000 A 
ATOM     18  S   UNL     1       4.707   3.886  16.269  0.00  0.00    +0.000 S 
ATOM     19  C   UNL     1       5.889   4.520  17.346  0.00  0.00    +0.000 A 
ATOM     20  C   UNL     1       7.285   4.478  17.165  0.00  0.00    +0.000 A 
ATOM     21  C   UNL     1       8.112   5.021  18.147  0.00  0.00    +0.000 A 
ATOM     22  C   UNL     1       7.568   5.573  19.296  0.00  0.00    +0.000 A 
ATOM     23  C   UNL     1       6.181   5.607  19.474  0.00  0.00    +0.000 A 
ATOM     24  C   UNL     1       5.304   5.102  18.478  0.00  0.00    +0.000 A 
ENDBRANCH   5  16
BRANCH   1  26
ATOM     25  N   UNL     1       2.331   3.150  21.986  0.00  0.00    +0.000 N 
ATOM     26  C   UNL     1       2.097   3.462  20.680  0.00  0.00    +0.000 C 
ATOM     27  O   UNL     1       1.827   2.585  19.864  0.00  0.00    +0.000 OA
ATOM     28  H   UNL     1       2.341   2.176  22.250  0.00  0.00    +0.000 HD
ATOM     29  H   UNL     1       2.495   3.857  22.688  0.00  0.00    +0.000 HD
ENDBRANCH   1  26
TORSDOF 3
ENDMDL
MODEL 9
REMARK VINA RESULT:      -7.6      4.270      7.814
REMARK  Name = 
REMARK  3 active torsions:
REMARK  status: ('A' for Active; 'I' for Inactive)
REMARK    1  A    between atoms: C_2  and  C_4
REMARK    2  A    between atoms: C_6  and  C_7
REMARK    3  A    between atoms: C_15  and  C_16
REMARK                            x       y       z     vdW  Elec       q    Type
REMARK                         _______ _______ _______ _____ _____    ______ ____
ROOT
ATOM      1  C   UNL     1       2.168   5.015  20.323  0.00  0.00    +0.000 A 
ATOM      2  C   UNL     1       1.334   6.021  20.900  0.00  0.00    +0.000 A 
ATOM      3  C   UNL     1       1.663   7.251  20.363  0.00  0.00    +0.000 A 
ATOM      4  N   UNL     1       2.665   7.006  19.449  0.00  0.00    +0.000 N 
ATOM      5  C   UNL     1       2.951   5.661  19.372  0.00  0.00    +0.000 A 
ATOM      6  H   UNL     1       3.050   7.728  18.853  0.00  0.00    +0.000 HD
ENDROOT
BRANCH   3   7
ATOM      7  C   UNL     1       1.138   8.591  20.618  0.00  0.00    +0.000 A 
ATOM      8  C   UNL     1       0.712   8.974  21.871  0.00  0.00    +0.000 A 
ATOM      9  C   UNL     1       0.231  10.253  21.968  0.00  0.00    +0.000 A 
ATOM     10  N   UNL     1       0.172  11.099  20.928  0.00  0.00    +0.000 NA
ATOM     11  C   UNL     1       0.628  10.641  19.758  0.00  0.00    +0.000 A 
ATOM     12  N   UNL     1       0.551  11.505  18.685  0.00  0.00    +0.000 N 
ATOM     13  N   UNL     1       1.101   9.407  19.543  0.00  0.00    +0.000 NA
ATOM     14  H   UNL     1      -0.153  12.205  18.877  0.00  0.00    +0.000 HD
ATOM     15  H   UNL     1       0.457  10.985  17.826  0.00  0.00    +0.000 HD
ENDBRANCH   3   7
BRANCH   5  16
ATOM     16  C   UNL     1       3.903   5.063  18.372  0.00  0.00    +0.000 A 
ATOM     17  C   UNL     1       3.458   4.420  17.237  0.00  0.00    +0.000 A 
ATOM     18  S   UNL     1       4.726   3.843  16.263  0.00  0.00    +0.000 S 
ATOM     19  C   UNL     1       5.920   4.480  17.325  0.00  0.00    +0.000 A 
ATOM     20  C   UNL     1       7.314   4.401  17.150  0.00  0.00    +0.000 A 
ATOM     21  C   UNL     1       8.152   4.952  18.117  0.00  0.00    +0.000 A 
ATOM     22  C   UNL     1       7.619   5.550  19.248  0.00  0.00    +0.000 A 
ATOM     23  C   UNL     1       6.233   5.622  19.421  0.00  0.00    +0.000 A 
ATOM     24  C   UNL     1       5.346   5.108  18.438  0.00  0.00    +0.000 A 
ENDBRANCH   5  16
BRANCH   1  26
ATOM     25  N   UNL     1       2.211   3.374  22.063  0.00  0.00    +0.000 N 
ATOM     26  C   UNL     1       2.150   3.615  20.723  0.00  0.00    +0.000 C 
ATOM     27  O   UNL     1       2.023   2.692  19.924  0.00  0.00    +0.000 OA
ATOM     28  H   UNL     1       2.214   2.413  22.376  0.00  0.00    +0.000 HD
ATOM     29  H   UNL     1       2.255   4.118  22.744  0.00  0.00    +0.000 HD
ENDBRANCH   1  26
TORSDOF 3
ENDMDL
