MODEL 1
REMARK VINA RESULT:      -8.5      0.000      0.000
REMARK  Name = 
REMARK  2 active torsions:
REMARK  status: ('A' for Active; 'I' for Inactive)
REMARK    1  A    between atoms: C_5  and  C_6
REMARK    2  A    between atoms: C_6  and  N_7
REMARK                            x       y       z     vdW  Elec       q    Type
REMARK                         _______ _______ _______ _____ _____    ______ ____
ROOT
ATOM      1  N   UNL     1       1.298   9.747  18.995  0.00  0.00    +0.000 N 
ATOM      2  C   UNL     1       1.824   8.494  19.304  0.00  0.00    +0.000 A 
ATOM      3  N   UNL     1       1.469   7.909  20.460  0.00  0.00    +0.000 NA
ATOM      4  C   UNL     1       1.914   6.672  20.698  0.00  0.00    +0.000 A 
ATOM      5  C   UNL     1       2.665   5.960  19.799  0.00  0.00    +0.000 A 
ATOM      6  C   UNL     1       3.034   6.642  18.649  0.00  0.00    +0.000 A 
ATOM      7  N   UNL     1       2.652   7.924  18.416  0.00  0.00    +0.000 NA
ATOM      8  C   UNL     1       3.812   5.948  17.595  0.00  0.00    +0.000 A 
ATOM      9  C   UNL     1       4.719   6.631  16.768  0.00  0.00    +0.000 A 
ATOM     10  C   UNL     1       5.475   5.949  15.808  0.00  0.00    +0.000 A 
ATOM     11  C   UNL     1       5.297   4.581  15.621  0.00  0.00    +0.000 A 
ATOM     12 CL   UNL     1       6.231   3.741  14.443  0.00  0.00    +0.000 Cl
ATOM     13  C   UNL     1       4.398   3.874  16.409  0.00  0.00    +0.000 A 
ATOM     14  C   UNL     1       3.694   4.546  17.416  0.00  0.00    +0.000 A 
ATOM     15  S   UNL     1       2.728   3.544  18.551  0.00  0.00    +0.000 S 
ATOM     16  C   UNL     1       3.062   4.544  20.031  0.00  0.00    +0.000 C 
ATOM     17  H   UNL     1       2.057  10.411  19.083  0.00  0.00    +0.000 HD
ENDROOT
BRANCH   1  18
ATOM     18  C   UNL     1       0.138  10.099  19.805  0.00  0.00    +0.000 C 
BRANCH  18  23
ATOM     19 CL   UNL     1      -4.652  11.636  16.465  0.00  0.00    +0.000 Cl
ATOM     20  C   UNL     1      -3.277  11.206  17.405  0.00  0.00    +0.000 A 
ATOM     21  C   UNL     1      -2.385  10.245  16.933  0.00  0.00    +0.000 A 
ATOM     22  C   UNL     1      -1.269   9.896  17.699  0.00  0.00    +0.000 A 
ATOM     23  C   UNL     1      -1.036  10.508  18.940  0.00  0.00    +0.000 A 
ATOM     24  C   UNL     1      -1.951  11.468  19.404  0.00  0.00    +0.000 A 
ATOM     25  C   UNL     1      -3.065  11.817  18.638  0.00  0.00    +0.000 A 
ENDBRANCH  18  23
ENDBRANCH   1  18
TORSDOF 2
ENDMDL
MODEL 2
REMARK VINA RESULT:      -8.1      2.266      2.775
REMARK  Name = 
REMARK  2 active torsions:
REMARK  status: ('A' for Active; 'I' for Inactive)
REMARK    1  A    between atoms: C_5  and  C_6
REMARK    2  A    between atoms: C_6  and  N_7
REMARK                            x       y       z     vdW  Elec       q    Type
REMARK                         _______ _______ _______ _____ _____    ______ ____
ROOT
ATOM      1  N   UNL     1       1.511   8.190  20.576  0.00  0.00    +0.000 N 
ATOM      2  C   UNL     1       2.032   6.920  20.331  0.00  0.00    +0.000 A 
ATOM      3  N   UNL     1       1.593   5.886  21.068  0.00  0.00    +0.000 NA
ATOM      4  C   UNL     1       2.039   4.665  20.760  0.00  0.00    +0.000 A 
ATOM      5  C   UNL     1       2.876   4.417  19.703  0.00  0.00    +0.000 A 
ATOM      6  C   UNL     1       3.328   5.535  19.017  0.00  0.00    +0.000 A 
ATOM      7  N   UNL     1       2.943   6.792  19.354  0.00  0.00    +0.000 NA
ATOM      8  C   UNL     1       4.205   5.372  17.833  0.00  0.00    +0.000 A 
ATOM      9  C   UNL     1       5.164   6.335  17.480  0.00  0.00    +0.000 A 
ATOM     10  C   UNL     1       6.011   6.140  16.382  0.00  0.00    +0.000 A 
ATOM     11  C   UNL     1       5.875   5.007  15.586  0.00  0.00    +0.000 A 
ATOM     12 CL   UNL     1       6.920   4.766  14.239  0.00  0.00    +0.000 Cl
ATOM     13  C   UNL     1       4.926   4.040  15.895  0.00  0.00    +0.000 A 
ATOM     14  C   UNL     1       4.128   4.202  17.034  0.00  0.00    +0.000 A 
ATOM     15  S   UNL     1       3.088   2.818  17.512  0.00  0.00    +0.000 S 
ATOM     16  C   UNL     1       3.279   3.040  19.307  0.00  0.00    +0.000 C 
ATOM     17  H   UNL     1       2.248   8.727  21.015  0.00  0.00    +0.000 HD
ENDROOT
BRANCH   1  18
ATOM     18  C   UNL     1       0.281   8.164  21.358  0.00  0.00    +0.000 C 
BRANCH  18  23
ATOM     19 CL   UNL     1      -2.038  13.664  22.270  0.00  0.00    +0.000 Cl
ATOM     20  C   UNL     1      -1.362  12.105  22.007  0.00  0.00    +0.000 A 
ATOM     21  C   UNL     1      -0.961  11.727  20.727  0.00  0.00    +0.000 A 
ATOM     22  C   UNL     1      -0.413  10.459  20.515  0.00  0.00    +0.000 A 
ATOM     23  C   UNL     1      -0.258   9.561  21.583  0.00  0.00    +0.000 A 
ATOM     24  C   UNL     1      -0.677   9.956  22.865  0.00  0.00    +0.000 A 
ATOM     25  C   UNL     1      -1.223  11.223  23.077  0.00  0.00    +0.000 A 
ENDBRANCH  18  23
ENDBRANCH   1  18
TORSDOF 2
ENDMDL
MODEL 3
REMARK VINA RESULT:      -7.8      2.421      2.855
REMARK  Name = 
REMARK  2 active torsions:
REMARK  status: ('A' for Active; 'I' for Inactive)
REMARK    1  A    between atoms: C_5  and  C_6
REMARK    2  A    between atoms: C_6  and  N_7
REMARK                            x       y       z     vdW  Elec       q    Type
REMARK                         _______ _______ _______ _____ _____    ______ ____
ROOT
ATOM      1  N   UNL     1       1.124  10.268  18.020  0.00  0.00    +0.000 N 
ATOM      2  C   UNL     1       1.663   9.108  18.573  0.00  0.00    +0.000 A 
ATOM      3  N   UNL     1       1.285   8.741  19.809  0.00  0.00    +0.000 NA
ATOM      4  C   UNL     1       1.745   7.581  20.286  0.00  0.00    +0.000 A 
ATOM      5  C   UNL     1       2.535   6.731  19.556  0.00  0.00    +0.000 A 
ATOM      6  C   UNL     1       2.927   7.195  18.309  0.00  0.00    +0.000 A 
ATOM      7  N   UNL     1       2.529   8.401  17.829  0.00  0.00    +0.000 NA
ATOM      8  C   UNL     1       3.749   6.335  17.424  0.00  0.00    +0.000 A 
ATOM      9  C   UNL     1       4.667   6.873  16.508  0.00  0.00    +0.000 A 
ATOM     10  C   UNL     1       5.465   6.041  15.713  0.00  0.00    +0.000 A 
ATOM     11  C   UNL     1       5.317   4.658  15.782  0.00  0.00    +0.000 A 
ATOM     12 CL   UNL     1       6.302   3.635  14.807  0.00  0.00    +0.000 Cl
ATOM     13  C   UNL     1       4.408   4.090  16.664  0.00  0.00    +0.000 A 
ATOM     14  C   UNL     1       3.662   4.922  17.509  0.00  0.00    +0.000 A 
ATOM     15  S   UNL     1       2.680   4.127  18.786  0.00  0.00    +0.000 S 
ATOM     16  C   UNL     1       2.952   5.394  20.061  0.00  0.00    +0.000 C 
ATOM     17  H   UNL     1       1.867  10.954  18.002  0.00  0.00    +0.000 HD
ENDROOT
BRANCH   1  18
ATOM     18  C   UNL     1      -0.067  10.737  18.720  0.00  0.00    +0.000 C 
BRANCH  18  23
ATOM     19 CL   UNL     1       0.732  16.459  20.477  0.00  0.00    +0.000 Cl
ATOM     20  C   UNL     1       0.492  14.827  19.989  0.00  0.00    +0.000 A 
ATOM     21  C   UNL     1       0.887  13.785  20.826  0.00  0.00    +0.000 A 
ATOM     22  C   UNL     1       0.694  12.460  20.426  0.00  0.00    +0.000 A 
ATOM     23  C   UNL     1       0.098  12.168  19.190  0.00  0.00    +0.000 A 
ATOM     24  C   UNL     1      -0.286  13.231  18.355  0.00  0.00    +0.000 A 
ATOM     25  C   UNL     1      -0.093  14.555  18.755  0.00  0.00    +0.000 A 
ENDBRANCH  18  23
ENDBRANCH   1  18
TORSDOF 2
ENDMDL
MODEL 4
REMARK VINA RESULT:      -7.6      2.490      2.877
REMARK  Name = 
REMARK  2 active torsions:
REMARK  status: ('A' for Active; 'I' for Inactive)
REMARK    1  A    between atoms: C_5  and  C_6
REMARK    2  A    between atoms: C_6  and  N_7
REMARK                            x       y       z     vdW  Elec       q    Type
REMARK                         _______ _______ _______ _____ _____    ______ ____
ROOT
ATOM      1  N   UNL     1       1.151   9.371  19.535  0.00  0.00    +0.000 N 
ATOM      2  C   UNL     1       1.712   8.106  19.704  0.00  0.00    +0.000 A 
ATOM      3  N   UNL     1       1.349   7.373  20.769  0.00  0.00    +0.000 NA
ATOM      4  C   UNL     1       1.830   6.131  20.867  0.00  0.00    +0.000 A 
ATOM      5  C   UNL     1       2.627   5.558  19.910  0.00  0.00    +0.000 A 
ATOM      6  C   UNL     1       3.001   6.387  18.862  0.00  0.00    +0.000 A 
ATOM      7  N   UNL     1       2.581   7.675  18.776  0.00  0.00    +0.000 NA
ATOM      8  C   UNL     1       3.828   5.852  17.754  0.00  0.00    +0.000 A 
ATOM      9  C   UNL     1       4.730   6.660  17.043  0.00  0.00    +0.000 A 
ATOM     10  C   UNL     1       5.533   6.124  16.029  0.00  0.00    +0.000 A 
ATOM     11  C   UNL     1       5.406   4.785  15.671  0.00  0.00    +0.000 A 
ATOM     12 CL   UNL     1       6.397   4.125  14.427  0.00  0.00    +0.000 Cl
ATOM     13  C   UNL     1       4.513   3.959  16.341  0.00  0.00    +0.000 A 
ATOM     14  C   UNL     1       3.762   4.480  17.403  0.00  0.00    +0.000 A 
ATOM     15  S   UNL     1       2.803   3.317  18.379  0.00  0.00    +0.000 S 
ATOM     16  C   UNL     1       3.067   4.137  19.979  0.00  0.00    +0.000 C 
ATOM     17  H   UNL     1       1.885  10.042  19.724  0.00  0.00    +0.000 HD
ENDROOT
BRANCH   1  18
ATOM     18  C   UNL     1      -0.040   9.584  20.349  0.00  0.00    +0.000 C 
BRANCH  18  23
ATOM     19 CL   UNL     1      -0.188  15.108  22.784  0.00  0.00    +0.000 Cl
ATOM     20  C   UNL     1      -0.130  13.532  22.097  0.00  0.00    +0.000 A 
ATOM     21  C   UNL     1       0.732  13.268  21.035  0.00  0.00    +0.000 A 
ATOM     22  C   UNL     1       0.777  11.987  20.476  0.00  0.00    +0.000 A 
ATOM     23  C   UNL     1      -0.037  10.961  20.980  0.00  0.00    +0.000 A 
ATOM     24  C   UNL     1      -0.907  11.248  22.046  0.00  0.00    +0.000 A 
ATOM     25  C   UNL     1      -0.950  12.527  22.604  0.00  0.00    +0.000 A 
ENDBRANCH  18  23
ENDBRANCH   1  18
TORSDOF 2
ENDMDL
MODEL 5
REMARK VINA RESULT:      -7.6      3.495      8.878
REMARK  Name = 
REMARK  2 active torsions:
REMARK  status: ('A' for Active; 'I' for Inactive)
REMARK    1  A    between atoms: C_5  and  C_6
REMARK    2  A    between atoms: C_6  and  N_7
REMARK                            x       y       z     vdW  Elec       q    Type
REMARK                         _______ _______ _______ _____ _____    ______ ____
ROOT
ATOM      1  N   UNL     1       2.174   7.442  19.237  0.00  0.00    +0.000 N 
ATOM      2  C   UNL     1       1.810   8.786  19.169  0.00  0.00    +0.000 A 
ATOM      3  N   UNL     1       2.248   9.525  18.136  0.00  0.00    +0.000 NA
ATOM      4  C   UNL     1       1.818  10.786  18.042  0.00  0.00    +0.000 A 
ATOM      5  C   UNL     1       0.916  11.338  18.915  0.00  0.00    +0.000 A 
ATOM      6  C   UNL     1       0.545  10.535  19.984  0.00  0.00    +0.000 A 
ATOM      7  N   UNL     1       1.022   9.274  20.139  0.00  0.00    +0.000 NA
ATOM      8  C   UNL     1      -0.456  11.023  20.962  0.00  0.00    +0.000 A 
ATOM      9  C   UNL     1      -0.437  10.624  22.309  0.00  0.00    +0.000 A 
ATOM     10  C   UNL     1      -1.366  11.131  23.225  0.00  0.00    +0.000 A 
ATOM     11  C   UNL     1      -2.364  12.001  22.799  0.00  0.00    +0.000 A 
ATOM     12 CL   UNL     1      -3.504  12.628  23.928  0.00  0.00    +0.000 Cl
ATOM     13  C   UNL     1      -2.426  12.406  21.471  0.00  0.00    +0.000 A 
ATOM     14  C   UNL     1      -1.453  11.954  20.571  0.00  0.00    +0.000 A 
ATOM     15  S   UNL     1      -1.443  12.691  18.934  0.00  0.00    +0.000 S 
ATOM     16  C   UNL     1       0.364  12.708  18.736  0.00  0.00    +0.000 C 
ATOM     17  H   UNL     1       2.838   7.358  19.997  0.00  0.00    +0.000 HD
ENDROOT
BRANCH   1  18
ATOM     18  C   UNL     1       2.685   6.921  17.975  0.00  0.00    +0.000 C 
BRANCH  18  23
ATOM     19 CL   UNL     1       3.778   1.006  18.509  0.00  0.00    +0.000 Cl
ATOM     20  C   UNL     1       3.477   2.692  18.344  0.00  0.00    +0.000 A 
ATOM     21  C   UNL     1       4.464   3.612  18.694  0.00  0.00    +0.000 A 
ATOM     22  C   UNL     1       4.218   4.981  18.561  0.00  0.00    +0.000 A 
ATOM     23  C   UNL     1       2.985   5.440  18.071  0.00  0.00    +0.000 A 
ATOM     24  C   UNL     1       1.999   4.498  17.732  0.00  0.00    +0.000 A 
ATOM     25  C   UNL     1       2.245   3.130  17.865  0.00  0.00    +0.000 A 
ENDBRANCH  18  23
ENDBRANCH   1  18
TORSDOF 2
ENDMDL
MODEL 6
REMARK VINA RESULT:      -7.5      2.413      2.978
REMARK  Name = 
REMARK  2 active torsions:
REMARK  status: ('A' for Active; 'I' for Inactive)
REMARK    1  A    between atoms: C_5  and  C_6
REMARK    2  A    between atoms: C_6  and  N_7
REMARK                            x       y       z     vdW  Elec       q    Type
REMARK                         _______ _______ _______ _____ _____    ______ ____
ROOT
ATOM      1  N   UNL     1       1.042   9.626  19.297  0.00  0.00    +0.000 N 
ATOM      2  C   UNL     1       1.606   8.378  19.554  0.00  0.00    +0.000 A 
ATOM      3  N   UNL     1       1.255   7.725  20.675  0.00  0.00    +0.000 NA
ATOM      4  C   UNL     1       1.738   6.494  20.860  0.00  0.00    +0.000 A 
ATOM      5  C   UNL     1       2.526   5.852  19.940  0.00  0.00    +0.000 A 
ATOM      6  C   UNL     1       2.889   6.602  18.831  0.00  0.00    +0.000 A 
ATOM      7  N   UNL     1       2.467   7.879  18.653  0.00  0.00    +0.000 NA
ATOM      8  C   UNL     1       3.706   5.986  17.758  0.00  0.00    +0.000 A 
ATOM      9  C   UNL     1       4.601   6.739  16.980  0.00  0.00    +0.000 A 
ATOM     10  C   UNL     1       5.395   6.130  16.001  0.00  0.00    +0.000 A 
ATOM     11  C   UNL     1       5.266   4.768  15.745  0.00  0.00    +0.000 A 
ATOM     12 CL   UNL     1       6.246   4.018  14.543  0.00  0.00    +0.000 Cl
ATOM     13  C   UNL     1       4.380   3.993  16.483  0.00  0.00    +0.000 A 
ATOM     14  C   UNL     1       3.639   4.591  17.510  0.00  0.00    +0.000 A 
ATOM     15  S   UNL     1       2.690   3.503  18.578  0.00  0.00    +0.000 S 
ATOM     16  C   UNL     1       2.968   4.441  20.111  0.00  0.00    +0.000 C 
ATOM     17  H   UNL     1       1.777  10.310  19.429  0.00  0.00    +0.000 HD
ENDROOT
BRANCH   1  18
ATOM     18  C   UNL     1      -0.141   9.898  20.104  0.00  0.00    +0.000 C 
BRANCH  18  23
ATOM     19 CL   UNL     1       0.256  15.369  22.629  0.00  0.00    +0.000 Cl
ATOM     20  C   UNL     1       0.127  13.815  21.904  0.00  0.00    +0.000 A 
ATOM     21  C   UNL     1      -0.734  12.864  22.448  0.00  0.00    +0.000 A 
ATOM     22  C   UNL     1      -0.836  11.600  21.859  0.00  0.00    +0.000 A 
ATOM     23  C   UNL     1      -0.082  11.281  20.719  0.00  0.00    +0.000 A 
ATOM     24  C   UNL     1       0.787  12.250  20.190  0.00  0.00    +0.000 A 
ATOM     25  C   UNL     1       0.888  13.512  20.778  0.00  0.00    +0.000 A 
ENDBRANCH  18  23
ENDBRANCH   1  18
TORSDOF 2
ENDMDL
MODEL 7
REMARK VINA RESULT:      -7.4      1.951      2.278
REMARK  Name = 
REMARK  2 active torsions:
REMARK  status: ('A' for Active; 'I' for Inactive)
REMARK    1  A    between atoms: C_5  and  C_6
REMARK    2  A    between atoms: C_6  and  N_7
REMARK                            x       y       z     vdW  Elec       q    Type
REMARK                         _______ _______ _______ _____ _____    ______ ____
ROOT
ATOM      1  N   UNL     1       1.166   9.704  19.140  0.00  0.00    +0.000 N 
ATOM      2  C   UNL     1       1.701   8.446  19.412  0.00  0.00    +0.000 A 
ATOM      3  N   UNL     1       1.314   7.803  20.526  0.00  0.00    +0.000 NA
ATOM      4  C   UNL     1       1.770   6.564  20.725  0.00  0.00    +0.000 A 
ATOM      5  C   UNL     1       2.566   5.905  19.824  0.00  0.00    +0.000 A 
ATOM      6  C   UNL     1       2.966   6.644  18.721  0.00  0.00    +0.000 A 
ATOM      7  N   UNL     1       2.572   7.929  18.531  0.00  0.00    +0.000 NA
ATOM      8  C   UNL     1       3.795   6.011  17.667  0.00  0.00    +0.000 A 
ATOM      9  C   UNL     1       4.720   6.745  16.907  0.00  0.00    +0.000 A 
ATOM     10  C   UNL     1       5.524   6.118  15.947  0.00  0.00    +0.000 A 
ATOM     11  C   UNL     1       5.376   4.758  15.692  0.00  0.00    +0.000 A 
ATOM     12 CL   UNL     1       6.367   3.987  14.513  0.00  0.00    +0.000 Cl
ATOM     13  C   UNL     1       4.460   4.002  16.412  0.00  0.00    +0.000 A 
ATOM     14  C   UNL     1       3.708   4.617  17.421  0.00  0.00    +0.000 A 
ATOM     15  S   UNL     1       2.716   3.549  18.472  0.00  0.00    +0.000 S 
ATOM     16  C   UNL     1       2.978   4.486  20.008  0.00  0.00    +0.000 C 
ATOM     17  H   UNL     1       1.910  10.374  19.286  0.00  0.00    +0.000 HD
ENDROOT
BRANCH   1  18
ATOM     18  C   UNL     1      -0.029  10.000  19.920  0.00  0.00    +0.000 C 
BRANCH  18  23
ATOM     19 CL   UNL     1      -1.187  15.925  19.809  0.00  0.00    +0.000 Cl
ATOM     20  C   UNL     1      -0.874  14.234  19.836  0.00  0.00    +0.000 A 
ATOM     21  C   UNL     1      -1.387  13.449  20.867  0.00  0.00    +0.000 A 
ATOM     22  C   UNL     1      -1.130  12.075  20.889  0.00  0.00    +0.000 A 
ATOM     23  C   UNL     1      -0.363  11.477  19.878  0.00  0.00    +0.000 A 
ATOM     24  C   UNL     1       0.155  12.286  18.852  0.00  0.00    +0.000 A 
ATOM     25  C   UNL     1      -0.103  13.658  18.830  0.00  0.00    +0.000 A 
ENDBRANCH  18  23
ENDBRANCH   1  18
TORSDOF 2
ENDMDL
MODEL 8
REMARK VINA RESULT:      -7.3      2.913      3.899
REMARK  Name = 
REMARK  2 active torsions:
REMARK  status: ('A' for Active; 'I' for Inactive)
REMARK    1  A    between atoms: C_5  and  C_6
REMARK    2  A    between atoms: C_6  and  N_7
REMARK                            x       y       z     vdW  Elec       q    Type
REMARK                         _______ _______ _______ _____ _____    ______ ____
ROOT
ATOM      1  N   UNL     1       0.536   9.599  21.473  0.00  0.00    +0.000 N 
ATOM      2  C   UNL     1       1.117   8.990  20.362  0.00  0.00    +0.000 A 
ATOM      3  N   UNL     1       1.257   9.701  19.231  0.00  0.00    +0.000 NA
ATOM      4  C   UNL     1       1.894   9.129  18.206  0.00  0.00    +0.000 A 
ATOM      5  C   UNL     1       2.452   7.879  18.275  0.00  0.00    +0.000 A 
ATOM      6  C   UNL     1       2.227   7.183  19.454  0.00  0.00    +0.000 A 
ATOM      7  N   UNL     1       1.524   7.717  20.484  0.00  0.00    +0.000 NA
ATOM      8  C   UNL     1       2.823   5.838  19.645  0.00  0.00    +0.000 A 
ATOM      9  C   UNL     1       2.202   4.855  20.432  0.00  0.00    +0.000 A 
ATOM     10  C   UNL     1       2.760   3.578  20.563  0.00  0.00    +0.000 A 
ATOM     11  C   UNL     1       3.977   3.281  19.955  0.00  0.00    +0.000 A 
ATOM     12 CL   UNL     1       4.661   1.708  20.114  0.00  0.00    +0.000 Cl
ATOM     13  C   UNL     1       4.628   4.233  19.182  0.00  0.00    +0.000 A 
ATOM     14  C   UNL     1       4.033   5.487  18.994  0.00  0.00    +0.000 A 
ATOM     15  S   UNL     1       4.800   6.589  17.801  0.00  0.00    +0.000 S 
ATOM     16  C   UNL     1       3.252   7.296  17.163  0.00  0.00    +0.000 C 
ATOM     17  H   UNL     1      -0.379   9.182  21.589  0.00  0.00    +0.000 HD
ENDROOT
BRANCH   1  18
ATOM     18  C   UNL     1       0.490  11.053  21.372  0.00  0.00    +0.000 C 
BRANCH  18  23
ATOM     19 CL   UNL     1      -4.970  13.338  22.566  0.00  0.00    +0.000 Cl
ATOM     20  C   UNL     1      -3.421  12.671  22.228  0.00  0.00    +0.000 A 
ATOM     21  C   UNL     1      -2.687  12.066  23.247  0.00  0.00    +0.000 A 
ATOM     22  C   UNL     1      -1.427  11.527  22.970  0.00  0.00    +0.000 A 
ATOM     23  C   UNL     1      -0.896  11.583  21.673  0.00  0.00    +0.000 A 
ATOM     24  C   UNL     1      -1.647  12.205  20.660  0.00  0.00    +0.000 A 
ATOM     25  C   UNL     1      -2.905  12.743  20.936  0.00  0.00    +0.000 A 
ENDBRANCH  18  23
ENDBRANCH   1  18
TORSDOF 2
ENDMDL
MODEL 9
REMARK VINA RESULT:      -7.2      3.305      8.952
REMARK  Name = 
REMARK  2 active torsions:
REMARK  status: ('A' for Active; 'I' for Inactive)
REMARK    1  A    between atoms: C_5  and  C_6
REMARK    2  A    between atoms: C_6  and  N_7
REMARK                            x       y       z     vdW  Elec       q    Type
REMARK                         _______ _______ _______ _____ _____    ______ ____
ROOT
ATOM      1  N   UNL     1       2.067   7.027  19.138  0.00  0.00    +0.000 N 
ATOM      2  C   UNL     1       1.810   8.396  19.091  0.00  0.00    +0.000 A 
ATOM      3  N   UNL     1       2.307   9.115  18.072  0.00  0.00    +0.000 NA
ATOM      4  C   UNL     1       1.977  10.407  17.998  0.00  0.00    +0.000 A 
ATOM      5  C   UNL     1       1.118  11.013  18.878  0.00  0.00    +0.000 A 
ATOM      6  C   UNL     1       0.682  10.225  19.933  0.00  0.00    +0.000 A 
ATOM      7  N   UNL     1       1.058   8.928  20.068  0.00  0.00    +0.000 NA
ATOM      8  C   UNL     1      -0.281  10.773  20.917  0.00  0.00    +0.000 A 
ATOM      9  C   UNL     1      -0.297  10.351  22.257  0.00  0.00    +0.000 A 
ATOM     10  C   UNL     1      -1.187  10.914  23.180  0.00  0.00    +0.000 A 
ATOM     11  C   UNL     1      -2.113  11.867  22.766  0.00  0.00    +0.000 A 
ATOM     12 CL   UNL     1      -3.204  12.562  23.903  0.00  0.00    +0.000 Cl
ATOM     13  C   UNL     1      -2.138  12.298  21.446  0.00  0.00    +0.000 A 
ATOM     14  C   UNL     1      -1.201  11.786  20.540  0.00  0.00    +0.000 A 
ATOM     15  S   UNL     1      -1.128  12.546  18.915  0.00  0.00    +0.000 S 
ATOM     16  C   UNL     1       0.675  12.426  18.721  0.00  0.00    +0.000 C 
ATOM     17  H   UNL     1       2.720   6.879  19.897  0.00  0.00    +0.000 HD
ENDROOT
BRANCH   1  18
ATOM     18  C   UNL     1       2.539   6.488  17.868  0.00  0.00    +0.000 C 
BRANCH  18  23
ATOM     19 CL   UNL     1       8.230   4.486  18.120  0.00  0.00    +0.000 Cl
ATOM     20  C   UNL     1       6.611   5.063  18.065  0.00  0.00    +0.000 A 
ATOM     21  C   UNL     1       5.631   4.460  18.851  0.00  0.00    +0.000 A 
ATOM     22  C   UNL     1       4.315   4.929  18.803  0.00  0.00    +0.000 A 
ATOM     23  C   UNL     1       3.972   6.007  17.972  0.00  0.00    +0.000 A 
ATOM     24  C   UNL     1       4.971   6.596  17.179  0.00  0.00    +0.000 A 
ATOM     25  C   UNL     1       6.286   6.128  17.228  0.00  0.00    +0.000 A 
ENDBRANCH  18  23
ENDBRANCH   1  18
TORSDOF 2
ENDMDL
