MODEL 1
REMARK VINA RESULT:      -8.5      0.000      0.000
REMARK  Name = 
REMARK  3 active torsions:
REMARK  status: ('A' for Active; 'I' for Inactive)
REMARK    1  A    between atoms: N_6  and  C_7
REMARK    2  A    between atoms: C_7  and  C_8
REMARK    3  A    between atoms: C_13  and  N_14
REMARK                            x       y       z     vdW  Elec       q    Type
REMARK                         _______ _______ _______ _____ _____    ______ ____
ROOT
ATOM      1  C   UNL     1       5.141   5.097  18.470  0.00  0.00    +0.000 A 
ATOM      2  N   UNL     1       6.049   5.228  17.496  0.00  0.00    +0.000 NA
ATOM      3  S   UNL     1       5.701   6.591  16.619  0.00  0.00    +0.000 S 
ATOM      4  C   UNL     1       4.305   7.050  17.502  0.00  0.00    +0.000 A 
ATOM      5  C   UNL     1       3.377   8.085  17.305  0.00  0.00    +0.000 A 
ATOM      6  C   UNL     1       2.271   8.139  18.162  0.00  0.00    +0.000 A 
ATOM      7  C   UNL     1       2.260   7.232  19.226  0.00  0.00    +0.000 A 
ATOM      8  N   UNL     1       3.163   6.252  19.469  0.00  0.00    +0.000 NA
ATOM      9  C   UNL     1       4.160   6.147  18.550  0.00  0.00    +0.000 A 
ENDROOT
BRANCH   6  10
ATOM     10  N   UNL     1       1.205   9.021  17.874  0.00  0.00    +0.000 N 
ATOM     11  C   UNL     1       0.597   9.915  18.703  0.00  0.00    +0.000 A 
ATOM     12  N   UNL     1       1.072  10.381  19.867  0.00  0.00    +0.000 NA
ATOM     13  N   UNL     1       0.110  11.190  20.325  0.00  0.00    +0.000 N 
ATOM     14  C   UNL     1      -0.985  11.279  19.519  0.00  0.00    +0.000 A 
ATOM     15  C   UNL     1      -2.182  11.982  19.623  0.00  0.00    +0.000 A 
ATOM     16  C   UNL     1      -3.077  11.791  18.576  0.00  0.00    +0.000 A 
ATOM     17  C   UNL     1      -2.736  10.938  17.531  0.00  0.00    +0.000 A 
ATOM     18  N   UNL     1      -1.572  10.253  17.412  0.00  0.00    +0.000 NA
ATOM     19  C   UNL     1      -0.702  10.455  18.441  0.00  0.00    +0.000 A 
ATOM     20  H   UNL     1       0.702   8.798  17.018  0.00  0.00    +0.000 HD
ATOM     21  H   UNL     1       0.258  11.653  21.213  0.00  0.00    +0.000 HD
ENDBRANCH   6  10
BRANCH   1  22
ATOM     22  C   UNL     1       5.210   3.926  19.417  0.00  0.00    +0.000 C 
BRANCH  22  28
ATOM     23  F   UNL     1       0.232   1.559  18.617  0.00  0.00    +0.000 F 
ATOM     24  C   UNL     1       1.281   2.411  18.737  0.00  0.00    +0.000 C 
ATOM     25  F   UNL     1       0.784   3.656  18.513  0.00  0.00    +0.000 F 
ATOM     26  C   UNL     1       1.843   2.336  20.136  0.00  0.00    +0.000 C 
ATOM     27  C   UNL     1       3.056   3.249  20.250  0.00  0.00    +0.000 C 
ATOM     28  N   UNL     1       4.099   2.936  19.251  0.00  0.00    +0.000 NA
ATOM     29  C   UNL     1       3.551   2.969  17.882  0.00  0.00    +0.000 C 
ATOM     30  C   UNL     1       2.323   2.085  17.698  0.00  0.00    +0.000 C 
ENDBRANCH  22  28
ENDBRANCH   1  22
TORSDOF 3
ENDMDL
MODEL 2
REMARK VINA RESULT:      -8.4      2.953      4.396
REMARK  Name = 
REMARK  3 active torsions:
REMARK  status: ('A' for Active; 'I' for Inactive)
REMARK    1  A    between atoms: N_6  and  C_7
REMARK    2  A    between atoms: C_7  and  C_8
REMARK    3  A    between atoms: C_13  and  N_14
REMARK                            x       y       z     vdW  Elec       q    Type
REMARK                         _______ _______ _______ _____ _____    ______ ____
ROOT
ATOM      1  C   UNL     1       3.283   4.068  19.012  0.00  0.00    +0.000 A 
ATOM      2  N   UNL     1       3.068   3.252  20.051  0.00  0.00    +0.000 NA
ATOM      3  S   UNL     1       2.192   4.066  21.200  0.00  0.00    +0.000 S 
ATOM      4  C   UNL     1       2.082   5.553  20.354  0.00  0.00    +0.000 A 
ATOM      5  C   UNL     1       1.549   6.798  20.725  0.00  0.00    +0.000 A 
ATOM      6  C   UNL     1       1.699   7.864  19.830  0.00  0.00    +0.000 A 
ATOM      7  C   UNL     1       2.255   7.559  18.584  0.00  0.00    +0.000 A 
ATOM      8  N   UNL     1       2.737   6.360  18.180  0.00  0.00    +0.000 NA
ATOM      9  C   UNL     1       2.687   5.374  19.115  0.00  0.00    +0.000 A 
ENDROOT
BRANCH   6  10
ATOM     10  N   UNL     1       1.376   9.176  20.243  0.00  0.00    +0.000 N 
ATOM     11  C   UNL     1       0.705  10.141  19.554  0.00  0.00    +0.000 A 
ATOM     12  N   UNL     1      -0.065   9.964  18.471  0.00  0.00    +0.000 NA
ATOM     13  N   UNL     1      -0.465  11.195  18.136  0.00  0.00    +0.000 N 
ATOM     14  C   UNL     1       0.010  12.184  18.945  0.00  0.00    +0.000 A 
ATOM     15  C   UNL     1      -0.152  13.566  18.945  0.00  0.00    +0.000 A 
ATOM     16  C   UNL     1       0.526  14.245  19.951  0.00  0.00    +0.000 A 
ATOM     17  C   UNL     1       1.297  13.527  20.861  0.00  0.00    +0.000 A 
ATOM     18  N   UNL     1       1.458  12.182  20.879  0.00  0.00    +0.000 NA
ATOM     19  C   UNL     1       0.782  11.529  19.892  0.00  0.00    +0.000 A 
ATOM     20  H   UNL     1       1.897   9.495  21.057  0.00  0.00    +0.000 HD
ATOM     21  H   UNL     1      -1.062  11.300  17.325  0.00  0.00    +0.000 HD
ENDBRANCH   6  10
BRANCH   1  22
ATOM     22  C   UNL     1       4.073   3.586  17.821  0.00  0.00    +0.000 C 
BRANCH  22  28
ATOM     23  F   UNL     1       8.208   7.275  17.260  0.00  0.00    +0.000 F 
ATOM     24  C   UNL     1       7.017   6.648  17.429  0.00  0.00    +0.000 C 
ATOM     25  F   UNL     1       6.083   7.631  17.527  0.00  0.00    +0.000 F 
ATOM     26  C   UNL     1       6.718   5.786  16.226  0.00  0.00    +0.000 C 
ATOM     27  C   UNL     1       5.410   5.037  16.445  0.00  0.00    +0.000 C 
ATOM     28  N   UNL     1       5.419   4.226  17.679  0.00  0.00    +0.000 NA
ATOM     29  C   UNL     1       5.748   5.053  18.856  0.00  0.00    +0.000 C 
ATOM     30  C   UNL     1       7.043   5.841  18.702  0.00  0.00    +0.000 C 
ENDBRANCH  22  28
ENDBRANCH   1  22
TORSDOF 3
ENDMDL
MODEL 3
REMARK VINA RESULT:      -8.4      5.055      7.151
REMARK  Name = 
REMARK  3 active torsions:
REMARK  status: ('A' for Active; 'I' for Inactive)
REMARK    1  A    between atoms: N_6  and  C_7
REMARK    2  A    between atoms: C_7  and  C_8
REMARK    3  A    between atoms: C_13  and  N_14
REMARK                            x       y       z     vdW  Elec       q    Type
REMARK                         _______ _______ _______ _____ _____    ______ ____
ROOT
ATOM      1  C   UNL     1       5.455   4.804  17.630  0.00  0.00    +0.000 A 
ATOM      2  N   UNL     1       4.782   5.127  16.520  0.00  0.00    +0.000 NA
ATOM      3  S   UNL     1       5.394   6.545  15.916  0.00  0.00    +0.000 S 
ATOM      4  C   UNL     1       6.577   6.790  17.133  0.00  0.00    +0.000 A 
ATOM      5  C   UNL     1       7.464   7.852  17.369  0.00  0.00    +0.000 A 
ATOM      6  C   UNL     1       8.255   7.795  18.523  0.00  0.00    +0.000 A 
ATOM      7  C   UNL     1       8.184   6.616  19.271  0.00  0.00    +0.000 A 
ATOM      8  N   UNL     1       7.373   5.557  19.045  0.00  0.00    +0.000 NA
ATOM      9  C   UNL     1       6.530   5.692  17.987  0.00  0.00    +0.000 A 
ENDROOT
BRANCH   6  10
ATOM     10  N   UNL     1       8.999   8.930  18.918  0.00  0.00    +0.000 N 
ATOM     11  C   UNL     1       8.919  10.204  18.442  0.00  0.00    +0.000 A 
ATOM     12  N   UNL     1       7.913  10.732  17.729  0.00  0.00    +0.000 NA
ATOM     13  N   UNL     1       8.307  11.982  17.463  0.00  0.00    +0.000 N 
ATOM     14  C   UNL     1       9.533  12.307  17.963  0.00  0.00    +0.000 A 
ATOM     15  C   UNL     1      10.300  13.467  17.908  0.00  0.00    +0.000 A 
ATOM     16  C   UNL     1      11.536  13.394  18.543  0.00  0.00    +0.000 A 
ATOM     17  C   UNL     1      11.916  12.210  19.167  0.00  0.00    +0.000 A 
ATOM     18  N   UNL     1      11.177  11.075  19.234  0.00  0.00    +0.000 NA
ATOM     19  C   UNL     1       9.967  11.163  18.615  0.00  0.00    +0.000 A 
ATOM     20  H   UNL     1       9.833   8.711  19.458  0.00  0.00    +0.000 HD
ATOM     21  H   UNL     1       7.691  12.572  16.918  0.00  0.00    +0.000 HD
ENDBRANCH   6  10
BRANCH   1  22
ATOM     22  C   UNL     1       5.094   3.558  18.399  0.00  0.00    +0.000 C 
BRANCH  22  28
ATOM     23  F   UNL     1       0.588   2.755  21.572  0.00  0.00    +0.000 F 
ATOM     24  C   UNL     1       1.842   2.823  21.059  0.00  0.00    +0.000 C 
ATOM     25  F   UNL     1       2.662   2.273  21.993  0.00  0.00    +0.000 F 
ATOM     26  C   UNL     1       1.917   2.019  19.784  0.00  0.00    +0.000 C 
ATOM     27  C   UNL     1       3.309   2.146  19.180  0.00  0.00    +0.000 C 
ATOM     28  N   UNL     1       3.696   3.550  18.934  0.00  0.00    +0.000 NA
ATOM     29  C   UNL     1       3.589   4.354  20.167  0.00  0.00    +0.000 C 
ATOM     30  C   UNL     1       2.222   4.265  20.834  0.00  0.00    +0.000 C 
ENDBRANCH  22  28
ENDBRANCH   1  22
TORSDOF 3
ENDMDL
MODEL 4
REMARK VINA RESULT:      -8.4      3.087      4.380
REMARK  Name = 
REMARK  3 active torsions:
REMARK  status: ('A' for Active; 'I' for Inactive)
REMARK    1  A    between atoms: N_6  and  C_7
REMARK    2  A    between atoms: C_7  and  C_8
REMARK    3  A    between atoms: C_13  and  N_14
REMARK                            x       y       z     vdW  Elec       q    Type
REMARK                         _______ _______ _______ _____ _____    ______ ____
ROOT
ATOM      1  C   UNL     1       2.369   7.671  19.137  0.00  0.00    +0.000 A 
ATOM      2  N   UNL     1       2.650   8.185  17.934  0.00  0.00    +0.000 NA
ATOM      3  S   UNL     1       1.918   9.667  17.802  0.00  0.00    +0.000 S 
ATOM      4  C   UNL     1       1.179   9.668  19.348  0.00  0.00    +0.000 A 
ATOM      5  C   UNL     1       0.294  10.572  19.957  0.00  0.00    +0.000 A 
ATOM      6  C   UNL     1      -0.214  10.237  21.218  0.00  0.00    +0.000 A 
ATOM      7  C   UNL     1       0.311   9.088  21.817  0.00  0.00    +0.000 A 
ATOM      8  N   UNL     1       1.198   8.220  21.276  0.00  0.00    +0.000 NA
ATOM      9  C   UNL     1       1.581   8.508  20.003  0.00  0.00    +0.000 A 
ENDROOT
BRANCH   6  10
ATOM     10  N   UNL     1      -1.266  10.999  21.774  0.00  0.00    +0.000 N 
ATOM     11  C   UNL     1      -1.205  12.229  22.357  0.00  0.00    +0.000 A 
ATOM     12  N   UNL     1      -0.207  13.118  22.251  0.00  0.00    +0.000 NA
ATOM     13  N   UNL     1      -0.583  14.143  23.024  0.00  0.00    +0.000 N 
ATOM     14  C   UNL     1      -1.785  13.971  23.644  0.00  0.00    +0.000 A 
ATOM     15  C   UNL     1      -2.520  14.766  24.519  0.00  0.00    +0.000 A 
ATOM     16  C   UNL     1      -3.721  14.218  24.955  0.00  0.00    +0.000 A 
ATOM     17  C   UNL     1      -4.098  12.954  24.509  0.00  0.00    +0.000 A 
ATOM     18  N   UNL     1      -3.397  12.172  23.653  0.00  0.00    +0.000 NA
ATOM     19  C   UNL     1      -2.226  12.725  23.228  0.00  0.00    +0.000 A 
ATOM     20  H   UNL     1      -2.115  10.468  21.951  0.00  0.00    +0.000 HD
ATOM     21  H   UNL     1       0.038  14.938  23.099  0.00  0.00    +0.000 HD
ENDBRANCH   6  10
BRANCH   1  22
ATOM     22  C   UNL     1       2.900   6.313  19.523  0.00  0.00    +0.000 C 
BRANCH  22  28
ATOM     23  F   UNL     1       0.786   1.235  18.648  0.00  0.00    +0.000 F 
ATOM     24  C   UNL     1       1.545   2.302  19.002  0.00  0.00    +0.000 C 
ATOM     25  F   UNL     1       2.671   1.793  19.568  0.00  0.00    +0.000 F 
ATOM     26  C   UNL     1       1.913   3.097  17.773  0.00  0.00    +0.000 C 
ATOM     27  C   UNL     1       2.715   4.326  18.179  0.00  0.00    +0.000 C 
ATOM     28  N   UNL     1       2.000   5.175  19.154  0.00  0.00    +0.000 NA
ATOM     29  C   UNL     1       1.603   4.397  20.343  0.00  0.00    +0.000 C 
ATOM     30  C   UNL     1       0.804   3.143  20.010  0.00  0.00    +0.000 C 
ENDBRANCH  22  28
ENDBRANCH   1  22
TORSDOF 3
ENDMDL
MODEL 5
REMARK VINA RESULT:      -8.4      3.266      4.465
REMARK  Name = 
REMARK  3 active torsions:
REMARK  status: ('A' for Active; 'I' for Inactive)
REMARK    1  A    between atoms: N_6  and  C_7
REMARK    2  A    between atoms: C_7  and  C_8
REMARK    3  A    between atoms: C_13  and  N_14
REMARK                            x       y       z     vdW  Elec       q    Type
REMARK                         _______ _______ _______ _____ _____    ______ ____
ROOT
ATOM      1  C   UNL     1       3.146   3.875  18.919  0.00  0.00    +0.000 A 
ATOM      2  N   UNL     1       2.936   3.005  19.915  0.00  0.00    +0.000 NA
ATOM      3  S   UNL     1       2.150   3.786  21.149  0.00  0.00    +0.000 S 
ATOM      4  C   UNL     1       2.077   5.327  20.402  0.00  0.00    +0.000 A 
ATOM      5  C   UNL     1       1.620   6.569  20.871  0.00  0.00    +0.000 A 
ATOM      6  C   UNL     1       1.784   7.680  20.036  0.00  0.00    +0.000 A 
ATOM      7  C   UNL     1       2.271   7.429  18.750  0.00  0.00    +0.000 A 
ATOM      8  N   UNL     1       2.677   6.237  18.252  0.00  0.00    +0.000 NA
ATOM      9  C   UNL     1       2.619   5.198  19.127  0.00  0.00    +0.000 A 
ENDROOT
BRANCH   6  10
ATOM     10  N   UNL     1       1.543   8.977  20.543  0.00  0.00    +0.000 N 
ATOM     11  C   UNL     1       0.643   9.363  21.490  0.00  0.00    +0.000 A 
ATOM     12  N   UNL     1       0.017   8.571  22.372  0.00  0.00    +0.000 NA
ATOM     13  N   UNL     1      -0.787   9.394  23.055  0.00  0.00    +0.000 N 
ATOM     14  C   UNL     1      -0.726  10.697  22.662  0.00  0.00    +0.000 A 
ATOM     15  C   UNL     1      -1.385  11.846  23.091  0.00  0.00    +0.000 A 
ATOM     16  C   UNL     1      -1.053  13.012  22.410  0.00  0.00    +0.000 A 
ATOM     17  C   UNL     1      -0.119  12.960  21.379  0.00  0.00    +0.000 A 
ATOM     18  N   UNL     1       0.536  11.851  20.956  0.00  0.00    +0.000 NA
ATOM     19  C   UNL     1       0.206  10.718  21.636  0.00  0.00    +0.000 A 
ATOM     20  H   UNL     1       1.934   9.724  19.973  0.00  0.00    +0.000 HD
ATOM     21  H   UNL     1      -1.371   8.997  23.780  0.00  0.00    +0.000 HD
ENDBRANCH   6  10
BRANCH   1  22
ATOM     22  C   UNL     1       3.860   3.433  17.666  0.00  0.00    +0.000 C 
BRANCH  22  28
ATOM     23  F   UNL     1       8.007   7.099  17.045  0.00  0.00    +0.000 F 
ATOM     24  C   UNL     1       6.820   6.477  17.257  0.00  0.00    +0.000 C 
ATOM     25  F   UNL     1       5.911   7.463  17.473  0.00  0.00    +0.000 F 
ATOM     26  C   UNL     1       6.430   5.691  16.029  0.00  0.00    +0.000 C 
ATOM     27  C   UNL     1       5.127   4.946  16.290  0.00  0.00    +0.000 C 
ATOM     28  N   UNL     1       5.204   4.064  17.472  0.00  0.00    +0.000 NA
ATOM     29  C   UNL     1       5.623   4.816  18.670  0.00  0.00    +0.000 C 
ATOM     30  C   UNL     1       6.917   5.597  18.477  0.00  0.00    +0.000 C 
ENDBRANCH  22  28
ENDBRANCH   1  22
TORSDOF 3
ENDMDL
MODEL 6
REMARK VINA RESULT:      -8.3      3.469      8.499
REMARK  Name = 
REMARK  3 active torsions:
REMARK  status: ('A' for Active; 'I' for Inactive)
REMARK    1  A    between atoms: N_6  and  C_7
REMARK    2  A    between atoms: C_7  and  C_8
REMARK    3  A    between atoms: C_13  and  N_14
REMARK                            x       y       z     vdW  Elec       q    Type
REMARK                         _______ _______ _______ _____ _____    ______ ____
ROOT
ATOM      1  C   UNL     1      -0.578  10.599  20.505  0.00  0.00    +0.000 A 
ATOM      2  N   UNL     1      -0.961  10.646  21.786  0.00  0.00    +0.000 NA
ATOM      3  S   UNL     1      -0.114   9.504  22.640  0.00  0.00    +0.000 S 
ATOM      4  C   UNL     1       0.787   8.889  21.317  0.00  0.00    +0.000 A 
ATOM      5  C   UNL     1       1.686   7.815  21.222  0.00  0.00    +0.000 A 
ATOM      6  C   UNL     1       2.195   7.502  19.956  0.00  0.00    +0.000 A 
ATOM      7  C   UNL     1       1.863   8.376  18.916  0.00  0.00    +0.000 A 
ATOM      8  N   UNL     1       1.036   9.445  18.985  0.00  0.00    +0.000 NA
ATOM      9  C   UNL     1       0.461   9.652  20.200  0.00  0.00    +0.000 A 
ENDROOT
BRANCH   6  10
ATOM     10  N   UNL     1       2.927   6.307  19.772  0.00  0.00    +0.000 N 
ATOM     11  C   UNL     1       2.663   5.275  18.922  0.00  0.00    +0.000 A 
ATOM     12  N   UNL     1       1.845   5.299  17.860  0.00  0.00    +0.000 NA
ATOM     13  N   UNL     1       1.884   4.053  17.375  0.00  0.00    +0.000 N 
ATOM     14  C   UNL     1       2.687   3.200  18.072  0.00  0.00    +0.000 A 
ATOM     15  C   UNL     1       2.996   1.852  17.917  0.00  0.00    +0.000 A 
ATOM     16  C   UNL     1       3.865   1.327  18.867  0.00  0.00    +0.000 A 
ATOM     17  C   UNL     1       4.351   2.150  19.878  0.00  0.00    +0.000 A 
ATOM     18  N   UNL     1       4.066   3.465  20.039  0.00  0.00    +0.000 NA
ATOM     19  C   UNL     1       3.219   3.968  19.096  0.00  0.00    +0.000 A 
ATOM     20  H   UNL     1       3.593   6.110  20.515  0.00  0.00    +0.000 HD
ATOM     21  H   UNL     1       1.323   3.839  16.561  0.00  0.00    +0.000 HD
ENDBRANCH   6  10
BRANCH   1  22
ATOM     22  C   UNL     1      -1.203  11.527  19.493  0.00  0.00    +0.000 C 
BRANCH  22  28
ATOM     23  F   UNL     1      -4.441  10.179  15.167  0.00  0.00    +0.000 F 
ATOM     24  C   UNL     1      -3.512  10.710  16.002  0.00  0.00    +0.000 C 
ATOM     25  F   UNL     1      -2.842  11.644  15.277  0.00  0.00    +0.000 F 
ATOM     26  C   UNL     1      -4.197  11.374  17.171  0.00  0.00    +0.000 C 
ATOM     27  C   UNL     1      -3.151  11.917  18.136  0.00  0.00    +0.000 C 
ATOM     28  N   UNL     1      -2.214  10.874  18.604  0.00  0.00    +0.000 NA
ATOM     29  C   UNL     1      -1.568  10.193  17.466  0.00  0.00    +0.000 C 
ATOM     30  C   UNL     1      -2.558   9.633  16.451  0.00  0.00    +0.000 C 
ENDBRANCH  22  28
ENDBRANCH   1  22
TORSDOF 3
ENDMDL
MODEL 7
REMARK VINA RESULT:      -8.2      3.267      4.569
REMARK  Name = 
REMARK  3 active torsions:
REMARK  status: ('A' for Active; 'I' for Inactive)
REMARK    1  A    between atoms: N_6  and  C_7
REMARK    2  A    between atoms: C_7  and  C_8
REMARK    3  A    between atoms: C_13  and  N_14
REMARK                            x       y       z     vdW  Elec       q    Type
REMARK                         _______ _______ _______ _____ _____    ______ ____
ROOT
ATOM      1  C   UNL     1       2.112   7.489  19.529  0.00  0.00    +0.000 A 
ATOM      2  N   UNL     1       2.288   7.793  18.238  0.00  0.00    +0.000 NA
ATOM      3  S   UNL     1       1.596   9.270  17.937  0.00  0.00    +0.000 S 
ATOM      4  C   UNL     1       1.016   9.550  19.525  0.00  0.00    +0.000 A 
ATOM      5  C   UNL     1       0.227  10.581  20.060  0.00  0.00    +0.000 A 
ATOM      6  C   UNL     1      -0.163  10.474  21.400  0.00  0.00    +0.000 A 
ATOM      7  C   UNL     1       0.380   9.409  22.126  0.00  0.00    +0.000 A 
ATOM      8  N   UNL     1       1.179   8.425  21.651  0.00  0.00    +0.000 NA
ATOM      9  C   UNL     1       1.442   8.489  20.318  0.00  0.00    +0.000 A 
ENDROOT
BRANCH   6  10
ATOM     10  N   UNL     1      -1.128  11.365  21.922  0.00  0.00    +0.000 N 
ATOM     11  C   UNL     1      -0.950  12.638  22.373  0.00  0.00    +0.000 A 
ATOM     12  N   UNL     1       0.102  13.433  22.134  0.00  0.00    +0.000 NA
ATOM     13  N   UNL     1      -0.160  14.554  22.815  0.00  0.00    +0.000 N 
ATOM     14  C   UNL     1      -1.337  14.536  23.502  0.00  0.00    +0.000 A 
ATOM     15  C   UNL     1      -1.968  15.467  24.323  0.00  0.00    +0.000 A 
ATOM     16  C   UNL     1      -3.181  15.057  24.864  0.00  0.00    +0.000 A 
ATOM     17  C   UNL     1      -3.669  13.788  24.566  0.00  0.00    +0.000 A 
ATOM     18  N   UNL     1      -3.071  12.874  23.764  0.00  0.00    +0.000 NA
ATOM     19  C   UNL     1      -1.887  13.292  23.234  0.00  0.00    +0.000 A 
ATOM     20  H   UNL     1      -2.003  10.919  22.188  0.00  0.00    +0.000 HD
ATOM     21  H   UNL     1       0.520  15.304  22.782  0.00  0.00    +0.000 HD
ENDBRANCH   6  10
BRANCH   1  22
ATOM     22  C   UNL     1       2.633   6.184  20.078  0.00  0.00    +0.000 C 
BRANCH  22  28
ATOM     23  F   UNL     1       3.520   1.302  17.549  0.00  0.00    +0.000 F 
ATOM     24  C   UNL     1       3.403   2.325  18.432  0.00  0.00    +0.000 C 
ATOM     25  F   UNL     1       3.835   1.844  19.628  0.00  0.00    +0.000 F 
ATOM     26  C   UNL     1       4.283   3.474  18.002  0.00  0.00    +0.000 C 
ATOM     27  C   UNL     1       4.105   4.643  18.961  0.00  0.00    +0.000 C 
ATOM     28  N   UNL     1       2.697   5.077  19.072  0.00  0.00    +0.000 NA
ATOM     29  C   UNL     1       1.822   3.953  19.454  0.00  0.00    +0.000 C 
ATOM     30  C   UNL     1       1.958   2.740  18.542  0.00  0.00    +0.000 C 
ENDBRANCH  22  28
ENDBRANCH   1  22
TORSDOF 3
ENDMDL
MODEL 8
REMARK VINA RESULT:      -8.2      4.076      9.142
REMARK  Name = 
REMARK  3 active torsions:
REMARK  status: ('A' for Active; 'I' for Inactive)
REMARK    1  A    between atoms: N_6  and  C_7
REMARK    2  A    between atoms: C_7  and  C_8
REMARK    3  A    between atoms: C_13  and  N_14
REMARK                            x       y       z     vdW  Elec       q    Type
REMARK                         _______ _______ _______ _____ _____    ______ ____
ROOT
ATOM      1  C   UNL     1      -1.361  11.543  20.595  0.00  0.00    +0.000 A 
ATOM      2  N   UNL     1      -1.684  11.837  21.860  0.00  0.00    +0.000 NA
ATOM      3  S   UNL     1      -0.802  10.868  22.876  0.00  0.00    +0.000 S 
ATOM      4  C   UNL     1       0.036  10.003  21.655  0.00  0.00    +0.000 A 
ATOM      5  C   UNL     1       0.926   8.919  21.725  0.00  0.00    +0.000 A 
ATOM      6  C   UNL     1       1.375   8.366  20.520  0.00  0.00    +0.000 A 
ATOM      7  C   UNL     1       0.997   9.030  19.349  0.00  0.00    +0.000 A 
ATOM      8  N   UNL     1       0.177  10.103  19.251  0.00  0.00    +0.000 NA
ATOM      9  C   UNL     1      -0.340  10.543  20.429  0.00  0.00    +0.000 A 
ENDROOT
BRANCH   6  10
ATOM     10  N   UNL     1       2.093   7.149  20.533  0.00  0.00    +0.000 N 
ATOM     11  C   UNL     1       2.711   6.519  19.496  0.00  0.00    +0.000 A 
ATOM     12  N   UNL     1       3.046   7.057  18.314  0.00  0.00    +0.000 NA
ATOM     13  N   UNL     1       3.584   6.047  17.622  0.00  0.00    +0.000 N 
ATOM     14  C   UNL     1       3.617   4.859  18.290  0.00  0.00    +0.000 A 
ATOM     15  C   UNL     1       4.072   3.591  17.941  0.00  0.00    +0.000 A 
ATOM     16  C   UNL     1       3.910   2.612  18.916  0.00  0.00    +0.000 A 
ATOM     17  C   UNL     1       3.322   2.948  20.132  0.00  0.00    +0.000 A 
ATOM     18  N   UNL     1       2.881   4.179  20.488  0.00  0.00    +0.000 NA
ATOM     19  C   UNL     1       3.053   5.130  19.527  0.00  0.00    +0.000 A 
ATOM     20  H   UNL     1       1.936   6.584  21.364  0.00  0.00    +0.000 HD
ATOM     21  H   UNL     1       3.905   6.231  16.681  0.00  0.00    +0.000 HD
ENDBRANCH   6  10
BRANCH   1  22
ATOM     22  C   UNL     1      -2.030  12.270  19.455  0.00  0.00    +0.000 C 
BRANCH  22  28
ATOM     23  F   UNL     1      -7.210  11.681  17.495  0.00  0.00    +0.000 F 
ATOM     24  C   UNL     1      -5.969  12.118  17.825  0.00  0.00    +0.000 C 
ATOM     25  F   UNL     1      -5.872  13.384  17.338  0.00  0.00    +0.000 F 
ATOM     26  C   UNL     1      -5.817  12.142  19.327  0.00  0.00    +0.000 C 
ATOM     27  C   UNL     1      -4.404  12.576  19.692  0.00  0.00    +0.000 C 
ATOM     28  N   UNL     1      -3.370  11.719  19.077  0.00  0.00    +0.000 NA
ATOM     29  C   UNL     1      -3.532  11.659  17.612  0.00  0.00    +0.000 C 
ATOM     30  C   UNL     1      -4.930  11.241  17.172  0.00  0.00    +0.000 C 
ENDBRANCH  22  28
ENDBRANCH   1  22
TORSDOF 3
ENDMDL
MODEL 9
REMARK VINA RESULT:      -8.1      4.028      8.326
REMARK  Name = 
REMARK  3 active torsions:
REMARK  status: ('A' for Active; 'I' for Inactive)
REMARK    1  A    between atoms: N_6  and  C_7
REMARK    2  A    between atoms: C_7  and  C_8
REMARK    3  A    between atoms: C_13  and  N_14
REMARK                            x       y       z     vdW  Elec       q    Type
REMARK                         _______ _______ _______ _____ _____    ______ ____
ROOT
ATOM      1  C   UNL     1       1.835   5.936  20.447  0.00  0.00    +0.000 A 
ATOM      2  N   UNL     1       0.912   5.030  20.793  0.00  0.00    +0.000 NA
ATOM      3  S   UNL     1       1.159   3.650  19.907  0.00  0.00    +0.000 S 
ATOM      4  C   UNL     1       2.505   4.222  19.011  0.00  0.00    +0.000 A 
ATOM      5  C   UNL     1       3.240   3.644  17.964  0.00  0.00    +0.000 A 
ATOM      6  C   UNL     1       4.241   4.419  17.367  0.00  0.00    +0.000 A 
ATOM      7  C   UNL     1       4.509   5.657  17.958  0.00  0.00    +0.000 A 
ATOM      8  N   UNL     1       3.849   6.223  18.995  0.00  0.00    +0.000 NA
ATOM      9  C   UNL     1       2.803   5.499  19.476  0.00  0.00    +0.000 A 
ENDROOT
BRANCH   6  10
ATOM     10  N   UNL     1       4.858   3.969  16.177  0.00  0.00    +0.000 N 
ATOM     11  C   UNL     1       5.929   4.501  15.524  0.00  0.00    +0.000 A 
ATOM     12  N   UNL     1       6.823   5.367  16.023  0.00  0.00    +0.000 NA
ATOM     13  N   UNL     1       7.650   5.624  15.003  0.00  0.00    +0.000 N 
ATOM     14  C   UNL     1       7.341   4.971  13.847  0.00  0.00    +0.000 A 
ATOM     15  C   UNL     1       7.921   4.963  12.582  0.00  0.00    +0.000 A 
ATOM     16  C   UNL     1       7.285   4.160  11.641  0.00  0.00    +0.000 A 
ATOM     17  C   UNL     1       6.150   3.444  12.008  0.00  0.00    +0.000 A 
ATOM     18  N   UNL     1       5.579   3.436  13.238  0.00  0.00    +0.000 NA
ATOM     19  C   UNL     1       6.216   4.221  14.151  0.00  0.00    +0.000 A 
ATOM     20  H   UNL     1       4.298   3.309  15.643  0.00  0.00    +0.000 HD
ATOM     21  H   UNL     1       8.412   6.272  15.158  0.00  0.00    +0.000 HD
ENDBRANCH   6  10
BRANCH   1  22
ATOM     22  C   UNL     1       1.836   7.300  21.092  0.00  0.00    +0.000 C 
BRANCH  22  28
ATOM     23  F   UNL     1      -0.599  11.958  19.251  0.00  0.00    +0.000 F 
ATOM     24  C   UNL     1       0.242  11.028  19.770  0.00  0.00    +0.000 C 
ATOM     25  F   UNL     1       1.345  11.706  20.185  0.00  0.00    +0.000 F 
ATOM     26  C   UNL     1      -0.410  10.352  20.951  0.00  0.00    +0.000 C 
ATOM     27  C   UNL     1       0.512   9.268  21.493  0.00  0.00    +0.000 C 
ATOM     28  N   UNL     1       0.889   8.275  20.466  0.00  0.00    +0.000 NA
ATOM     29  C   UNL     1       1.493   8.931  19.291  0.00  0.00    +0.000 C 
ATOM     30  C   UNL     1       0.627  10.038  18.700  0.00  0.00    +0.000 C 
ENDBRANCH  22  28
ENDBRANCH   1  22
TORSDOF 3
ENDMDL
