MODEL 1
REMARK VINA RESULT:      -5.3      0.000      0.000
REMARK  Name = 
REMARK  5 active torsions:
REMARK  status: ('A' for Active; 'I' for Inactive)
REMARK    1  A    between atoms: C_1  and  C_2
REMARK    2  A    between atoms: C_5  and  C_6
REMARK    3  A    between atoms: C_6  and  N_7
REMARK    4  A    between atoms: C_8  and  O_9
REMARK    5  A    between atoms: C_10  and  O_11
REMARK                            x       y       z     vdW  Elec       q    Type
REMARK                         _______ _______ _______ _____ _____    ______ ____
ROOT
ATOM      1  C   UNL     1       3.605   1.422  18.629  0.00  0.00    +0.000 C 
ATOM      2  C   UNL     1       3.945   2.914  18.654  0.00  0.00    +0.000 C 
ATOM      3  N   UNL     1       5.318   3.080  19.160  0.00  0.00    +0.000 NA
ATOM      4  N   UNL     1       5.718   4.483  19.183  0.00  0.00    +0.000 NA
ATOM      5  C   UNL     1       5.697   5.088  17.823  0.00  0.00    +0.000 C 
ATOM      6  C   UNL     1       4.277   4.984  17.247  0.00  0.00    +0.000 C 
ATOM      7  C   UNL     1       3.781   3.530  17.248  0.00  0.00    +0.000 C 
ATOM      8  H   UNL     1       5.977   2.489  18.645  0.00  0.00    +0.000 HD
ATOM      9  H   UNL     1       6.690   4.556  19.520  0.00  0.00    +0.000 HD
ENDROOT
BRANCH   6  10
ATOM     10  O   UNL     1       3.372   5.771  18.054  0.00  0.00    +0.000 OA
ATOM     11  H   UNL     1       3.938   6.181  18.744  0.00  0.00    +0.000 HD
ENDBRANCH   6  10
BRANCH   7  12
ATOM     12  O   UNL     1       2.406   3.512  16.845  0.00  0.00    +0.000 OA
ATOM     13  H   UNL     1       2.129   4.452  16.828  0.00  0.00    +0.000 HD
ENDBRANCH   7  12
BRANCH   5  14
ATOM     14  C   UNL     1       6.783   4.526  16.874  0.00  0.00    +0.000 C 
BRANCH  14  15
ATOM     15  N   UNL     1       8.002   4.146  17.597  0.00  0.00    +0.000 NA
ATOM     16  H   UNL     1       8.585   4.973  17.737  0.00  0.00    +0.000 HD
ATOM     17  H   UNL     1       8.555   3.517  17.014  0.00  0.00    +0.000 HD
ENDBRANCH  14  15
ENDBRANCH   5  14
TORSDOF 4
ENDMDL
MODEL 2
REMARK VINA RESULT:      -5.3      2.635      3.620
REMARK  Name = 
REMARK  5 active torsions:
REMARK  status: ('A' for Active; 'I' for Inactive)
REMARK    1  A    between atoms: C_1  and  C_2
REMARK    2  A    between atoms: C_5  and  C_6
REMARK    3  A    between atoms: C_6  and  N_7
REMARK    4  A    between atoms: C_8  and  O_9
REMARK    5  A    between atoms: C_10  and  O_11
REMARK                            x       y       z     vdW  Elec       q    Type
REMARK                         _______ _______ _______ _____ _____    ______ ____
ROOT
ATOM      1  C   UNL     1       7.814   5.999  18.904  0.00  0.00    +0.000 C 
ATOM      2  C   UNL     1       6.610   5.887  17.966  0.00  0.00    +0.000 C 
ATOM      3  N   UNL     1       6.900   6.632  16.729  0.00  0.00    +0.000 NA
ATOM      4  N   UNL     1       5.800   6.542  15.775  0.00  0.00    +0.000 NA
ATOM      5  C   UNL     1       5.535   5.136  15.365  0.00  0.00    +0.000 C 
ATOM      6  C   UNL     1       5.185   4.305  16.609  0.00  0.00    +0.000 C 
ATOM      7  C   UNL     1       6.288   4.406  17.674  0.00  0.00    +0.000 C 
ATOM      8  H   UNL     1       7.797   6.347  16.326  0.00  0.00    +0.000 HD
ATOM      9  H   UNL     1       6.049   7.055  14.916  0.00  0.00    +0.000 HD
ENDROOT
BRANCH   6  10
ATOM     10  O   UNL     1       3.954   4.797  17.185  0.00  0.00    +0.000 OA
ATOM     11  H   UNL     1       3.846   5.702  16.819  0.00  0.00    +0.000 HD
ENDBRANCH   6  10
BRANCH   7  12
ATOM     12  O   UNL     1       5.843   3.740  18.862  0.00  0.00    +0.000 OA
ATOM     13  H   UNL     1       6.102   4.329  19.601  0.00  0.00    +0.000 HD
ENDBRANCH   7  12
BRANCH   5  14
ATOM     14  C   UNL     1       6.666   4.512  14.513  0.00  0.00    +0.000 C 
BRANCH  14  15
ATOM     15  N   UNL     1       7.709   5.490  14.183  0.00  0.00    +0.000 NA
ATOM     16  H   UNL     1       7.647   5.730  13.192  0.00  0.00    +0.000 HD
ATOM     17  H   UNL     1       8.625   5.055  14.302  0.00  0.00    +0.000 HD
ENDBRANCH  14  15
ENDBRANCH   5  14
TORSDOF 4
ENDMDL
MODEL 3
REMARK VINA RESULT:      -5.3      2.263      3.112
REMARK  Name = 
REMARK  5 active torsions:
REMARK  status: ('A' for Active; 'I' for Inactive)
REMARK    1  A    between atoms: C_1  and  C_2
REMARK    2  A    between atoms: C_5  and  C_6
REMARK    3  A    between atoms: C_6  and  N_7
REMARK    4  A    between atoms: C_8  and  O_9
REMARK    5  A    between atoms: C_10  and  O_11
REMARK                            x       y       z     vdW  Elec       q    Type
REMARK                         _______ _______ _______ _____ _____    ______ ____
ROOT
ATOM      1  C   UNL     1       5.705   4.221  14.563  0.00  0.00    +0.000 C 
ATOM      2  C   UNL     1       6.143   4.019  16.016  0.00  0.00    +0.000 C 
ATOM      3  N   UNL     1       7.566   4.379  16.138  0.00  0.00    +0.000 NA
ATOM      4  N   UNL     1       8.043   4.237  17.509  0.00  0.00    +0.000 NA
ATOM      5  C   UNL     1       7.304   5.124  18.448  0.00  0.00    +0.000 C 
ATOM      6  C   UNL     1       5.809   4.775  18.401  0.00  0.00    +0.000 C 
ATOM      7  C   UNL     1       5.263   4.856  16.968  0.00  0.00    +0.000 C 
ATOM      8  H   UNL     1       7.747   5.310  15.751  0.00  0.00    +0.000 HD
ATOM      9  H   UNL     1       9.033   4.519  17.558  0.00  0.00    +0.000 HD
ENDROOT
BRANCH   6  10
ATOM     10  O   UNL     1       5.615   3.426  18.883  0.00  0.00    +0.000 OA
ATOM     11  H   UNL     1       4.758   3.448  19.364  0.00  0.00    +0.000 HD
ENDBRANCH   6  10
BRANCH   7  12
ATOM     12  O   UNL     1       3.912   4.378  16.962  0.00  0.00    +0.000 OA
ATOM     13  H   UNL     1       3.969   3.439  17.237  0.00  0.00    +0.000 HD
ENDBRANCH   7  12
BRANCH   5  14
ATOM     14  C   UNL     1       7.585   6.631  18.233  0.00  0.00    +0.000 C 
BRANCH  14  15
ATOM     15  N   UNL     1       7.691   6.973  16.810  0.00  0.00    +0.000 NA
ATOM     16  H   UNL     1       8.260   6.271  16.334  0.00  0.00    +0.000 HD
ATOM     17  H   UNL     1       8.201   7.851  16.714  0.00  0.00    +0.000 HD
ENDBRANCH  14  15
ENDBRANCH   5  14
TORSDOF 4
ENDMDL
MODEL 4
REMARK VINA RESULT:      -5.2      2.206      3.869
REMARK  Name = 
REMARK  5 active torsions:
REMARK  status: ('A' for Active; 'I' for Inactive)
REMARK    1  A    between atoms: C_1  and  C_2
REMARK    2  A    between atoms: C_5  and  C_6
REMARK    3  A    between atoms: C_6  and  N_7
REMARK    4  A    between atoms: C_8  and  O_9
REMARK    5  A    between atoms: C_10  and  O_11
REMARK                            x       y       z     vdW  Elec       q    Type
REMARK                         _______ _______ _______ _____ _____    ______ ____
ROOT
ATOM      1  C   UNL     1       7.877   6.687  18.405  0.00  0.00    +0.000 C 
ATOM      2  C   UNL     1       7.074   5.423  18.090  0.00  0.00    +0.000 C 
ATOM      3  N   UNL     1       6.388   4.977  19.315  0.00  0.00    +0.000 NA
ATOM      4  N   UNL     1       5.579   3.787  19.077  0.00  0.00    +0.000 NA
ATOM      5  C   UNL     1       4.514   4.033  18.066  0.00  0.00    +0.000 C 
ATOM      6  C   UNL     1       5.165   4.466  16.743  0.00  0.00    +0.000 C 
ATOM      7  C   UNL     1       6.075   5.687  16.944  0.00  0.00    +0.000 C 
ATOM      8  H   UNL     1       5.854   5.741  19.739  0.00  0.00    +0.000 HD
ATOM      9  H   UNL     1       5.098   3.521  19.948  0.00  0.00    +0.000 HD
ENDROOT
BRANCH   6  10
ATOM     10  O   UNL     1       5.970   3.383  16.226  0.00  0.00    +0.000 OA
ATOM     11  H   UNL     1       6.510   3.786  15.511  0.00  0.00    +0.000 HD
ENDBRANCH   6  10
BRANCH   7  12
ATOM     12  O   UNL     1       6.767   5.953  15.719  0.00  0.00    +0.000 OA
ATOM     13  H   UNL     1       6.901   6.923  15.702  0.00  0.00    +0.000 HD
ENDBRANCH   7  12
BRANCH   5  14
ATOM     14  C   UNL     1       3.409   5.003  18.548  0.00  0.00    +0.000 C 
BRANCH  14  15
ATOM     15  N   UNL     1       3.586   5.382  19.955  0.00  0.00    +0.000 NA
ATOM     16  H   UNL     1       4.233   6.170  20.016  0.00  0.00    +0.000 HD
ATOM     17  H   UNL     1       4.040   4.615  20.454  0.00  0.00    +0.000 HD
ENDBRANCH  14  15
ENDBRANCH   5  14
TORSDOF 4
ENDMDL
MODEL 5
REMARK VINA RESULT:      -5.2      2.380      3.298
REMARK  Name = 
REMARK  5 active torsions:
REMARK  status: ('A' for Active; 'I' for Inactive)
REMARK    1  A    between atoms: C_1  and  C_2
REMARK    2  A    between atoms: C_5  and  C_6
REMARK    3  A    between atoms: C_6  and  N_7
REMARK    4  A    between atoms: C_8  and  O_9
REMARK    5  A    between atoms: C_10  and  O_11
REMARK                            x       y       z     vdW  Elec       q    Type
REMARK                         _______ _______ _______ _____ _____    ______ ____
ROOT
ATOM      1  C   UNL     1       6.885   4.755  14.575  0.00  0.00    +0.000 C 
ATOM      2  C   UNL     1       6.148   4.776  15.917  0.00  0.00    +0.000 C 
ATOM      3  N   UNL     1       6.906   3.969  16.889  0.00  0.00    +0.000 NA
ATOM      4  N   UNL     1       6.272   3.970  18.202  0.00  0.00    +0.000 NA
ATOM      5  C   UNL     1       6.184   5.341  18.774  0.00  0.00    +0.000 C 
ATOM      6  C   UNL     1       5.367   6.232  17.825  0.00  0.00    +0.000 C 
ATOM      7  C   UNL     1       5.960   6.227  16.409  0.00  0.00    +0.000 C 
ATOM      8  H   UNL     1       7.889   4.258  16.923  0.00  0.00    +0.000 HD
ATOM      9  H   UNL     1       6.843   3.417  18.858  0.00  0.00    +0.000 HD
ENDROOT
BRANCH   6  10
ATOM     10  O   UNL     1       4.011   5.738  17.750  0.00  0.00    +0.000 OA
ATOM     11  H   UNL     1       3.775   5.787  16.798  0.00  0.00    +0.000 HD
ENDBRANCH   6  10
BRANCH   7  12
ATOM     12  O   UNL     1       5.079   6.947  15.538  0.00  0.00    +0.000 OA
ATOM     13  H   UNL     1       5.289   6.627  14.636  0.00  0.00    +0.000 HD
ENDBRANCH   7  12
BRANCH   5  14
ATOM     14  C   UNL     1       7.556   5.949  19.151  0.00  0.00    +0.000 C 
BRANCH  14  15
ATOM     15  N   UNL     1       8.066   5.414  20.419  0.00  0.00    +0.000 NA
ATOM     16  H   UNL     1       7.321   5.433  21.118  0.00  0.00    +0.000 HD
ATOM     17  H   UNL     1       8.793   6.034  20.776  0.00  0.00    +0.000 HD
ENDBRANCH  14  15
ENDBRANCH   5  14
TORSDOF 4
ENDMDL
MODEL 6
REMARK VINA RESULT:      -5.1      2.653      4.013
REMARK  Name = 
REMARK  5 active torsions:
REMARK  status: ('A' for Active; 'I' for Inactive)
REMARK    1  A    between atoms: C_1  and  C_2
REMARK    2  A    between atoms: C_5  and  C_6
REMARK    3  A    between atoms: C_6  and  N_7
REMARK    4  A    between atoms: C_8  and  O_9
REMARK    5  A    between atoms: C_10  and  O_11
REMARK                            x       y       z     vdW  Elec       q    Type
REMARK                         _______ _______ _______ _____ _____    ______ ____
ROOT
ATOM      1  C   UNL     1       7.984   5.794  19.250  0.00  0.00    +0.000 C 
ATOM      2  C   UNL     1       7.276   5.354  17.966  0.00  0.00    +0.000 C 
ATOM      3  N   UNL     1       6.471   4.155  18.254  0.00  0.00    +0.000 NA
ATOM      4  N   UNL     1       5.744   3.698  17.074  0.00  0.00    +0.000 NA
ATOM      5  C   UNL     1       4.795   4.730  16.573  0.00  0.00    +0.000 C 
ATOM      6  C   UNL     1       5.577   6.003  16.215  0.00  0.00    +0.000 C 
ATOM      7  C   UNL     1       6.407   6.501  17.408  0.00  0.00    +0.000 C 
ATOM      8  H   UNL     1       5.860   4.304  19.062  0.00  0.00    +0.000 HD
ATOM      9  H   UNL     1       5.176   2.874  17.321  0.00  0.00    +0.000 HD
ENDROOT
BRANCH   6  10
ATOM     10  O   UNL     1       6.481   5.720  15.122  0.00  0.00    +0.000 OA
ATOM     11  H   UNL     1       5.942   5.838  14.310  0.00  0.00    +0.000 HD
ENDBRANCH   6  10
BRANCH   7  12
ATOM     12  O   UNL     1       7.226   7.594  16.975  0.00  0.00    +0.000 OA
ATOM     13  H   UNL     1       8.062   7.505  17.478  0.00  0.00    +0.000 HD
ENDBRANCH   7  12
BRANCH   5  14
ATOM     14  C   UNL     1       3.603   4.994  17.524  0.00  0.00    +0.000 C 
BRANCH  14  15
ATOM     15  N   UNL     1       3.449   3.929  18.522  0.00  0.00    +0.000 NA
ATOM     16  H   UNL     1       4.333   3.427  18.620  0.00  0.00    +0.000 HD
ATOM     17  H   UNL     1       2.779   3.241  18.177  0.00  0.00    +0.000 HD
ENDBRANCH  14  15
ENDBRANCH   5  14
TORSDOF 4
ENDMDL
MODEL 7
REMARK VINA RESULT:      -4.9      2.588      4.375
REMARK  Name = 
REMARK  5 active torsions:
REMARK  status: ('A' for Active; 'I' for Inactive)
REMARK    1  A    between atoms: C_1  and  C_2
REMARK    2  A    between atoms: C_5  and  C_6
REMARK    3  A    between atoms: C_6  and  N_7
REMARK    4  A    between atoms: C_8  and  O_9
REMARK    5  A    between atoms: C_10  and  O_11
REMARK                            x       y       z     vdW  Elec       q    Type
REMARK                         _______ _______ _______ _____ _____    ______ ____
ROOT
ATOM      1  C   UNL     1       4.983   5.185  18.998  0.00  0.00    +0.000 C 
ATOM      2  C   UNL     1       4.478   3.755  19.207  0.00  0.00    +0.000 C 
ATOM      3  N   UNL     1       3.451   3.763  20.262  0.00  0.00    +0.000 NA
ATOM      4  N   UNL     1       2.904   2.430  20.492  0.00  0.00    +0.000 NA
ATOM      5  C   UNL     1       2.248   1.881  19.274  0.00  0.00    +0.000 C 
ATOM      6  C   UNL     1       3.279   1.808  18.136  0.00  0.00    +0.000 C 
ATOM      7  C   UNL     1       3.929   3.177  17.885  0.00  0.00    +0.000 C 
ATOM      8  H   UNL     1       2.726   4.460  20.068  0.00  0.00    +0.000 HD
ATOM      9  H   UNL     1       2.174   2.481  21.218  0.00  0.00    +0.000 HD
ENDROOT
BRANCH   6  10
ATOM     10  O   UNL     1       4.321   0.871  18.492  0.00  0.00    +0.000 OA
ATOM     11  H   UNL     1       3.938   0.328  19.215  0.00  0.00    +0.000 HD
ENDBRANCH   6  10
BRANCH   7  12
ATOM     12  O   UNL     1       4.981   3.018  16.926  0.00  0.00    +0.000 OA
ATOM     13  H   UNL     1       5.492   3.853  16.962  0.00  0.00    +0.000 HD
ENDBRANCH   7  12
BRANCH   5  14
ATOM     14  C   UNL     1       0.952   2.626  18.874  0.00  0.00    +0.000 C 
BRANCH  14  15
ATOM     15  N   UNL     1       0.417   3.430  19.979  0.00  0.00    +0.000 NA
ATOM     16  H   UNL     1       0.155   2.813  20.750  0.00  0.00    +0.000 HD
ATOM     17  H   UNL     1      -0.451   3.877  19.679  0.00  0.00    +0.000 HD
ENDBRANCH  14  15
ENDBRANCH   5  14
TORSDOF 4
ENDMDL
MODEL 8
REMARK VINA RESULT:      -4.9      1.977      3.911
REMARK  Name = 
REMARK  5 active torsions:
REMARK  status: ('A' for Active; 'I' for Inactive)
REMARK    1  A    between atoms: C_1  and  C_2
REMARK    2  A    between atoms: C_5  and  C_6
REMARK    3  A    between atoms: C_6  and  N_7
REMARK    4  A    between atoms: C_8  and  O_9
REMARK    5  A    between atoms: C_10  and  O_11
REMARK                            x       y       z     vdW  Elec       q    Type
REMARK                         _______ _______ _______ _____ _____    ______ ____
ROOT
ATOM      1  C   UNL     1       4.747   4.999  16.991  0.00  0.00    +0.000 C 
ATOM      2  C   UNL     1       4.476   3.700  17.754  0.00  0.00    +0.000 C 
ATOM      3  N   UNL     1       5.208   3.737  19.032  0.00  0.00    +0.000 NA
ATOM      4  N   UNL     1       4.969   2.536  19.825  0.00  0.00    +0.000 NA
ATOM      5  C   UNL     1       3.530   2.376  20.171  0.00  0.00    +0.000 C 
ATOM      6  C   UNL     1       2.707   2.290  18.876  0.00  0.00    +0.000 C 
ATOM      7  C   UNL     1       2.960   3.507  17.974  0.00  0.00    +0.000 C 
ATOM      8  H   UNL     1       5.008   4.598  19.548  0.00  0.00    +0.000 HD
ATOM      9  H   UNL     1       5.478   2.609  20.719  0.00  0.00    +0.000 HD
ENDROOT
BRANCH   6  10
ATOM     10  O   UNL     1       3.082   1.100  18.146  0.00  0.00    +0.000 OA
ATOM     11  H   UNL     1       2.363   0.455  18.325  0.00  0.00    +0.000 HD
ENDBRANCH   6  10
BRANCH   7  12
ATOM     12  O   UNL     1       2.289   3.303  16.725  0.00  0.00    +0.000 OA
ATOM     13  H   UNL     1       2.039   4.198  16.416  0.00  0.00    +0.000 HD
ENDBRANCH   7  12
BRANCH   5  14
ATOM     14  C   UNL     1       3.004   3.445  21.158  0.00  0.00    +0.000 C 
BRANCH  14  15
ATOM     15  N   UNL     1       1.998   2.898  22.075  0.00  0.00    +0.000 NA
ATOM     16  H   UNL     1       1.212   3.547  22.142  0.00  0.00    +0.000 HD
ATOM     17  H   UNL     1       2.393   2.849  23.015  0.00  0.00    +0.000 HD
ENDBRANCH  14  15
ENDBRANCH   5  14
TORSDOF 4
ENDMDL
MODEL 9
REMARK VINA RESULT:      -4.9      2.810      4.388
REMARK  Name = 
REMARK  5 active torsions:
REMARK  status: ('A' for Active; 'I' for Inactive)
REMARK    1  A    between atoms: C_1  and  C_2
REMARK    2  A    between atoms: C_5  and  C_6
REMARK    3  A    between atoms: C_6  and  N_7
REMARK    4  A    between atoms: C_8  and  O_9
REMARK    5  A    between atoms: C_10  and  O_11
REMARK                            x       y       z     vdW  Elec       q    Type
REMARK                         _______ _______ _______ _____ _____    ______ ____
ROOT
ATOM      1  C   UNL     1       2.776   6.182  18.375  0.00  0.00    +0.000 C 
ATOM      2  C   UNL     1       2.891   4.660  18.494  0.00  0.00    +0.000 C 
ATOM      3  N   UNL     1       3.547   4.331  19.771  0.00  0.00    +0.000 NA
ATOM      4  N   UNL     1       3.663   2.889  19.962  0.00  0.00    +0.000 NA
ATOM      5  C   UNL     1       2.331   2.224  19.990  0.00  0.00    +0.000 C 
ATOM      6  C   UNL     1       1.604   2.495  18.664  0.00  0.00    +0.000 C 
ATOM      7  C   UNL     1       1.500   4.002  18.384  0.00  0.00    +0.000 C 
ATOM      8  H   UNL     1       3.084   4.798  20.556  0.00  0.00    +0.000 HD
ATOM      9  H   UNL     1       4.103   2.699  20.874  0.00  0.00    +0.000 HD
ENDROOT
BRANCH   6  10
ATOM     10  O   UNL     1       2.338   1.883  17.580  0.00  0.00    +0.000 OA
ATOM     11  H   UNL     1       1.782   1.126  17.292  0.00  0.00    +0.000 HD
ENDBRANCH   6  10
BRANCH   7  12
ATOM     12  O   UNL     1       0.952   4.190  17.074  0.00  0.00    +0.000 OA
ATOM     13  H   UNL     1       1.721   4.376  16.496  0.00  0.00    +0.000 HD
ENDBRANCH   7  12
BRANCH   5  14
ATOM     14  C   UNL     1       1.483   2.581  21.235  0.00  0.00    +0.000 C 
BRANCH  14  15
ATOM     15  N   UNL     1       2.292   3.199  22.292  0.00  0.00    +0.000 NA
ATOM     16  H   UNL     1       3.065   2.577  22.535  0.00  0.00    +0.000 HD
ATOM     17  H   UNL     1       1.729   3.280  23.140  0.00  0.00    +0.000 HD
ENDBRANCH  14  15
ENDBRANCH   5  14
TORSDOF 4
ENDMDL
