MODEL 1
REMARK VINA RESULT:      -7.6      0.000      0.000
REMARK  Name = 
REMARK  6 active torsions:
REMARK  status: ('A' for Active; 'I' for Inactive)
REMARK    1  A    between atoms: C_1  and  C_2
REMARK    2  A    between atoms: C_2  and  C_3
REMARK    3  A    between atoms: C_7  and  C_8
REMARK    4  A    between atoms: C_7  and  C_15
REMARK    5  A    between atoms: C_8  and  C_9
REMARK    6  A    between atoms: C_15  and  C_16
REMARK                            x       y       z     vdW  Elec       q    Type
REMARK                         _______ _______ _______ _____ _____    ______ ____
ROOT
ATOM      1  C   UNL     1       1.738   1.520  19.422  0.00  0.00    +0.000 C 
ATOM      2  C   UNL     1       1.669   2.736  20.366  0.00  0.00    +0.000 C 
ATOM      3  C   UNL     1       0.748   2.383  21.548  0.00  0.00    +0.000 C 
ATOM      4  C   UNL     1       3.065   3.077  20.890  0.00  0.00    +0.000 C 
ATOM      5  C   UNL     1       3.966   3.597  19.779  0.00  0.00    +0.000 C 
ATOM      6  O   UNL     1       5.070   3.078  19.604  0.00  0.00    +0.000 OA
ATOM      7  C   UNL     1       3.469   4.808  18.964  0.00  0.00    +0.000 C 
ATOM      8  C   UNL     1       2.005   4.493  18.574  0.00  0.00    +0.000 C 
ATOM      9  O   UNL     1       1.515   4.701  17.465  0.00  0.00    +0.000 OA
ATOM     10  C   UNL     1       1.080   3.957  19.651  0.00  0.00    +0.000 C 
ENDROOT
BRANCH   7  11
ATOM     11  C   UNL     1       4.394   4.948  17.708  0.00  0.00    +0.000 C 
BRANCH  11  12
ATOM     12  C   UNL     1       5.636   5.819  17.792  0.00  0.00    +0.000 A 
ATOM     13  C   UNL     1       5.793   6.949  16.982  0.00  0.00    +0.000 A 
ATOM     14  C   UNL     1       6.972   7.701  17.013  0.00  0.00    +0.000 A 
ATOM     15  C   UNL     1       7.997   7.358  17.889  0.00  0.00    +0.000 A 
ATOM     16  C   UNL     1       7.831   6.278  18.750  0.00  0.00    +0.000 A 
ATOM     17  C   UNL     1       6.656   5.527  18.710  0.00  0.00    +0.000 A 
ENDBRANCH  11  12
ENDBRANCH   7  11
BRANCH   7  18
ATOM     18  C   UNL     1       3.465   6.082  19.862  0.00  0.00    +0.000 C 
BRANCH  18  19
ATOM     19  C   UNL     1       2.577   7.257  19.482  0.00  0.00    +0.000 A 
ATOM     20  C   UNL     1       1.738   7.840  20.444  0.00  0.00    +0.000 A 
ATOM     21  C   UNL     1       0.922   8.931  20.131  0.00  0.00    +0.000 A 
ATOM     22  C   UNL     1       0.959   9.486  18.854  0.00  0.00    +0.000 A 
ATOM     23  C   UNL     1       1.817   8.955  17.899  0.00  0.00    +0.000 A 
ATOM     24  C   UNL     1       2.620   7.854  18.214  0.00  0.00    +0.000 A 
ENDBRANCH  18  19
ENDBRANCH   7  18
TORSDOF 4
ENDMDL
MODEL 2
REMARK VINA RESULT:      -7.6      0.116      1.389
REMARK  Name = 
REMARK  6 active torsions:
REMARK  status: ('A' for Active; 'I' for Inactive)
REMARK    1  A    between atoms: C_1  and  C_2
REMARK    2  A    between atoms: C_2  and  C_3
REMARK    3  A    between atoms: C_7  and  C_8
REMARK    4  A    between atoms: C_7  and  C_15
REMARK    5  A    between atoms: C_8  and  C_9
REMARK    6  A    between atoms: C_15  and  C_16
REMARK                            x       y       z     vdW  Elec       q    Type
REMARK                         _______ _______ _______ _____ _____    ______ ____
ROOT
ATOM      1  C   UNL     1       1.773   1.580  19.522  0.00  0.00    +0.000 C 
ATOM      2  C   UNL     1       1.744   2.801  20.460  0.00  0.00    +0.000 C 
ATOM      3  C   UNL     1       0.875   2.455  21.683  0.00  0.00    +0.000 C 
ATOM      4  C   UNL     1       3.161   3.147  20.922  0.00  0.00    +0.000 C 
ATOM      5  C   UNL     1       4.013   3.661  19.770  0.00  0.00    +0.000 C 
ATOM      6  O   UNL     1       5.109   3.142  19.550  0.00  0.00    +0.000 OA
ATOM      7  C   UNL     1       3.480   4.866  18.970  0.00  0.00    +0.000 C 
ATOM      8  C   UNL     1       2.000   4.548  18.645  0.00  0.00    +0.000 C 
ATOM      9  O   UNL     1       1.463   4.749  17.557  0.00  0.00    +0.000 OA
ATOM     10  C   UNL     1       1.124   4.018  19.764  0.00  0.00    +0.000 C 
ENDROOT
BRANCH   7  11
ATOM     11  C   UNL     1       4.350   4.999  17.674  0.00  0.00    +0.000 C 
BRANCH  11  12
ATOM     12  C   UNL     1       5.628   5.820  17.717  0.00  0.00    +0.000 A 
ATOM     13  C   UNL     1       6.722   5.431  18.497  0.00  0.00    +0.000 A 
ATOM     14  C   UNL     1       7.865   6.232  18.588  0.00  0.00    +0.000 A 
ATOM     15  C   UNL     1       7.947   7.418  17.864  0.00  0.00    +0.000 A 
ATOM     16  C   UNL     1       6.896   7.787  17.031  0.00  0.00    +0.000 A 
ATOM     17  C   UNL     1       5.756   6.987  16.948  0.00  0.00    +0.000 A 
ENDBRANCH  11  12
ENDBRANCH   7  11
BRANCH   7  18
ATOM     18  C   UNL     1       3.513   6.145  19.860  0.00  0.00    +0.000 C 
BRANCH  18  19
ATOM     19  C   UNL     1       2.611   7.319  19.510  0.00  0.00    +0.000 A 
ATOM     20  C   UNL     1       2.652   7.875  18.223  0.00  0.00    +0.000 A 
ATOM     21  C   UNL     1       1.825   8.944  17.866  0.00  0.00    +0.000 A 
ATOM     22  C   UNL     1       0.909   9.454  18.783  0.00  0.00    +0.000 A 
ATOM     23  C   UNL     1       0.817   8.888  20.048  0.00  0.00    +0.000 A 
ATOM     24  C   UNL     1       1.658   7.828  20.405  0.00  0.00    +0.000 A 
ENDBRANCH  18  19
ENDBRANCH   7  18
TORSDOF 4
ENDMDL
MODEL 3
REMARK VINA RESULT:      -7.4      2.279      3.959
REMARK  Name = 
REMARK  6 active torsions:
REMARK  status: ('A' for Active; 'I' for Inactive)
REMARK    1  A    between atoms: C_1  and  C_2
REMARK    2  A    between atoms: C_2  and  C_3
REMARK    3  A    between atoms: C_7  and  C_8
REMARK    4  A    between atoms: C_7  and  C_15
REMARK    5  A    between atoms: C_8  and  C_9
REMARK    6  A    between atoms: C_15  and  C_16
REMARK                            x       y       z     vdW  Elec       q    Type
REMARK                         _______ _______ _______ _____ _____    ______ ____
ROOT
ATOM      1  C   UNL     1       1.578   2.040  19.711  0.00  0.00    +0.000 C 
ATOM      2  C   UNL     1       1.725   3.572  19.650  0.00  0.00    +0.000 C 
ATOM      3  C   UNL     1       0.623   4.202  20.522  0.00  0.00    +0.000 C 
ATOM      4  C   UNL     1       3.098   3.993  20.180  0.00  0.00    +0.000 C 
ATOM      5  C   UNL     1       4.216   3.536  19.253  0.00  0.00    +0.000 C 
ATOM      6  O   UNL     1       5.160   2.895  19.717  0.00  0.00    +0.000 OA
ATOM      7  C   UNL     1       4.138   3.966  17.775  0.00  0.00    +0.000 C 
ATOM      8  C   UNL     1       2.693   3.662  17.312  0.00  0.00    +0.000 C 
ATOM      9  O   UNL     1       2.395   3.152  16.233  0.00  0.00    +0.000 OA
ATOM     10  C   UNL     1       1.551   4.087  18.217  0.00  0.00    +0.000 C 
ENDROOT
BRANCH   7  11
ATOM     11  C   UNL     1       5.197   3.129  16.980  0.00  0.00    +0.000 C 
BRANCH  11  12
ATOM     12  C   UNL     1       5.798   3.704  15.708  0.00  0.00    +0.000 A 
ATOM     13  C   UNL     1       7.081   4.260  15.692  0.00  0.00    +0.000 A 
ATOM     14  C   UNL     1       7.595   4.855  14.535  0.00  0.00    +0.000 A 
ATOM     15  C   UNL     1       6.847   4.863  13.361  0.00  0.00    +0.000 A 
ATOM     16  C   UNL     1       5.597   4.255  13.341  0.00  0.00    +0.000 A 
ATOM     17  C   UNL     1       5.086   3.669  14.500  0.00  0.00    +0.000 A 
ENDBRANCH  11  12
ENDBRANCH   7  11
BRANCH   7  18
ATOM     18  C   UNL     1       4.367   5.503  17.660  0.00  0.00    +0.000 C 
BRANCH  18  19
ATOM     19  C   UNL     1       5.748   6.074  17.943  0.00  0.00    +0.000 A 
ATOM     20  C   UNL     1       6.200   7.199  17.236  0.00  0.00    +0.000 A 
ATOM     21  C   UNL     1       7.457   7.757  17.484  0.00  0.00    +0.000 A 
ATOM     22  C   UNL     1       8.275   7.220  18.475  0.00  0.00    +0.000 A 
ATOM     23  C   UNL     1       7.830   6.135  19.220  0.00  0.00    +0.000 A 
ATOM     24  C   UNL     1       6.577   5.572  18.957  0.00  0.00    +0.000 A 
ENDBRANCH  18  19
ENDBRANCH   7  18
TORSDOF 4
ENDMDL
MODEL 4
REMARK VINA RESULT:      -7.3      2.291      3.867
REMARK  Name = 
REMARK  6 active torsions:
REMARK  status: ('A' for Active; 'I' for Inactive)
REMARK    1  A    between atoms: C_1  and  C_2
REMARK    2  A    between atoms: C_2  and  C_3
REMARK    3  A    between atoms: C_7  and  C_8
REMARK    4  A    between atoms: C_7  and  C_15
REMARK    5  A    between atoms: C_8  and  C_9
REMARK    6  A    between atoms: C_15  and  C_16
REMARK                            x       y       z     vdW  Elec       q    Type
REMARK                         _______ _______ _______ _____ _____    ______ ____
ROOT
ATOM      1  C   UNL     1       1.653   2.005  19.611  0.00  0.00    +0.000 C 
ATOM      2  C   UNL     1       1.768   3.540  19.569  0.00  0.00    +0.000 C 
ATOM      3  C   UNL     1       0.654   4.136  20.448  0.00  0.00    +0.000 C 
ATOM      4  C   UNL     1       3.132   3.983  20.103  0.00  0.00    +0.000 C 
ATOM      5  C   UNL     1       4.259   3.561  19.170  0.00  0.00    +0.000 C 
ATOM      6  O   UNL     1       5.217   2.934  19.626  0.00  0.00    +0.000 OA
ATOM      7  C   UNL     1       4.172   4.007  17.697  0.00  0.00    +0.000 C 
ATOM      8  C   UNL     1       2.732   3.678  17.232  0.00  0.00    +0.000 C 
ATOM      9  O   UNL     1       2.445   3.175  16.147  0.00  0.00    +0.000 OA
ATOM     10  C   UNL     1       1.583   4.069  18.143  0.00  0.00    +0.000 C 
ENDROOT
BRANCH   7  11
ATOM     11  C   UNL     1       5.247   3.202  16.892  0.00  0.00    +0.000 C 
BRANCH  11  12
ATOM     12  C   UNL     1       5.785   3.774  15.591  0.00  0.00    +0.000 A 
ATOM     13  C   UNL     1       5.047   3.714  14.405  0.00  0.00    +0.000 A 
ATOM     14  C   UNL     1       5.582   4.176  13.198  0.00  0.00    +0.000 A 
ATOM     15  C   UNL     1       6.852   4.746  13.169  0.00  0.00    +0.000 A 
ATOM     16  C   UNL     1       7.572   4.877  14.351  0.00  0.00    +0.000 A 
ATOM     17  C   UNL     1       7.036   4.408  15.552  0.00  0.00    +0.000 A 
ENDBRANCH  11  12
ENDBRANCH   7  11
BRANCH   7  18
ATOM     18  C   UNL     1       4.368   5.550  17.601  0.00  0.00    +0.000 C 
BRANCH  18  19
ATOM     19  C   UNL     1       5.727   6.149  17.928  0.00  0.00    +0.000 A 
ATOM     20  C   UNL     1       6.538   5.554  18.906  0.00  0.00    +0.000 A 
ATOM     21  C   UNL     1       7.799   6.071  19.219  0.00  0.00    +0.000 A 
ATOM     22  C   UNL     1       8.289   7.177  18.529  0.00  0.00    +0.000 A 
ATOM     23  C   UNL     1       7.524   7.755  17.524  0.00  0.00    +0.000 A 
ATOM     24  C   UNL     1       6.257   7.242  17.226  0.00  0.00    +0.000 A 
ENDBRANCH  18  19
ENDBRANCH   7  18
TORSDOF 4
ENDMDL
MODEL 5
REMARK VINA RESULT:      -7.2      1.433      1.754
REMARK  Name = 
REMARK  6 active torsions:
REMARK  status: ('A' for Active; 'I' for Inactive)
REMARK    1  A    between atoms: C_1  and  C_2
REMARK    2  A    between atoms: C_2  and  C_3
REMARK    3  A    between atoms: C_7  and  C_8
REMARK    4  A    between atoms: C_7  and  C_15
REMARK    5  A    between atoms: C_8  and  C_9
REMARK    6  A    between atoms: C_15  and  C_16
REMARK                            x       y       z     vdW  Elec       q    Type
REMARK                         _______ _______ _______ _____ _____    ______ ____
ROOT
ATOM      1  C   UNL     1       1.214   1.526  19.620  0.00  0.00    +0.000 C 
ATOM      2  C   UNL     1       1.716   2.788  20.348  0.00  0.00    +0.000 C 
ATOM      3  C   UNL     1       1.239   2.729  21.810  0.00  0.00    +0.000 C 
ATOM      4  C   UNL     1       3.245   2.846  20.310  0.00  0.00    +0.000 C 
ATOM      5  C   UNL     1       3.759   3.076  18.896  0.00  0.00    +0.000 C 
ATOM      6  O   UNL     1       4.609   2.315  18.431  0.00  0.00    +0.000 OA
ATOM      7  C   UNL     1       3.231   4.309  18.136  0.00  0.00    +0.000 C 
ATOM      8  C   UNL     1       1.693   4.301  18.318  0.00  0.00    +0.000 C 
ATOM      9  O   UNL     1       0.881   4.536  17.424  0.00  0.00    +0.000 OA
ATOM     10  C   UNL     1       1.142   4.058  19.710  0.00  0.00    +0.000 C 
ENDROOT
BRANCH   7  11
ATOM     11  C   UNL     1       3.645   4.155  16.633  0.00  0.00    +0.000 C 
BRANCH  11  12
ATOM     12  C   UNL     1       5.044   4.562  16.202  0.00  0.00    +0.000 A 
ATOM     13  C   UNL     1       5.892   5.278  17.053  0.00  0.00    +0.000 A 
ATOM     14  C   UNL     1       7.149   5.713  16.619  0.00  0.00    +0.000 A 
ATOM     15  C   UNL     1       7.594   5.399  15.338  0.00  0.00    +0.000 A 
ATOM     16  C   UNL     1       6.792   4.630  14.503  0.00  0.00    +0.000 A 
ATOM     17  C   UNL     1       5.536   4.204  14.938  0.00  0.00    +0.000 A 
ENDBRANCH  11  12
ENDBRANCH   7  11
BRANCH   7  18
ATOM     18  C   UNL     1       3.786   5.610  18.790  0.00  0.00    +0.000 C 
BRANCH  18  19
ATOM     19  C   UNL     1       2.935   6.871  18.779  0.00  0.00    +0.000 A 
ATOM     20  C   UNL     1       2.261   7.271  19.942  0.00  0.00    +0.000 A 
ATOM     21  C   UNL     1       1.484   8.433  19.969  0.00  0.00    +0.000 A 
ATOM     22  C   UNL     1       1.398   9.240  18.836  0.00  0.00    +0.000 A 
ATOM     23  C   UNL     1       2.095   8.889  17.688  0.00  0.00    +0.000 A 
ATOM     24  C   UNL     1       2.859   7.717  17.663  0.00  0.00    +0.000 A 
ENDBRANCH  18  19
ENDBRANCH   7  18
TORSDOF 4
ENDMDL
MODEL 6
REMARK VINA RESULT:      -7.2      3.250      5.813
REMARK  Name = 
REMARK  6 active torsions:
REMARK  status: ('A' for Active; 'I' for Inactive)
REMARK    1  A    between atoms: C_1  and  C_2
REMARK    2  A    between atoms: C_2  and  C_3
REMARK    3  A    between atoms: C_7  and  C_8
REMARK    4  A    between atoms: C_7  and  C_15
REMARK    5  A    between atoms: C_8  and  C_9
REMARK    6  A    between atoms: C_15  and  C_16
REMARK                            x       y       z     vdW  Elec       q    Type
REMARK                         _______ _______ _______ _____ _____    ______ ____
ROOT
ATOM      1  C   UNL     1       7.881   7.115  18.266  0.00  0.00    +0.000 C 
ATOM      2  C   UNL     1       7.308   5.775  18.762  0.00  0.00    +0.000 C 
ATOM      3  C   UNL     1       7.829   5.519  20.188  0.00  0.00    +0.000 C 
ATOM      4  C   UNL     1       5.778   5.828  18.780  0.00  0.00    +0.000 C 
ATOM      5  C   UNL     1       5.207   5.909  17.371  0.00  0.00    +0.000 C 
ATOM      6  O   UNL     1       4.403   6.801  17.095  0.00  0.00    +0.000 OA
ATOM      7  C   UNL     1       5.620   4.812  16.370  0.00  0.00    +0.000 C 
ATOM      8  C   UNL     1       7.158   4.681  16.484  0.00  0.00    +0.000 C 
ATOM      9  O   UNL     1       7.924   4.566  15.528  0.00  0.00    +0.000 OA
ATOM     10  C   UNL     1       7.766   4.614  17.872  0.00  0.00    +0.000 C 
ENDROOT
BRANCH   7  11
ATOM     11  C   UNL     1       5.175   5.279  14.942  0.00  0.00    +0.000 C 
BRANCH  11  12
ATOM     12  C   UNL     1       5.685   4.530  13.722  0.00  0.00    +0.000 A 
ATOM     13  C   UNL     1       4.973   3.460  13.170  0.00  0.00    +0.000 A 
ATOM     14  C   UNL     1       5.487   2.730  12.094  0.00  0.00    +0.000 A 
ATOM     15  C   UNL     1       6.705   3.088  11.524  0.00  0.00    +0.000 A 
ATOM     16  C   UNL     1       7.394   4.192  12.017  0.00  0.00    +0.000 A 
ATOM     17  C   UNL     1       6.880   4.913  13.095  0.00  0.00    +0.000 A 
ENDBRANCH  11  12
ENDBRANCH   7  11
BRANCH   7  18
ATOM     18  C   UNL     1       4.988   3.450  16.789  0.00  0.00    +0.000 C 
BRANCH  18  19
ATOM     19  C   UNL     1       3.774   3.443  17.705  0.00  0.00    +0.000 A 
ATOM     20  C   UNL     1       2.535   3.897  17.228  0.00  0.00    +0.000 A 
ATOM     21  C   UNL     1       1.396   3.889  18.039  0.00  0.00    +0.000 A 
ATOM     22  C   UNL     1       1.469   3.389  19.337  0.00  0.00    +0.000 A 
ATOM     23  C   UNL     1       2.674   2.891  19.815  0.00  0.00    +0.000 A 
ATOM     24  C   UNL     1       3.813   2.915  19.003  0.00  0.00    +0.000 A 
ENDBRANCH  18  19
ENDBRANCH   7  18
TORSDOF 4
ENDMDL
MODEL 7
REMARK VINA RESULT:      -7.2      1.317      1.507
REMARK  Name = 
REMARK  6 active torsions:
REMARK  status: ('A' for Active; 'I' for Inactive)
REMARK    1  A    between atoms: C_1  and  C_2
REMARK    2  A    between atoms: C_2  and  C_3
REMARK    3  A    between atoms: C_7  and  C_8
REMARK    4  A    between atoms: C_7  and  C_15
REMARK    5  A    between atoms: C_8  and  C_9
REMARK    6  A    between atoms: C_15  and  C_16
REMARK                            x       y       z     vdW  Elec       q    Type
REMARK                         _______ _______ _______ _____ _____    ______ ____
ROOT
ATOM      1  C   UNL     1       1.400   1.498  19.603  0.00  0.00    +0.000 C 
ATOM      2  C   UNL     1       1.819   2.754  20.390  0.00  0.00    +0.000 C 
ATOM      3  C   UNL     1       1.367   2.585  21.852  0.00  0.00    +0.000 C 
ATOM      4  C   UNL     1       3.339   2.925  20.342  0.00  0.00    +0.000 C 
ATOM      5  C   UNL     1       3.817   3.265  18.938  0.00  0.00    +0.000 C 
ATOM      6  O   UNL     1       4.714   2.592  18.426  0.00  0.00    +0.000 OA
ATOM      7  C   UNL     1       3.192   4.493  18.248  0.00  0.00    +0.000 C 
ATOM      8  C   UNL     1       1.661   4.364  18.443  0.00  0.00    +0.000 C 
ATOM      9  O   UNL     1       0.823   4.586  17.570  0.00  0.00    +0.000 OA
ATOM     10  C   UNL     1       1.147   4.010  19.826  0.00  0.00    +0.000 C 
ENDROOT
BRANCH   7  11
ATOM     11  C   UNL     1       3.597   4.448  16.736  0.00  0.00    +0.000 C 
BRANCH  11  12
ATOM     12  C   UNL     1       5.013   4.822  16.334  0.00  0.00    +0.000 A 
ATOM     13  C   UNL     1       5.628   4.257  15.212  0.00  0.00    +0.000 A 
ATOM     14  C   UNL     1       6.959   4.550  14.893  0.00  0.00    +0.000 A 
ATOM     15  C   UNL     1       7.681   5.450  15.671  0.00  0.00    +0.000 A 
ATOM     16  C   UNL     1       7.064   6.074  16.750  0.00  0.00    +0.000 A 
ATOM     17  C   UNL     1       5.739   5.772  17.068  0.00  0.00    +0.000 A 
ENDBRANCH  11  12
ENDBRANCH   7  11
BRANCH   7  18
ATOM     18  C   UNL     1       3.659   5.796  18.965  0.00  0.00    +0.000 C 
BRANCH  18  19
ATOM     19  C   UNL     1       2.788   7.040  18.891  0.00  0.00    +0.000 A 
ATOM     20  C   UNL     1       2.091   7.476  20.029  0.00  0.00    +0.000 A 
ATOM     21  C   UNL     1       1.295   8.624  19.998  0.00  0.00    +0.000 A 
ATOM     22  C   UNL     1       1.211   9.383  18.833  0.00  0.00    +0.000 A 
ATOM     23  C   UNL     1       1.929   8.998  17.709  0.00  0.00    +0.000 A 
ATOM     24  C   UNL     1       2.713   7.840  17.741  0.00  0.00    +0.000 A 
ENDBRANCH  18  19
ENDBRANCH   7  18
TORSDOF 4
ENDMDL
MODEL 8
REMARK VINA RESULT:      -7.1      1.138      1.633
REMARK  Name = 
REMARK  6 active torsions:
REMARK  status: ('A' for Active; 'I' for Inactive)
REMARK    1  A    between atoms: C_1  and  C_2
REMARK    2  A    between atoms: C_2  and  C_3
REMARK    3  A    between atoms: C_7  and  C_8
REMARK    4  A    between atoms: C_7  and  C_15
REMARK    5  A    between atoms: C_8  and  C_9
REMARK    6  A    between atoms: C_15  and  C_16
REMARK                            x       y       z     vdW  Elec       q    Type
REMARK                         _______ _______ _______ _____ _____    ______ ____
ROOT
ATOM      1  C   UNL     1       2.222   1.585  17.849  0.00  0.00    +0.000 C 
ATOM      2  C   UNL     1       1.850   2.795  18.727  0.00  0.00    +0.000 C 
ATOM      3  C   UNL     1       0.374   2.658  19.145  0.00  0.00    +0.000 C 
ATOM      4  C   UNL     1       2.733   2.832  19.976  0.00  0.00    +0.000 C 
ATOM      5  C   UNL     1       4.182   3.137  19.625  0.00  0.00    +0.000 C 
ATOM      6  O   UNL     1       5.074   2.392  20.036  0.00  0.00    +0.000 OA
ATOM      7  C   UNL     1       4.467   4.420  18.819  0.00  0.00    +0.000 C 
ATOM      8  C   UNL     1       3.457   4.424  17.645  0.00  0.00    +0.000 C 
ATOM      9  O   UNL     1       3.734   4.724  16.484  0.00  0.00    +0.000 OA
ATOM     10  C   UNL     1       2.006   4.108  17.953  0.00  0.00    +0.000 C 
ENDROOT
BRANCH   7  11
ATOM     11  C   UNL     1       5.949   4.348  18.317  0.00  0.00    +0.000 C 
BRANCH  11  12
ATOM     12  C   UNL     1       6.755   5.630  18.190  0.00  0.00    +0.000 A 
ATOM     13  C   UNL     1       7.748   5.964  19.116  0.00  0.00    +0.000 A 
ATOM     14  C   UNL     1       8.432   7.182  19.032  0.00  0.00    +0.000 A 
ATOM     15  C   UNL     1       8.160   8.066  17.992  0.00  0.00    +0.000 A 
ATOM     16  C   UNL     1       7.224   7.719  17.024  0.00  0.00    +0.000 A 
ATOM     17  C   UNL     1       6.540   6.507  17.116  0.00  0.00    +0.000 A 
ENDBRANCH  11  12
ENDBRANCH   7  11
BRANCH   7  18
ATOM     18  C   UNL     1       4.183   5.672  19.702  0.00  0.00    +0.000 C 
BRANCH  18  19
ATOM     19  C   UNL     1       3.282   6.773  19.165  0.00  0.00    +0.000 A 
ATOM     20  C   UNL     1       2.204   7.235  19.936  0.00  0.00    +0.000 A 
ATOM     21  C   UNL     1       1.367   8.256  19.478  0.00  0.00    +0.000 A 
ATOM     22  C   UNL     1       1.617   8.864  18.250  0.00  0.00    +0.000 A 
ATOM     23  C   UNL     1       2.706   8.457  17.491  0.00  0.00    +0.000 A 
ATOM     24  C   UNL     1       3.532   7.424  17.948  0.00  0.00    +0.000 A 
ENDBRANCH  18  19
ENDBRANCH   7  18
TORSDOF 4
ENDMDL
MODEL 9
REMARK VINA RESULT:      -7.1      1.448      1.906
REMARK  Name = 
REMARK  6 active torsions:
REMARK  status: ('A' for Active; 'I' for Inactive)
REMARK    1  A    between atoms: C_1  and  C_2
REMARK    2  A    between atoms: C_2  and  C_3
REMARK    3  A    between atoms: C_7  and  C_8
REMARK    4  A    between atoms: C_7  and  C_15
REMARK    5  A    between atoms: C_8  and  C_9
REMARK    6  A    between atoms: C_15  and  C_16
REMARK                            x       y       z     vdW  Elec       q    Type
REMARK                         _______ _______ _______ _____ _____    ______ ____
ROOT
ATOM      1  C   UNL     1       1.171   1.544  19.610  0.00  0.00    +0.000 C 
ATOM      2  C   UNL     1       1.709   2.786  20.346  0.00  0.00    +0.000 C 
ATOM      3  C   UNL     1       1.246   2.721  21.813  0.00  0.00    +0.000 C 
ATOM      4  C   UNL     1       3.239   2.809  20.294  0.00  0.00    +0.000 C 
ATOM      5  C   UNL     1       3.744   3.044  18.877  0.00  0.00    +0.000 C 
ATOM      6  O   UNL     1       4.572   2.269  18.395  0.00  0.00    +0.000 OA
ATOM      7  C   UNL     1       3.236   4.297  18.136  0.00  0.00    +0.000 C 
ATOM      8  C   UNL     1       1.701   4.322  18.333  0.00  0.00    +0.000 C 
ATOM      9  O   UNL     1       0.886   4.587  17.451  0.00  0.00    +0.000 OA
ATOM     10  C   UNL     1       1.158   4.076  19.729  0.00  0.00    +0.000 C 
ENDROOT
BRANCH   7  11
ATOM     11  C   UNL     1       3.632   4.151  16.628  0.00  0.00    +0.000 C 
BRANCH  11  12
ATOM     12  C   UNL     1       5.021   4.573  16.179  0.00  0.00    +0.000 A 
ATOM     13  C   UNL     1       5.487   4.300  14.888  0.00  0.00    +0.000 A 
ATOM     14  C   UNL     1       6.793   4.625  14.509  0.00  0.00    +0.000 A 
ATOM     15  C   UNL     1       7.641   5.271  15.405  0.00  0.00    +0.000 A 
ATOM     16  C   UNL     1       7.172   5.611  16.669  0.00  0.00    +0.000 A 
ATOM     17  C   UNL     1       5.870   5.278  17.045  0.00  0.00    +0.000 A 
ENDBRANCH  11  12
ENDBRANCH   7  11
BRANCH   7  18
ATOM     18  C   UNL     1       3.828   5.577  18.799  0.00  0.00    +0.000 C 
BRANCH  18  19
ATOM     19  C   UNL     1       2.998   6.852  18.829  0.00  0.00    +0.000 A 
ATOM     20  C   UNL     1       2.870   7.632  17.670  0.00  0.00    +0.000 A 
ATOM     21  C   UNL     1       2.102   8.800  17.661  0.00  0.00    +0.000 A 
ATOM     22  C   UNL     1       1.413   9.190  18.806  0.00  0.00    +0.000 A 
ATOM     23  C   UNL     1       1.486   8.409  19.952  0.00  0.00    +0.000 A 
ATOM     24  C   UNL     1       2.269   7.249  19.960  0.00  0.00    +0.000 A 
ENDBRANCH  18  19
ENDBRANCH   7  18
TORSDOF 4
ENDMDL
