MODEL 1
REMARK VINA RESULT:      -7.7      0.000      0.000
REMARK  Name = 
REMARK  5 active torsions:
REMARK  status: ('A' for Active; 'I' for Inactive)
REMARK    1  A    between atoms: C_1  and  C_2
REMARK    2  A    between atoms: C_5  and  S_6
REMARK    3  A    between atoms: S_6  and  N_9
REMARK    4  A    between atoms: C_12  and  C_13
REMARK    5  A    between atoms: N_15  and  C_16
REMARK                            x       y       z     vdW  Elec       q    Type
REMARK                         _______ _______ _______ _____ _____    ______ ____
ROOT
ATOM      1  N   UNL     1       5.485   5.449  17.490  0.00  0.00    +0.000 NA
ATOM      2  C   UNL     1       5.498   5.038  18.918  0.00  0.00    +0.000 C 
ATOM      3  C   UNL     1       4.268   5.448  19.660  0.00  0.00    +0.000 C 
ATOM      4  C   UNL     1       3.249   6.170  19.159  0.00  0.00    +0.000 C 
ATOM      5  C   UNL     1       3.301   6.653  17.745  0.00  0.00    +0.000 C 
ATOM      6  C   UNL     1       4.745   6.722  17.231  0.00  0.00    +0.000 C 
ENDROOT
BRANCH   4   7
ATOM      7  C   UNL     1       2.161   6.540  20.115  0.00  0.00    +0.000 C 
ATOM      8  O   UNL     1       1.456   5.678  20.630  0.00  0.00    +0.000 OA
ATOM      9  N   UNL     1       2.008   7.880  20.380  0.00  0.00    +0.000 N 
ATOM     10  H   UNL     1       2.495   8.563  19.818  0.00  0.00    +0.000 HD
BRANCH   9  11
ATOM     11  C   UNL     1       0.933   8.328  21.247  0.00  0.00    +0.000 C 
ATOM     12  C   UNL     1       1.413   8.963  22.544  0.00  0.00    +0.000 C 
ATOM     13  C   UNL     1       0.157   9.644  23.074  0.00  0.00    +0.000 C 
ATOM     14  C   UNL     1      -0.622  10.087  21.834  0.00  0.00    +0.000 C 
ATOM     15  C   UNL     1       0.077   9.438  20.637  0.00  0.00    +0.000 C 
ENDBRANCH   9  11
ENDBRANCH   4   7
BRANCH   1  16
ATOM     16  S   UNL     1       7.065   5.479  16.798  0.00  0.00    +0.000 S 
ATOM     17  O   UNL     1       7.884   4.549  17.550  0.00  0.00    +0.000 OA
ATOM     18  O   UNL     1       7.459   6.867  16.651  0.00  0.00    +0.000 OA
BRANCH  16  23
ATOM     19  C   UNL     1       6.410   3.156  11.228  0.00  0.00    +0.000 C 
ATOM     20  C   UNL     1       6.542   3.766  12.593  0.00  0.00    +0.000 A 
ATOM     21  C   UNL     1       7.557   4.692  12.867  0.00  0.00    +0.000 A 
ATOM     22  C   UNL     1       7.705   5.221  14.150  0.00  0.00    +0.000 A 
ATOM     23  C   UNL     1       6.830   4.826  15.164  0.00  0.00    +0.000 A 
ATOM     24  C   UNL     1       5.807   3.909  14.907  0.00  0.00    +0.000 A 
ATOM     25  C   UNL     1       5.668   3.380  13.621  0.00  0.00    +0.000 A 
ENDBRANCH  16  23
ENDBRANCH   1  16
TORSDOF 4
ENDMDL
MODEL 2
REMARK VINA RESULT:      -7.5      2.027      2.620
REMARK  Name = 
REMARK  5 active torsions:
REMARK  status: ('A' for Active; 'I' for Inactive)
REMARK    1  A    between atoms: C_1  and  C_2
REMARK    2  A    between atoms: C_5  and  S_6
REMARK    3  A    between atoms: S_6  and  N_9
REMARK    4  A    between atoms: C_12  and  C_13
REMARK    5  A    between atoms: N_15  and  C_16
REMARK                            x       y       z     vdW  Elec       q    Type
REMARK                         _______ _______ _______ _____ _____    ______ ____
ROOT
ATOM      1  N   UNL     1       3.455   5.128  18.424  0.00  0.00    +0.000 NA
ATOM      2  C   UNL     1       2.854   5.204  19.781  0.00  0.00    +0.000 C 
ATOM      3  C   UNL     1       2.196   6.516  20.061  0.00  0.00    +0.000 C 
ATOM      4  C   UNL     1       2.174   7.578  19.235  0.00  0.00    +0.000 C 
ATOM      5  C   UNL     1       2.867   7.510  17.912  0.00  0.00    +0.000 C 
ATOM      6  C   UNL     1       3.963   6.436  17.910  0.00  0.00    +0.000 C 
ENDROOT
BRANCH   4   7
ATOM      7  C   UNL     1       1.534   8.821  19.764  0.00  0.00    +0.000 C 
ATOM      8  O   UNL     1       1.452   9.830  19.071  0.00  0.00    +0.000 OA
ATOM      9  N   UNL     1       1.048   8.761  21.048  0.00  0.00    +0.000 N 
ATOM     10  H   UNL     1       1.278   7.974  21.637  0.00  0.00    +0.000 HD
BRANCH   9  11
ATOM     11  C   UNL     1       0.469   9.945  21.659  0.00  0.00    +0.000 C 
ATOM     12  C   UNL     1      -0.623  10.597  20.822  0.00  0.00    +0.000 C 
ATOM     13  C   UNL     1      -1.282  11.552  21.810  0.00  0.00    +0.000 C 
ATOM     14  C   UNL     1      -1.178  10.866  23.174  0.00  0.00    +0.000 C 
ATOM     15  C   UNL     1      -0.253   9.663  22.976  0.00  0.00    +0.000 C 
ENDBRANCH   9  11
ENDBRANCH   4   7
BRANCH   1  16
ATOM     16  S   UNL     1       4.649   3.888  18.301  0.00  0.00    +0.000 S 
ATOM     17  O   UNL     1       3.949   2.628  18.150  0.00  0.00    +0.000 OA
ATOM     18  O   UNL     1       5.605   4.085  19.374  0.00  0.00    +0.000 OA
BRANCH  16  23
ATOM     19  C   UNL     1       7.623   4.991  13.125  0.00  0.00    +0.000 C 
ATOM     20  C   UNL     1       6.872   4.763  14.405  0.00  0.00    +0.000 A 
ATOM     21  C   UNL     1       7.491   4.972  15.644  0.00  0.00    +0.000 A 
ATOM     22  C   UNL     1       6.804   4.714  16.831  0.00  0.00    +0.000 A 
ATOM     23  C   UNL     1       5.488   4.250  16.779  0.00  0.00    +0.000 A 
ATOM     24  C   UNL     1       4.851   4.043  15.553  0.00  0.00    +0.000 A 
ATOM     25  C   UNL     1       5.548   4.299  14.367  0.00  0.00    +0.000 A 
ENDBRANCH  16  23
ENDBRANCH   1  16
TORSDOF 4
ENDMDL
MODEL 3
REMARK VINA RESULT:      -7.5      3.835      9.367
REMARK  Name = 
REMARK  5 active torsions:
REMARK  status: ('A' for Active; 'I' for Inactive)
REMARK    1  A    between atoms: C_1  and  C_2
REMARK    2  A    between atoms: C_5  and  S_6
REMARK    3  A    between atoms: S_6  and  N_9
REMARK    4  A    between atoms: C_12  and  C_13
REMARK    5  A    between atoms: N_15  and  C_16
REMARK                            x       y       z     vdW  Elec       q    Type
REMARK                         _______ _______ _______ _____ _____    ______ ____
ROOT
ATOM      1  N   UNL     1       0.725   9.527  19.185  0.00  0.00    +0.000 NA
ATOM      2  C   UNL     1       1.583   9.444  17.975  0.00  0.00    +0.000 C 
ATOM      3  C   UNL     1       2.430   8.214  17.937  0.00  0.00    +0.000 C 
ATOM      4  C   UNL     1       2.500   7.275  18.898  0.00  0.00    +0.000 C 
ATOM      5  C   UNL     1       1.697   7.427  20.150  0.00  0.00    +0.000 C 
ATOM      6  C   UNL     1       1.325   8.894  20.401  0.00  0.00    +0.000 C 
ENDROOT
BRANCH   4   7
ATOM      7  C   UNL     1       3.488   6.174  18.684  0.00  0.00    +0.000 C 
ATOM      8  O   UNL     1       3.754   5.384  19.585  0.00  0.00    +0.000 OA
ATOM      9  N   UNL     1       4.064   6.100  17.439  0.00  0.00    +0.000 N 
ATOM     10  H   UNL     1       3.944   6.859  16.784  0.00  0.00    +0.000 HD
BRANCH   9  11
ATOM     11  C   UNL     1       5.081   5.100  17.170  0.00  0.00    +0.000 C 
ATOM     12  C   UNL     1       5.165   4.687  15.707  0.00  0.00    +0.000 C 
ATOM     13  C   UNL     1       6.491   3.938  15.641  0.00  0.00    +0.000 C 
ATOM     14  C   UNL     1       7.399   4.627  16.663  0.00  0.00    +0.000 C 
ATOM     15  C   UNL     1       6.503   5.581  17.455  0.00  0.00    +0.000 C 
ENDBRANCH   9  11
ENDBRANCH   4   7
BRANCH   1  16
ATOM     16  S   UNL     1       0.188  11.136  19.505  0.00  0.00    +0.000 S 
ATOM     17  O   UNL     1       0.933  12.020  18.631  0.00  0.00    +0.000 OA
ATOM     18  O   UNL     1       0.195  11.329  20.942  0.00  0.00    +0.000 OA
BRANCH  16  23
ATOM     19  C   UNL     1      -5.593  11.279  17.656  0.00  0.00    +0.000 C 
ATOM     20  C   UNL     1      -4.175  11.211  18.146  0.00  0.00    +0.000 A 
ATOM     21  C   UNL     1      -3.723  12.080  19.149  0.00  0.00    +0.000 A 
ATOM     22  C   UNL     1      -2.392  12.044  19.568  0.00  0.00    +0.000 A 
ATOM     23  C   UNL     1      -1.510  11.132  18.986  0.00  0.00    +0.000 A 
ATOM     24  C   UNL     1      -1.945  10.253  17.991  0.00  0.00    +0.000 A 
ATOM     25  C   UNL     1      -3.278  10.297  17.573  0.00  0.00    +0.000 A 
ENDBRANCH  16  23
ENDBRANCH   1  16
TORSDOF 4
ENDMDL
MODEL 4
REMARK VINA RESULT:      -7.5      2.511      3.448
REMARK  Name = 
REMARK  5 active torsions:
REMARK  status: ('A' for Active; 'I' for Inactive)
REMARK    1  A    between atoms: C_1  and  C_2
REMARK    2  A    between atoms: C_5  and  S_6
REMARK    3  A    between atoms: S_6  and  N_9
REMARK    4  A    between atoms: C_12  and  C_13
REMARK    5  A    between atoms: N_15  and  C_16
REMARK                            x       y       z     vdW  Elec       q    Type
REMARK                         _______ _______ _______ _____ _____    ______ ____
ROOT
ATOM      1  N   UNL     1       4.114   5.855  18.632  0.00  0.00    +0.000 NA
ATOM      2  C   UNL     1       4.324   6.766  17.477  0.00  0.00    +0.000 C 
ATOM      3  C   UNL     1       3.419   7.954  17.494  0.00  0.00    +0.000 C 
ATOM      4  C   UNL     1       2.452   8.197  18.397  0.00  0.00    +0.000 C 
ATOM      5  C   UNL     1       2.197   7.217  19.498  0.00  0.00    +0.000 C 
ATOM      6  C   UNL     1       2.704   5.817  19.129  0.00  0.00    +0.000 C 
ENDROOT
BRANCH   4   7
ATOM      7  C   UNL     1       1.607   9.407  18.162  0.00  0.00    +0.000 C 
ATOM      8  O   UNL     1       2.034  10.355  17.509  0.00  0.00    +0.000 OA
ATOM      9  N   UNL     1       0.345   9.389  18.706  0.00  0.00    +0.000 N 
ATOM     10  H   UNL     1       0.093   8.669  19.367  0.00  0.00    +0.000 HD
BRANCH   9  11
ATOM     11  C   UNL     1      -0.514  10.552  18.578  0.00  0.00    +0.000 C 
ATOM     12  C   UNL     1      -1.901  10.235  18.035  0.00  0.00    +0.000 C 
ATOM     13  C   UNL     1      -2.682  11.509  18.333  0.00  0.00    +0.000 C 
ATOM     14  C   UNL     1      -2.089  12.056  19.634  0.00  0.00    +0.000 C 
ATOM     15  C   UNL     1      -0.833  11.227  19.912  0.00  0.00    +0.000 C 
ENDBRANCH   9  11
ENDBRANCH   4   7
BRANCH   1  16
ATOM     16  S   UNL     1       4.729   4.268  18.341  0.00  0.00    +0.000 S 
ATOM     17  O   UNL     1       3.589   3.391  18.162  0.00  0.00    +0.000 OA
ATOM     18  O   UNL     1       5.732   3.989  19.350  0.00  0.00    +0.000 OA
BRANCH  16  23
ATOM     19  C   UNL     1       7.524   4.907  12.990  0.00  0.00    +0.000 C 
ATOM     20  C   UNL     1       6.847   4.703  14.314  0.00  0.00    +0.000 A 
ATOM     21  C   UNL     1       5.506   4.301  14.378  0.00  0.00    +0.000 A 
ATOM     22  C   UNL     1       4.867   4.159  15.610  0.00  0.00    +0.000 A 
ATOM     23  C   UNL     1       5.574   4.414  16.787  0.00  0.00    +0.000 A 
ATOM     24  C   UNL     1       6.914   4.808  16.744  0.00  0.00    +0.000 A 
ATOM     25  C   UNL     1       7.546   4.954  15.505  0.00  0.00    +0.000 A 
ENDBRANCH  16  23
ENDBRANCH   1  16
TORSDOF 4
ENDMDL
MODEL 5
REMARK VINA RESULT:      -7.4      2.335      3.108
REMARK  Name = 
REMARK  5 active torsions:
REMARK  status: ('A' for Active; 'I' for Inactive)
REMARK    1  A    between atoms: C_1  and  C_2
REMARK    2  A    between atoms: C_5  and  S_6
REMARK    3  A    between atoms: S_6  and  N_9
REMARK    4  A    between atoms: C_12  and  C_13
REMARK    5  A    between atoms: N_15  and  C_16
REMARK                            x       y       z     vdW  Elec       q    Type
REMARK                         _______ _______ _______ _____ _____    ______ ____
ROOT
ATOM      1  N   UNL     1       3.520   5.104  18.448  0.00  0.00    +0.000 NA
ATOM      2  C   UNL     1       2.814   5.127  19.756  0.00  0.00    +0.000 C 
ATOM      3  C   UNL     1       2.129   6.425  20.032  0.00  0.00    +0.000 C 
ATOM      4  C   UNL     1       2.165   7.518  19.248  0.00  0.00    +0.000 C 
ATOM      5  C   UNL     1       2.959   7.502  17.982  0.00  0.00    +0.000 C 
ATOM      6  C   UNL     1       4.059   6.433  18.025  0.00  0.00    +0.000 C 
ENDROOT
BRANCH   4   7
ATOM      7  C   UNL     1       1.478   8.738  19.772  0.00  0.00    +0.000 C 
ATOM      8  O   UNL     1       1.350   8.917  20.980  0.00  0.00    +0.000 OA
ATOM      9  N   UNL     1       1.013   9.630  18.836  0.00  0.00    +0.000 N 
ATOM     10  H   UNL     1       0.993   9.370  17.861  0.00  0.00    +0.000 HD
BRANCH   9  11
ATOM     11  C   UNL     1       0.278  10.807  19.261  0.00  0.00    +0.000 C 
ATOM     12  C   UNL     1       0.860  12.115  18.742  0.00  0.00    +0.000 C 
ATOM     13  C   UNL     1      -0.258  13.115  19.015  0.00  0.00    +0.000 C 
ATOM     14  C   UNL     1      -1.559  12.328  18.851  0.00  0.00    +0.000 C 
ATOM     15  C   UNL     1      -1.156  10.856  18.734  0.00  0.00    +0.000 C 
ENDBRANCH   9  11
ENDBRANCH   4   7
BRANCH   1  16
ATOM     16  S   UNL     1       4.727   3.873  18.372  0.00  0.00    +0.000 S 
ATOM     17  O   UNL     1       4.041   2.602  18.254  0.00  0.00    +0.000 OA
ATOM     18  O   UNL     1       5.673   4.112  19.446  0.00  0.00    +0.000 OA
BRANCH  16  23
ATOM     19  C   UNL     1       7.524   5.122  13.131  0.00  0.00    +0.000 C 
ATOM     20  C   UNL     1       6.848   4.768  14.424  0.00  0.00    +0.000 A 
ATOM     21  C   UNL     1       5.522   4.315  14.437  0.00  0.00    +0.000 A 
ATOM     22  C   UNL     1       4.883   4.032  15.645  0.00  0.00    +0.000 A 
ATOM     23  C   UNL     1       5.575   4.198  16.847  0.00  0.00    +0.000 A 
ATOM     24  C   UNL     1       6.900   4.641  16.852  0.00  0.00    +0.000 A 
ATOM     25  C   UNL     1       7.532   4.928  15.638  0.00  0.00    +0.000 A 
ENDBRANCH  16  23
ENDBRANCH   1  16
TORSDOF 4
ENDMDL
MODEL 6
REMARK VINA RESULT:      -7.4      2.306      2.953
REMARK  Name = 
REMARK  5 active torsions:
REMARK  status: ('A' for Active; 'I' for Inactive)
REMARK    1  A    between atoms: C_1  and  C_2
REMARK    2  A    between atoms: C_5  and  S_6
REMARK    3  A    between atoms: S_6  and  N_9
REMARK    4  A    between atoms: C_12  and  C_13
REMARK    5  A    between atoms: N_15  and  C_16
REMARK                            x       y       z     vdW  Elec       q    Type
REMARK                         _______ _______ _______ _____ _____    ______ ____
ROOT
ATOM      1  N   UNL     1       3.647   5.312  18.478  0.00  0.00    +0.000 NA
ATOM      2  C   UNL     1       2.965   5.323  19.798  0.00  0.00    +0.000 C 
ATOM      3  C   UNL     1       2.184   6.573  20.047  0.00  0.00    +0.000 C 
ATOM      4  C   UNL     1       2.120   7.638  19.227  0.00  0.00    +0.000 C 
ATOM      5  C   UNL     1       2.891   7.642  17.947  0.00  0.00    +0.000 C 
ATOM      6  C   UNL     1       4.072   6.664  18.002  0.00  0.00    +0.000 C 
ENDROOT
BRANCH   4   7
ATOM      7  C   UNL     1       1.349   8.817  19.726  0.00  0.00    +0.000 C 
ATOM      8  O   UNL     1       1.257   9.047  20.928  0.00  0.00    +0.000 OA
ATOM      9  N   UNL     1       0.765   9.616  18.772  0.00  0.00    +0.000 N 
ATOM     10  H   UNL     1       0.726   9.305  17.812  0.00  0.00    +0.000 HD
BRANCH   9  11
ATOM     11  C   UNL     1      -0.055  10.744  19.175  0.00  0.00    +0.000 C 
ATOM     12  C   UNL     1       0.534  12.097  18.802  0.00  0.00    +0.000 C 
ATOM     13  C   UNL     1      -0.642  13.046  19.001  0.00  0.00    +0.000 C 
ATOM     14  C   UNL     1      -1.888  12.232  18.643  0.00  0.00    +0.000 C 
ATOM     15  C   UNL     1      -1.421  10.783  18.490  0.00  0.00    +0.000 C 
ENDBRANCH   9  11
ENDBRANCH   4   7
BRANCH   1  16
ATOM     16  S   UNL     1       4.946   4.178  18.417  0.00  0.00    +0.000 S 
ATOM     17  O   UNL     1       4.364   2.852  18.470  0.00  0.00    +0.000 OA
ATOM     18  O   UNL     1       5.943   4.592  19.387  0.00  0.00    +0.000 OA
BRANCH  16  23
ATOM     19  C   UNL     1       7.461   4.865  12.935  0.00  0.00    +0.000 C 
ATOM     20  C   UNL     1       6.825   4.741  14.289  0.00  0.00    +0.000 A 
ATOM     21  C   UNL     1       7.562   5.000  15.452  0.00  0.00    +0.000 A 
ATOM     22  C   UNL     1       6.980   4.838  16.710  0.00  0.00    +0.000 A 
ATOM     23  C   UNL     1       5.651   4.419  16.806  0.00  0.00    +0.000 A 
ATOM     24  C   UNL     1       4.898   4.163  15.658  0.00  0.00    +0.000 A 
ATOM     25  C   UNL     1       5.490   4.323  14.401  0.00  0.00    +0.000 A 
ENDBRANCH  16  23
ENDBRANCH   1  16
TORSDOF 4
ENDMDL
MODEL 7
REMARK VINA RESULT:      -7.4      1.753      2.135
REMARK  Name = 
REMARK  5 active torsions:
REMARK  status: ('A' for Active; 'I' for Inactive)
REMARK    1  A    between atoms: C_1  and  C_2
REMARK    2  A    between atoms: C_5  and  S_6
REMARK    3  A    between atoms: S_6  and  N_9
REMARK    4  A    between atoms: C_12  and  C_13
REMARK    5  A    between atoms: N_15  and  C_16
REMARK                            x       y       z     vdW  Elec       q    Type
REMARK                         _______ _______ _______ _____ _____    ______ ____
ROOT
ATOM      1  N   UNL     1       4.058   5.835  18.367  0.00  0.00    +0.000 NA
ATOM      2  C   UNL     1       3.411   5.816  19.705  0.00  0.00    +0.000 C 
ATOM      3  C   UNL     1       2.392   6.893  19.883  0.00  0.00    +0.000 C 
ATOM      4  C   UNL     1       2.093   7.851  18.986  0.00  0.00    +0.000 C 
ATOM      5  C   UNL     1       2.824   7.907  17.683  0.00  0.00    +0.000 C 
ATOM      6  C   UNL     1       4.183   7.202  17.773  0.00  0.00    +0.000 C 
ENDROOT
BRANCH   4   7
ATOM      7  C   UNL     1       1.102   8.883  19.417  0.00  0.00    +0.000 C 
ATOM      8  O   UNL     1       0.662   9.705  18.619  0.00  0.00    +0.000 OA
ATOM      9  N   UNL     1       0.718   8.851  20.736  0.00  0.00    +0.000 N 
ATOM     10  H   UNL     1       1.221   8.270  21.392  0.00  0.00    +0.000 HD
BRANCH   9  11
ATOM     11  C   UNL     1      -0.191   9.859  21.250  0.00  0.00    +0.000 C 
ATOM     12  C   UNL     1      -0.563   9.663  22.714  0.00  0.00    +0.000 C 
ATOM     13  C   UNL     1      -1.201  10.997  23.083  0.00  0.00    +0.000 C 
ATOM     14  C   UNL     1      -0.466  12.047  22.247  0.00  0.00    +0.000 C 
ATOM     15  C   UNL     1       0.395  11.270  21.248  0.00  0.00    +0.000 C 
ENDBRANCH   9  11
ENDBRANCH   4   7
BRANCH   1  16
ATOM     16  S   UNL     1       5.563   4.992  18.349  0.00  0.00    +0.000 S 
ATOM     17  O   UNL     1       5.352   3.718  19.007  0.00  0.00    +0.000 OA
ATOM     18  O   UNL     1       6.589   5.907  18.811  0.00  0.00    +0.000 OA
BRANCH  16  23
ATOM     19  C   UNL     1       6.735   3.862  12.501  0.00  0.00    +0.000 C 
ATOM     20  C   UNL     1       6.421   4.181  13.934  0.00  0.00    +0.000 A 
ATOM     21  C   UNL     1       7.304   4.950  14.706  0.00  0.00    +0.000 A 
ATOM     22  C   UNL     1       7.031   5.204  16.050  0.00  0.00    +0.000 A 
ATOM     23  C   UNL     1       5.867   4.692  16.627  0.00  0.00    +0.000 A 
ATOM     24  C   UNL     1       4.972   3.930  15.871  0.00  0.00    +0.000 A 
ATOM     25  C   UNL     1       5.254   3.675  14.526  0.00  0.00    +0.000 A 
ENDBRANCH  16  23
ENDBRANCH   1  16
TORSDOF 4
ENDMDL
MODEL 8
REMARK VINA RESULT:      -7.4      2.019      2.725
REMARK  Name = 
REMARK  5 active torsions:
REMARK  status: ('A' for Active; 'I' for Inactive)
REMARK    1  A    between atoms: C_1  and  C_2
REMARK    2  A    between atoms: C_5  and  S_6
REMARK    3  A    between atoms: S_6  and  N_9
REMARK    4  A    between atoms: C_12  and  C_13
REMARK    5  A    between atoms: N_15  and  C_16
REMARK                            x       y       z     vdW  Elec       q    Type
REMARK                         _______ _______ _______ _____ _____    ______ ____
ROOT
ATOM      1  N   UNL     1       3.736   5.672  18.651  0.00  0.00    +0.000 NA
ATOM      2  C   UNL     1       3.019   5.809  19.945  0.00  0.00    +0.000 C 
ATOM      3  C   UNL     1       2.117   6.999  19.994  0.00  0.00    +0.000 C 
ATOM      4  C   UNL     1       1.975   7.922  19.026  0.00  0.00    +0.000 C 
ATOM      5  C   UNL     1       2.778   7.814  17.769  0.00  0.00    +0.000 C 
ATOM      6  C   UNL     1       4.045   6.975  17.985  0.00  0.00    +0.000 C 
ENDROOT
BRANCH   4   7
ATOM      7  C   UNL     1       1.081   9.080  19.333  0.00  0.00    +0.000 C 
ATOM      8  O   UNL     1       0.675   9.815  18.438  0.00  0.00    +0.000 OA
ATOM      9  N   UNL     1       0.745   9.262  20.653  0.00  0.00    +0.000 N 
ATOM     10  H   UNL     1       1.226   8.739  21.371  0.00  0.00    +0.000 HD
BRANCH   9  11
ATOM     11  C   UNL     1      -0.066  10.401  21.043  0.00  0.00    +0.000 C 
ATOM     12  C   UNL     1      -0.553  10.344  22.484  0.00  0.00    +0.000 C 
ATOM     13  C   UNL     1      -1.046  11.765  22.732  0.00  0.00    +0.000 C 
ATOM     14  C   UNL     1      -0.135  12.665  21.894  0.00  0.00    +0.000 C 
ATOM     15  C   UNL     1       0.688  11.730  21.005  0.00  0.00    +0.000 C 
ENDBRANCH   9  11
ENDBRANCH   4   7
BRANCH   1  16
ATOM     16  S   UNL     1       5.138   4.674  18.776  0.00  0.00    +0.000 S 
ATOM     17  O   UNL     1       4.693   3.353  19.174  0.00  0.00    +0.000 OA
ATOM     18  O   UNL     1       6.126   5.393  19.557  0.00  0.00    +0.000 OA
BRANCH  16  23
ATOM     19  C   UNL     1       7.124   4.490  13.042  0.00  0.00    +0.000 C 
ATOM     20  C   UNL     1       6.650   4.492  14.467  0.00  0.00    +0.000 A 
ATOM     21  C   UNL     1       5.360   4.051  14.792  0.00  0.00    +0.000 A 
ATOM     22  C   UNL     1       4.907   4.098  16.111  0.00  0.00    +0.000 A 
ATOM     23  C   UNL     1       5.751   4.583  17.113  0.00  0.00    +0.000 A 
ATOM     24  C   UNL     1       7.043   5.019  16.809  0.00  0.00    +0.000 A 
ATOM     25  C   UNL     1       7.488   4.973  15.484  0.00  0.00    +0.000 A 
ENDBRANCH  16  23
ENDBRANCH   1  16
TORSDOF 4
ENDMDL
MODEL 9
REMARK VINA RESULT:      -7.4      0.339      1.045
REMARK  Name = 
REMARK  5 active torsions:
REMARK  status: ('A' for Active; 'I' for Inactive)
REMARK    1  A    between atoms: C_1  and  C_2
REMARK    2  A    between atoms: C_5  and  S_6
REMARK    3  A    between atoms: S_6  and  N_9
REMARK    4  A    between atoms: C_12  and  C_13
REMARK    5  A    between atoms: N_15  and  C_16
REMARK                            x       y       z     vdW  Elec       q    Type
REMARK                         _______ _______ _______ _____ _____    ______ ____
ROOT
ATOM      1  N   UNL     1       5.592   5.128  17.460  0.00  0.00    +0.000 NA
ATOM      2  C   UNL     1       5.714   4.999  18.935  0.00  0.00    +0.000 C 
ATOM      3  C   UNL     1       4.475   5.402  19.666  0.00  0.00    +0.000 C 
ATOM      4  C   UNL     1       3.357   5.900  19.107  0.00  0.00    +0.000 C 
ATOM      5  C   UNL     1       3.292   6.109  17.628  0.00  0.00    +0.000 C 
ATOM      6  C   UNL     1       4.694   6.239  17.019  0.00  0.00    +0.000 C 
ENDROOT
BRANCH   4   7
ATOM      7  C   UNL     1       2.273   6.322  20.045  0.00  0.00    +0.000 C 
ATOM      8  O   UNL     1       1.583   5.488  20.625  0.00  0.00    +0.000 OA
ATOM      9  N   UNL     1       2.104   7.674  20.219  0.00  0.00    +0.000 N 
ATOM     10  H   UNL     1       2.578   8.323  19.606  0.00  0.00    +0.000 HD
BRANCH   9  11
ATOM     11  C   UNL     1       1.032   8.167  21.063  0.00  0.00    +0.000 C 
ATOM     12  C   UNL     1       1.515   8.904  22.305  0.00  0.00    +0.000 C 
ATOM     13  C   UNL     1       0.253   9.602  22.798  0.00  0.00    +0.000 C 
ATOM     14  C   UNL     1      -0.546   9.940  21.538  0.00  0.00    +0.000 C 
ATOM     15  C   UNL     1       0.151   9.216  20.384  0.00  0.00    +0.000 C 
ENDBRANCH   9  11
ENDBRANCH   4   7
BRANCH   1  16
ATOM     16  S   UNL     1       7.128   5.201  16.675  0.00  0.00    +0.000 S 
ATOM     17  O   UNL     1       7.998   4.251  17.341  0.00  0.00    +0.000 OA
ATOM     18  O   UNL     1       7.501   6.597  16.559  0.00  0.00    +0.000 OA
BRANCH  16  23
ATOM     19  C   UNL     1       5.855   3.261  11.065  0.00  0.00    +0.000 C 
ATOM     20  C   UNL     1       6.200   3.704  12.458  0.00  0.00    +0.000 A 
ATOM     21  C   UNL     1       5.458   3.251  13.557  0.00  0.00    +0.000 A 
ATOM     22  C   UNL     1       5.753   3.703  14.844  0.00  0.00    +0.000 A 
ATOM     23  C   UNL     1       6.800   4.608  15.035  0.00  0.00    +0.000 A 
ATOM     24  C   UNL     1       7.555   5.064  13.952  0.00  0.00    +0.000 A 
ATOM     25  C   UNL     1       7.251   4.611  12.664  0.00  0.00    +0.000 A 
ENDBRANCH  16  23
ENDBRANCH   1  16
TORSDOF 4
ENDMDL
