MODEL 1
REMARK VINA RESULT:      -8.6      0.000      0.000
REMARK  Name = 
REMARK  1 active torsions:
REMARK  status: ('A' for Active; 'I' for Inactive)
REMARK    1  A    between atoms: C_4  and  C_5
REMARK                            x       y       z     vdW  Elec       q    Type
REMARK                         _______ _______ _______ _____ _____    ______ ____
ROOT
ATOM      1  O   UNL     1       7.757   6.507  16.223  0.00  0.00    +0.000 OA
ATOM      2  C   UNL     1       6.900   5.674  15.950  0.00  0.00    +0.000 A 
ATOM      3  N   UNL     1       5.964   5.269  16.859  0.00  0.00    +0.000 N 
ATOM      4  C   UNL     1       5.010   4.320  16.599  0.00  0.00    +0.000 A 
ATOM      5  N   UNL     1       4.893   3.730  15.451  0.00  0.00    +0.000 NA
ATOM      6  C   UNL     1       5.799   4.095  14.433  0.00  0.00    +0.000 A 
ATOM      7  C   UNL     1       5.697   3.490  13.178  0.00  0.00    +0.000 A 
ATOM      8  C   UNL     1       6.589   3.824  12.151  0.00  0.00    +0.000 A 
ATOM      9  C   UNL     1       7.595   4.767  12.368  0.00  0.00    +0.000 A 
ATOM     10  C   UNL     1       7.708   5.382  13.610  0.00  0.00    +0.000 A 
ATOM     11  C   UNL     1       6.810   5.041  14.628  0.00  0.00    +0.000 A 
ATOM     12  H   UNL     1       6.028   5.702  17.766  0.00  0.00    +0.000 HD
ENDROOT
BRANCH   4  13
ATOM     13  C   UNL     1       4.119   3.991  17.683  0.00  0.00    +0.000 A 
ATOM     14  C   UNL     1       2.765   4.243  17.843  0.00  0.00    +0.000 A 
ATOM     15  C   UNL     1       2.348   3.716  19.091  0.00  0.00    +0.000 A 
ATOM     16  C   UNL     1       1.112   3.676  19.763  0.00  0.00    +0.000 A 
ATOM     17  C   UNL     1       1.037   3.062  21.017  0.00  0.00    +0.000 A 
ATOM     18  C   UNL     1       2.172   2.498  21.597  0.00  0.00    +0.000 A 
ATOM     19  C   UNL     1       3.411   2.528  20.946  0.00  0.00    +0.000 A 
ATOM     20  C   UNL     1       3.466   3.144  19.689  0.00  0.00    +0.000 A 
ATOM     21  N   UNL     1       4.520   3.320  18.820  0.00  0.00    +0.000 N 
ATOM     22  H   UNL     1       5.469   3.008  18.980  0.00  0.00    +0.000 HD
ENDBRANCH   4  13
TORSDOF 1
ENDMDL
MODEL 2
REMARK VINA RESULT:      -8.4      5.406      8.114
REMARK  Name = 
REMARK  1 active torsions:
REMARK  status: ('A' for Active; 'I' for Inactive)
REMARK    1  A    between atoms: C_4  and  C_5
REMARK                            x       y       z     vdW  Elec       q    Type
REMARK                         _______ _______ _______ _____ _____    ______ ____
ROOT
ATOM      1  O   UNL     1       8.225   5.083  19.821  0.00  0.00    +0.000 OA
ATOM      2  C   UNL     1       7.907   5.951  19.017  0.00  0.00    +0.000 A 
ATOM      3  N   UNL     1       8.412   7.219  19.079  0.00  0.00    +0.000 N 
ATOM      4  C   UNL     1       8.057   8.223  18.216  0.00  0.00    +0.000 A 
ATOM      5  N   UNL     1       7.219   8.055  17.241  0.00  0.00    +0.000 NA
ATOM      6  C   UNL     1       6.657   6.772  17.075  0.00  0.00    +0.000 A 
ATOM      7  C   UNL     1       5.760   6.550  16.029  0.00  0.00    +0.000 A 
ATOM      8  C   UNL     1       5.177   5.289  15.845  0.00  0.00    +0.000 A 
ATOM      9  C   UNL     1       5.485   4.237  16.709  0.00  0.00    +0.000 A 
ATOM     10  C   UNL     1       6.379   4.440  17.754  0.00  0.00    +0.000 A 
ATOM     11  C   UNL     1       6.956   5.704  17.925  0.00  0.00    +0.000 A 
ATOM     12  H   UNL     1       9.061   7.389  19.829  0.00  0.00    +0.000 HD
ENDROOT
BRANCH   4  13
ATOM     13  C   UNL     1       8.665   9.511  18.443  0.00  0.00    +0.000 A 
ATOM     14  C   UNL     1       8.641  10.665  17.675  0.00  0.00    +0.000 A 
ATOM     15  C   UNL     1       9.398  11.666  18.336  0.00  0.00    +0.000 A 
ATOM     16  C   UNL     1       9.710  13.004  18.032  0.00  0.00    +0.000 A 
ATOM     17  C   UNL     1      10.501  13.738  18.920  0.00  0.00    +0.000 A 
ATOM     18  C   UNL     1      10.979  13.153  20.091  0.00  0.00    +0.000 A 
ATOM     19  C   UNL     1      10.682  11.823  20.411  0.00  0.00    +0.000 A 
ATOM     20  C   UNL     1       9.883  11.104  19.512  0.00  0.00    +0.000 A 
ATOM     21  N   UNL     1       9.426   9.806  19.555  0.00  0.00    +0.000 N 
ATOM     22  H   UNL     1       9.616   9.142  20.296  0.00  0.00    +0.000 HD
ENDBRANCH   4  13
TORSDOF 1
ENDMDL
MODEL 3
REMARK VINA RESULT:      -8.4      0.582      1.301
REMARK  Name = 
REMARK  1 active torsions:
REMARK  status: ('A' for Active; 'I' for Inactive)
REMARK    1  A    between atoms: C_4  and  C_5
REMARK                            x       y       z     vdW  Elec       q    Type
REMARK                         _______ _______ _______ _____ _____    ______ ____
ROOT
ATOM      1  O   UNL     1       7.811   6.520  16.274  0.00  0.00    +0.000 OA
ATOM      2  C   UNL     1       6.970   5.665  16.025  0.00  0.00    +0.000 A 
ATOM      3  N   UNL     1       6.075   5.231  16.962  0.00  0.00    +0.000 N 
ATOM      4  C   UNL     1       5.140   4.257  16.728  0.00  0.00    +0.000 A 
ATOM      5  N   UNL     1       5.002   3.668  15.581  0.00  0.00    +0.000 NA
ATOM      6  C   UNL     1       5.864   4.062  14.537  0.00  0.00    +0.000 A 
ATOM      7  C   UNL     1       5.739   3.459  13.283  0.00  0.00    +0.000 A 
ATOM      8  C   UNL     1       6.587   3.822  12.229  0.00  0.00    +0.000 A 
ATOM      9  C   UNL     1       7.573   4.791  12.418  0.00  0.00    +0.000 A 
ATOM     10  C   UNL     1       7.710   5.404  13.659  0.00  0.00    +0.000 A 
ATOM     11  C   UNL     1       6.855   5.035  14.703  0.00  0.00    +0.000 A 
ATOM     12  H   UNL     1       6.157   5.662  17.868  0.00  0.00    +0.000 HD
ENDROOT
BRANCH   4  13
ATOM     13  C   UNL     1       4.293   3.899  17.839  0.00  0.00    +0.000 A 
ATOM     14  C   UNL     1       4.613   3.360  19.075  0.00  0.00    +0.000 A 
ATOM     15  C   UNL     1       3.419   3.189  19.820  0.00  0.00    +0.000 A 
ATOM     16  C   UNL     1       3.141   2.699  21.110  0.00  0.00    +0.000 A 
ATOM     17  C   UNL     1       1.816   2.665  21.555  0.00  0.00    +0.000 A 
ATOM     18  C   UNL     1       0.782   3.108  20.734  0.00  0.00    +0.000 A 
ATOM     19  C   UNL     1       1.036   3.598  19.447  0.00  0.00    +0.000 A 
ATOM     20  C   UNL     1       2.370   3.629  19.019  0.00  0.00    +0.000 A 
ATOM     21  N   UNL     1       2.923   4.054  17.831  0.00  0.00    +0.000 N 
ATOM     22  H   UNL     1       2.406   4.430  17.046  0.00  0.00    +0.000 HD
ENDBRANCH   4  13
TORSDOF 1
ENDMDL
MODEL 4
REMARK VINA RESULT:      -8.2      1.755      7.200
REMARK  Name = 
REMARK  1 active torsions:
REMARK  status: ('A' for Active; 'I' for Inactive)
REMARK    1  A    between atoms: C_4  and  C_5
REMARK                            x       y       z     vdW  Elec       q    Type
REMARK                         _______ _______ _______ _____ _____    ______ ____
ROOT
ATOM      1  O   UNL     1       5.210   1.813  20.522  0.00  0.00    +0.000 OA
ATOM      2  C   UNL     1       4.628   2.541  19.726  0.00  0.00    +0.000 A 
ATOM      3  N   UNL     1       5.185   2.902  18.532  0.00  0.00    +0.000 N 
ATOM      4  C   UNL     1       4.578   3.736  17.630  0.00  0.00    +0.000 A 
ATOM      5  N   UNL     1       3.401   4.246  17.818  0.00  0.00    +0.000 NA
ATOM      6  C   UNL     1       2.729   3.915  19.013  0.00  0.00    +0.000 A 
ATOM      7  C   UNL     1       1.454   4.436  19.246  0.00  0.00    +0.000 A 
ATOM      8  C   UNL     1       0.766   4.134  20.429  0.00  0.00    +0.000 A 
ATOM      9  C   UNL     1       1.347   3.308  21.392  0.00  0.00    +0.000 A 
ATOM     10  C   UNL     1       2.614   2.779  21.174  0.00  0.00    +0.000 A 
ATOM     11  C   UNL     1       3.290   3.086  19.989  0.00  0.00    +0.000 A 
ATOM     12  H   UNL     1       6.103   2.529  18.354  0.00  0.00    +0.000 HD
ENDROOT
BRANCH   4  13
ATOM     13  C   UNL     1       5.321   4.036  16.431  0.00  0.00    +0.000 A 
ATOM     14  C   UNL     1       6.369   4.919  16.221  0.00  0.00    +0.000 A 
ATOM     15  C   UNL     1       6.757   4.848  14.859  0.00  0.00    +0.000 A 
ATOM     16  C   UNL     1       7.744   5.499  14.096  0.00  0.00    +0.000 A 
ATOM     17  C   UNL     1       7.869   5.192  12.738  0.00  0.00    +0.000 A 
ATOM     18  C   UNL     1       7.027   4.255  12.144  0.00  0.00    +0.000 A 
ATOM     19  C   UNL     1       6.037   3.597  12.884  0.00  0.00    +0.000 A 
ATOM     20  C   UNL     1       5.929   3.913  14.245  0.00  0.00    +0.000 A 
ATOM     21  N   UNL     1       5.074   3.437  15.214  0.00  0.00    +0.000 N 
ATOM     22  H   UNL     1       4.354   2.741  15.068  0.00  0.00    +0.000 HD
ENDBRANCH   4  13
TORSDOF 1
ENDMDL
MODEL 5
REMARK VINA RESULT:      -8.0      5.349      8.212
REMARK  Name = 
REMARK  1 active torsions:
REMARK  status: ('A' for Active; 'I' for Inactive)
REMARK    1  A    between atoms: C_4  and  C_5
REMARK                            x       y       z     vdW  Elec       q    Type
REMARK                         _______ _______ _______ _____ _____    ______ ____
ROOT
ATOM      1  O   UNL     1       8.262   5.083  19.753  0.00  0.00    +0.000 OA
ATOM      2  C   UNL     1       7.915   5.954  18.965  0.00  0.00    +0.000 A 
ATOM      3  N   UNL     1       8.409   7.227  19.025  0.00  0.00    +0.000 N 
ATOM      4  C   UNL     1       8.023   8.234  18.179  0.00  0.00    +0.000 A 
ATOM      5  N   UNL     1       7.163   8.066  17.224  0.00  0.00    +0.000 NA
ATOM      6  C   UNL     1       6.610   6.778  17.061  0.00  0.00    +0.000 A 
ATOM      7  C   UNL     1       5.689   6.555  16.035  0.00  0.00    +0.000 A 
ATOM      8  C   UNL     1       5.115   5.290  15.856  0.00  0.00    +0.000 A 
ATOM      9  C   UNL     1       5.454   4.234  16.702  0.00  0.00    +0.000 A 
ATOM     10  C   UNL     1       6.372   4.438  17.727  0.00  0.00    +0.000 A 
ATOM     11  C   UNL     1       6.940   5.706  17.895  0.00  0.00    +0.000 A 
ATOM     12  H   UNL     1       9.075   7.397  19.760  0.00  0.00    +0.000 HD
ENDROOT
BRANCH   4  13
ATOM     13  C   UNL     1       8.623   9.526  18.403  0.00  0.00    +0.000 A 
ATOM     14  C   UNL     1       9.510   9.948  19.382  0.00  0.00    +0.000 A 
ATOM     15  C   UNL     1       9.803  11.319  19.169  0.00  0.00    +0.000 A 
ATOM     16  C   UNL     1      10.624  12.250  19.832  0.00  0.00    +0.000 A 
ATOM     17  C   UNL     1      10.694  13.561  19.353  0.00  0.00    +0.000 A 
ATOM     18  C   UNL     1       9.959  13.944  18.233  0.00  0.00    +0.000 A 
ATOM     19  C   UNL     1       9.136  13.035  17.559  0.00  0.00    +0.000 A 
ATOM     20  C   UNL     1       9.081  11.724  18.050  0.00  0.00    +0.000 A 
ATOM     21  N   UNL     1       8.380  10.625  17.606  0.00  0.00    +0.000 N 
ATOM     22  H   UNL     1       7.763  10.610  16.804  0.00  0.00    +0.000 HD
ENDBRANCH   4  13
TORSDOF 1
ENDMDL
MODEL 6
REMARK VINA RESULT:      -8.0      4.782      5.779
REMARK  Name = 
REMARK  1 active torsions:
REMARK  status: ('A' for Active; 'I' for Inactive)
REMARK    1  A    between atoms: C_4  and  C_5
REMARK                            x       y       z     vdW  Elec       q    Type
REMARK                         _______ _______ _______ _____ _____    ______ ____
ROOT
ATOM      1  O   UNL     1       3.174   3.494  19.485  0.00  0.00    +0.000 OA
ATOM      2  C   UNL     1       3.248   4.632  19.037  0.00  0.00    +0.000 A 
ATOM      3  N   UNL     1       2.581   5.681  19.605  0.00  0.00    +0.000 N 
ATOM      4  C   UNL     1       2.618   6.960  19.115  0.00  0.00    +0.000 A 
ATOM      5  N   UNL     1       3.310   7.301  18.073  0.00  0.00    +0.000 NA
ATOM      6  C   UNL     1       4.055   6.293  17.426  0.00  0.00    +0.000 A 
ATOM      7  C   UNL     1       4.823   6.623  16.308  0.00  0.00    +0.000 A 
ATOM      8  C   UNL     1       5.566   5.643  15.637  0.00  0.00    +0.000 A 
ATOM      9  C   UNL     1       5.547   4.319  16.079  0.00  0.00    +0.000 A 
ATOM     10  C   UNL     1       4.791   3.973  17.194  0.00  0.00    +0.000 A 
ATOM     11  C   UNL     1       4.055   4.962  17.855  0.00  0.00    +0.000 A 
ATOM     12  H   UNL     1       2.027   5.452  20.413  0.00  0.00    +0.000 HD
ENDROOT
BRANCH   4  13
ATOM     13  C   UNL     1       1.830   7.941  19.821  0.00  0.00    +0.000 A 
ATOM     14  C   UNL     1       1.255   9.121  19.376  0.00  0.00    +0.000 A 
ATOM     15  C   UNL     1       0.577   9.734  20.461  0.00  0.00    +0.000 A 
ATOM     16  C   UNL     1      -0.171  10.918  20.594  0.00  0.00    +0.000 A 
ATOM     17  C   UNL     1      -0.721  11.242  21.837  0.00  0.00    +0.000 A 
ATOM     18  C   UNL     1      -0.530  10.405  22.934  0.00  0.00    +0.000 A 
ATOM     19  C   UNL     1       0.212   9.223  22.825  0.00  0.00    +0.000 A 
ATOM     20  C   UNL     1       0.752   8.912  21.570  0.00  0.00    +0.000 A 
ATOM     21  N   UNL     1       1.508   7.837  21.158  0.00  0.00    +0.000 N 
ATOM     22  H   UNL     1       1.799   7.066  21.746  0.00  0.00    +0.000 HD
ENDBRANCH   4  13
TORSDOF 1
ENDMDL
MODEL 7
REMARK VINA RESULT:      -7.9      1.694      7.124
REMARK  Name = 
REMARK  1 active torsions:
REMARK  status: ('A' for Active; 'I' for Inactive)
REMARK    1  A    between atoms: C_4  and  C_5
REMARK                            x       y       z     vdW  Elec       q    Type
REMARK                         _______ _______ _______ _____ _____    ______ ____
ROOT
ATOM      1  O   UNL     1       2.515   7.076  19.118  0.00  0.00    +0.000 OA
ATOM      2  C   UNL     1       3.063   6.012  18.854  0.00  0.00    +0.000 A 
ATOM      3  N   UNL     1       3.841   5.851  17.742  0.00  0.00    +0.000 N 
ATOM      4  C   UNL     1       4.445   4.670  17.400  0.00  0.00    +0.000 A 
ATOM      5  N   UNL     1       4.350   3.593  18.115  0.00  0.00    +0.000 NA
ATOM      6  C   UNL     1       3.587   3.660  19.299  0.00  0.00    +0.000 A 
ATOM      7  C   UNL     1       3.472   2.523  20.103  0.00  0.00    +0.000 A 
ATOM      8  C   UNL     1       2.712   2.555  21.279  0.00  0.00    +0.000 A 
ATOM      9  C   UNL     1       2.056   3.726  21.664  0.00  0.00    +0.000 A 
ATOM     10  C   UNL     1       2.163   4.868  20.877  0.00  0.00    +0.000 A 
ATOM     11  C   UNL     1       2.927   4.823  19.706  0.00  0.00    +0.000 A 
ATOM     12  H   UNL     1       3.931   6.666  17.158  0.00  0.00    +0.000 HD
ENDROOT
BRANCH   4  13
ATOM     13  C   UNL     1       5.207   4.669  16.176  0.00  0.00    +0.000 A 
ATOM     14  C   UNL     1       6.316   5.415  15.807  0.00  0.00    +0.000 A 
ATOM     15  C   UNL     1       6.696   5.044  14.492  0.00  0.00    +0.000 A 
ATOM     16  C   UNL     1       7.727   5.456  13.628  0.00  0.00    +0.000 A 
ATOM     17  C   UNL     1       7.828   4.875  12.361  0.00  0.00    +0.000 A 
ATOM     18  C   UNL     1       6.919   3.900  11.955  0.00  0.00    +0.000 A 
ATOM     19  C   UNL     1       5.885   3.476  12.799  0.00  0.00    +0.000 A 
ATOM     20  C   UNL     1       5.802   4.067  14.067  0.00  0.00    +0.000 A 
ATOM     21  N   UNL     1       4.916   3.857  15.099  0.00  0.00    +0.000 N 
ATOM     22  H   UNL     1       4.146   3.199  15.086  0.00  0.00    +0.000 HD
ENDBRANCH   4  13
TORSDOF 1
ENDMDL
MODEL 8
REMARK VINA RESULT:      -7.8      4.357      5.271
REMARK  Name = 
REMARK  1 active torsions:
REMARK  status: ('A' for Active; 'I' for Inactive)
REMARK    1  A    between atoms: C_4  and  C_5
REMARK                            x       y       z     vdW  Elec       q    Type
REMARK                         _______ _______ _______ _____ _____    ______ ____
ROOT
ATOM      1  O   UNL     1       2.529   3.245  17.553  0.00  0.00    +0.000 OA
ATOM      2  C   UNL     1       3.042   4.357  17.608  0.00  0.00    +0.000 A 
ATOM      3  N   UNL     1       2.459   5.394  18.280  0.00  0.00    +0.000 N 
ATOM      4  C   UNL     1       2.988   6.656  18.339  0.00  0.00    +0.000 A 
ATOM      5  N   UNL     1       4.110   6.981  17.776  0.00  0.00    +0.000 NA
ATOM      6  C   UNL     1       4.805   5.973  17.075  0.00  0.00    +0.000 A 
ATOM      7  C   UNL     1       6.023   6.282  16.465  0.00  0.00    +0.000 A 
ATOM      8  C   UNL     1       6.731   5.305  15.753  0.00  0.00    +0.000 A 
ATOM      9  C   UNL     1       6.227   4.008  15.642  0.00  0.00    +0.000 A 
ATOM     10  C   UNL     1       5.018   3.684  16.246  0.00  0.00    +0.000 A 
ATOM     11  C   UNL     1       4.321   4.667  16.955  0.00  0.00    +0.000 A 
ATOM     12  H   UNL     1       1.581   5.180  18.724  0.00  0.00    +0.000 HD
ENDROOT
BRANCH   4  13
ATOM     13  C   UNL     1       2.225   7.639  19.067  0.00  0.00    +0.000 A 
ATOM     14  C   UNL     1       1.618   8.808  18.634  0.00  0.00    +0.000 A 
ATOM     15  C   UNL     1       0.987   9.430  19.741  0.00  0.00    +0.000 A 
ATOM     16  C   UNL     1       0.234  10.609  19.893  0.00  0.00    +0.000 A 
ATOM     17  C   UNL     1      -0.260  10.945  21.156  0.00  0.00    +0.000 A 
ATOM     18  C   UNL     1      -0.009  10.126  22.255  0.00  0.00    +0.000 A 
ATOM     19  C   UNL     1       0.739   8.950  22.127  0.00  0.00    +0.000 A 
ATOM     20  C   UNL     1       1.222   8.625  20.852  0.00  0.00    +0.000 A 
ATOM     21  N   UNL     1       1.968   7.552  20.420  0.00  0.00    +0.000 N 
ATOM     22  H   UNL     1       2.295   6.793  21.004  0.00  0.00    +0.000 HD
ENDBRANCH   4  13
TORSDOF 1
ENDMDL
MODEL 9
REMARK VINA RESULT:      -7.8      4.828      5.963
REMARK  Name = 
REMARK  1 active torsions:
REMARK  status: ('A' for Active; 'I' for Inactive)
REMARK    1  A    between atoms: C_4  and  C_5
REMARK                            x       y       z     vdW  Elec       q    Type
REMARK                         _______ _______ _______ _____ _____    ______ ____
ROOT
ATOM      1  O   UNL     1       3.089   3.414  19.412  0.00  0.00    +0.000 OA
ATOM      2  C   UNL     1       3.159   4.577  19.034  0.00  0.00    +0.000 A 
ATOM      3  N   UNL     1       2.498   5.589  19.672  0.00  0.00    +0.000 N 
ATOM      4  C   UNL     1       2.529   6.897  19.262  0.00  0.00    +0.000 A 
ATOM      5  N   UNL     1       3.210   7.301  18.235  0.00  0.00    +0.000 NA
ATOM      6  C   UNL     1       3.949   6.335  17.519  0.00  0.00    +0.000 A 
ATOM      7  C   UNL     1       4.704   6.734  16.415  0.00  0.00    +0.000 A 
ATOM      8  C   UNL     1       5.439   5.797  15.677  0.00  0.00    +0.000 A 
ATOM      9  C   UNL     1       5.425   4.448  16.037  0.00  0.00    +0.000 A 
ATOM     10  C   UNL     1       4.681   4.035  17.136  0.00  0.00    +0.000 A 
ATOM     11  C   UNL     1       3.952   4.981  17.865  0.00  0.00    +0.000 A 
ATOM     12  H   UNL     1       1.952   5.311  20.471  0.00  0.00    +0.000 HD
ENDROOT
BRANCH   4  13
ATOM     13  C   UNL     1       1.750   7.831  20.035  0.00  0.00    +0.000 A 
ATOM     14  C   UNL     1       1.249   7.734  21.324  0.00  0.00    +0.000 A 
ATOM     15  C   UNL     1       0.543   8.925  21.629  0.00  0.00    +0.000 A 
ATOM     16  C   UNL     1      -0.153   9.377  22.765  0.00  0.00    +0.000 A 
ATOM     17  C   UNL     1      -0.753  10.638  22.741  0.00  0.00    +0.000 A 
ATOM     18  C   UNL     1      -0.667  11.441  21.605  0.00  0.00    +0.000 A 
ATOM     19  C   UNL     1       0.019  11.011  20.463  0.00  0.00    +0.000 A 
ATOM     20  C   UNL     1       0.619   9.745  20.507  0.00  0.00    +0.000 A 
ATOM     21  N   UNL     1       1.353   9.064  19.562  0.00  0.00    +0.000 N 
ATOM     22  H   UNL     1       1.578   9.408  18.637  0.00  0.00    +0.000 HD
ENDBRANCH   4  13
TORSDOF 1
ENDMDL
