MODEL 1
REMARK VINA RESULT:      -9.0      0.000      0.000
REMARK  Name = 
REMARK  5 active torsions:
REMARK  status: ('A' for Active; 'I' for Inactive)
REMARK    1  A    between atoms: C_1  and  C_2
REMARK    2  A    between atoms: C_6  and  N_7
REMARK    3  A    between atoms: N_7  and  C_8
REMARK    4  A    between atoms: C_8  and  C_9
REMARK    5  A    between atoms: C_14  and  C_15
REMARK                            x       y       z     vdW  Elec       q    Type
REMARK                         _______ _______ _______ _____ _____    ______ ____
ROOT
ATOM      1  C   UNL     1       5.429   4.614  17.652  0.00  0.00    +0.000 C 
ATOM      2  N   UNL     1       5.269   4.528  16.157  0.00  0.00    +0.000 NA
ATOM      3  C   UNL     1       6.459   4.550  15.659  0.00  0.00    +0.000 C 
ATOM      4  N   UNL     1       7.471   4.688  16.537  0.00  0.00    +0.000 N 
ATOM      5  C   UNL     1       6.958   4.666  17.795  0.00  0.00    +0.000 C 
ATOM      6  O   UNL     1       7.622   4.608  18.821  0.00  0.00    +0.000 OA
ATOM      7  H   UNL     1       8.461   4.628  16.353  0.00  0.00    +0.000 HD
ENDROOT
BRANCH   3   8
ATOM      8  C   UNL     1       6.719   4.426  14.215  0.00  0.00    +0.000 A 
ATOM      9  C   UNL     1       7.634   5.250  13.560  0.00  0.00    +0.000 A 
ATOM     10  C   UNL     1       7.806   5.128  12.178  0.00  0.00    +0.000 A 
ATOM     11  C   UNL     1       7.073   4.183  11.458  0.00  0.00    +0.000 A 
ATOM     12  C   UNL     1       6.165   3.354  12.114  0.00  0.00    +0.000 A 
ATOM     13  C   UNL     1       5.983   3.478  13.490  0.00  0.00    +0.000 A 
ENDBRANCH   3   8
BRANCH   1  14
ATOM     14  C   UNL     1       4.892   5.969  18.217  0.00  0.00    +0.000 C 
ATOM     15  F   UNL     1       3.654   6.276  17.757  0.00  0.00    +0.000 F 
ATOM     16  F   UNL     1       4.821   5.992  19.572  0.00  0.00    +0.000 F 
ATOM     17  F   UNL     1       5.698   7.010  17.872  0.00  0.00    +0.000 F 
ENDBRANCH   1  14
BRANCH   1  18
ATOM     18  N   UNL     1       4.956   3.411  18.345  0.00  0.00    +0.000 N 
ATOM     19  H   UNL     1       5.640   2.856  18.848  0.00  0.00    +0.000 HD
BRANCH  18  25
ATOM     20  C   UNL     1       1.988   2.751  21.943  0.00  0.00    +0.000 C 
ATOM     21  C   UNL     1       2.201   2.732  20.459  0.00  0.00    +0.000 A 
ATOM     22  C   UNL     1       1.189   2.312  19.610  0.00  0.00    +0.000 A 
ATOM     23  C   UNL     1       1.439   2.308  18.247  0.00  0.00    +0.000 A 
ATOM     24  C   UNL     1       2.688   2.708  17.784  0.00  0.00    +0.000 A 
ATOM     25  C   UNL     1       3.670   3.099  18.683  0.00  0.00    +0.000 A 
ATOM     26  N   UNL     1       3.422   3.124  20.009  0.00  0.00    +0.000 NA
ENDBRANCH  18  25
ENDBRANCH   1  18
TORSDOF 4
ENDMDL
MODEL 2
REMARK VINA RESULT:      -9.0      0.079      1.247
REMARK  Name = 
REMARK  5 active torsions:
REMARK  status: ('A' for Active; 'I' for Inactive)
REMARK    1  A    between atoms: C_1  and  C_2
REMARK    2  A    between atoms: C_6  and  N_7
REMARK    3  A    between atoms: N_7  and  C_8
REMARK    4  A    between atoms: C_8  and  C_9
REMARK    5  A    between atoms: C_14  and  C_15
REMARK                            x       y       z     vdW  Elec       q    Type
REMARK                         _______ _______ _______ _____ _____    ______ ____
ROOT
ATOM      1  C   UNL     1       5.458   4.603  17.672  0.00  0.00    +0.000 C 
ATOM      2  N   UNL     1       5.245   4.528  16.182  0.00  0.00    +0.000 NA
ATOM      3  C   UNL     1       6.417   4.539  15.644  0.00  0.00    +0.000 C 
ATOM      4  N   UNL     1       7.461   4.657  16.486  0.00  0.00    +0.000 N 
ATOM      5  C   UNL     1       6.992   4.634  17.762  0.00  0.00    +0.000 C 
ATOM      6  O   UNL     1       7.690   4.560  18.763  0.00  0.00    +0.000 OA
ATOM      7  H   UNL     1       8.443   4.586  16.267  0.00  0.00    +0.000 HD
ENDROOT
BRANCH   3   8
ATOM      8  C   UNL     1       6.624   4.421  14.190  0.00  0.00    +0.000 A 
ATOM      9  C   UNL     1       5.914   3.500  13.421  0.00  0.00    +0.000 A 
ATOM     10  C   UNL     1       6.184   3.391  12.053  0.00  0.00    +0.000 A 
ATOM     11  C   UNL     1       7.153   4.203  11.460  0.00  0.00    +0.000 A 
ATOM     12  C   UNL     1       7.856   5.128  12.228  0.00  0.00    +0.000 A 
ATOM     13  C   UNL     1       7.596   5.236  13.592  0.00  0.00    +0.000 A 
ENDBRANCH   3   8
BRANCH   1  14
ATOM     14  C   UNL     1       4.959   5.960  18.263  0.00  0.00    +0.000 C 
ATOM     15  F   UNL     1       5.735   7.010  17.896  0.00  0.00    +0.000 F 
ATOM     16  F   UNL     1       3.689   6.268  17.897  0.00  0.00    +0.000 F 
ATOM     17  F   UNL     1       4.957   5.943  19.624  0.00  0.00    +0.000 F 
ENDBRANCH   1  14
BRANCH   1  18
ATOM     18  N   UNL     1       4.994   3.401  18.373  0.00  0.00    +0.000 N 
ATOM     19  H   UNL     1       5.680   2.859  18.886  0.00  0.00    +0.000 HD
BRANCH  18  25
ATOM     20  C   UNL     1       1.988   2.824  21.955  0.00  0.00    +0.000 C 
ATOM     21  C   UNL     1       2.223   2.753  20.475  0.00  0.00    +0.000 A 
ATOM     22  C   UNL     1       1.230   2.281  19.630  0.00  0.00    +0.000 A 
ATOM     23  C   UNL     1       1.499   2.230  18.272  0.00  0.00    +0.000 A 
ATOM     24  C   UNL     1       2.747   2.635  17.810  0.00  0.00    +0.000 A 
ATOM     25  C   UNL     1       3.709   3.078  18.707  0.00  0.00    +0.000 A 
ATOM     26  N   UNL     1       3.443   3.150  20.027  0.00  0.00    +0.000 NA
ENDBRANCH  18  25
ENDBRANCH   1  18
TORSDOF 4
ENDMDL
MODEL 3
REMARK VINA RESULT:      -8.9      1.838      2.604
REMARK  Name = 
REMARK  5 active torsions:
REMARK  status: ('A' for Active; 'I' for Inactive)
REMARK    1  A    between atoms: C_1  and  C_2
REMARK    2  A    between atoms: C_6  and  N_7
REMARK    3  A    between atoms: N_7  and  C_8
REMARK    4  A    between atoms: C_8  and  C_9
REMARK    5  A    between atoms: C_14  and  C_15
REMARK                            x       y       z     vdW  Elec       q    Type
REMARK                         _______ _______ _______ _____ _____    ______ ____
ROOT
ATOM      1  C   UNL     1       6.670   6.137  17.552  0.00  0.00    +0.000 C 
ATOM      2  N   UNL     1       6.175   6.018  16.134  0.00  0.00    +0.000 NA
ATOM      3  C   UNL     1       6.779   5.000  15.620  0.00  0.00    +0.000 C 
ATOM      4  N   UNL     1       7.675   4.376  16.408  0.00  0.00    +0.000 N 
ATOM      5  C   UNL     1       7.638   4.947  17.641  0.00  0.00    +0.000 C 
ATOM      6  O   UNL     1       8.210   4.513  18.631  0.00  0.00    +0.000 OA
ATOM      7  H   UNL     1       8.167   3.516  16.223  0.00  0.00    +0.000 HD
ENDROOT
BRANCH   3   8
ATOM      8  C   UNL     1       6.513   4.527  14.251  0.00  0.00    +0.000 A 
ATOM      9  C   UNL     1       5.343   3.839  13.928  0.00  0.00    +0.000 A 
ATOM     10  C   UNL     1       5.160   3.365  12.625  0.00  0.00    +0.000 A 
ATOM     11  C   UNL     1       6.137   3.584  11.653  0.00  0.00    +0.000 A 
ATOM     12  C   UNL     1       7.301   4.278  11.974  0.00  0.00    +0.000 A 
ATOM     13  C   UNL     1       7.492   4.746  13.273  0.00  0.00    +0.000 A 
ENDBRANCH   3   8
BRANCH   1  14
ATOM     14  C   UNL     1       7.537   7.421  17.759  0.00  0.00    +0.000 C 
ATOM     15  F   UNL     1       8.341   7.341  18.849  0.00  0.00    +0.000 F 
ATOM     16  F   UNL     1       8.341   7.699  16.702  0.00  0.00    +0.000 F 
ATOM     17  F   UNL     1       6.762   8.526  17.934  0.00  0.00    +0.000 F 
ENDBRANCH   1  14
BRANCH   1  18
ATOM     18  N   UNL     1       5.610   5.926  18.543  0.00  0.00    +0.000 N 
ATOM     19  H   UNL     1       5.632   6.490  19.386  0.00  0.00    +0.000 HD
BRANCH  18  25
ATOM     20  C   UNL     1       3.477   1.752  18.079  0.00  0.00    +0.000 C 
ATOM     21  C   UNL     1       3.347   3.246  18.086  0.00  0.00    +0.000 A 
ATOM     22  C   UNL     1       2.130   3.845  17.798  0.00  0.00    +0.000 A 
ATOM     23  C   UNL     1       2.064   5.228  17.811  0.00  0.00    +0.000 A 
ATOM     24  C   UNL     1       3.212   5.961  18.095  0.00  0.00    +0.000 A 
ATOM     25  C   UNL     1       4.407   5.306  18.355  0.00  0.00    +0.000 A 
ATOM     26  N   UNL     1       4.469   3.959  18.364  0.00  0.00    +0.000 NA
ENDBRANCH  18  25
ENDBRANCH   1  18
TORSDOF 4
ENDMDL
MODEL 4
REMARK VINA RESULT:      -8.9      3.468      6.590
REMARK  Name = 
REMARK  5 active torsions:
REMARK  status: ('A' for Active; 'I' for Inactive)
REMARK    1  A    between atoms: C_1  and  C_2
REMARK    2  A    between atoms: C_6  and  N_7
REMARK    3  A    between atoms: N_7  and  C_8
REMARK    4  A    between atoms: C_8  and  C_9
REMARK    5  A    between atoms: C_14  and  C_15
REMARK                            x       y       z     vdW  Elec       q    Type
REMARK                         _______ _______ _______ _____ _____    ______ ____
ROOT
ATOM      1  C   UNL     1       2.533   3.947  19.594  0.00  0.00    +0.000 C 
ATOM      2  N   UNL     1       2.339   5.269  18.899  0.00  0.00    +0.000 NA
ATOM      3  C   UNL     1       2.049   6.127  19.818  0.00  0.00    +0.000 C 
ATOM      4  N   UNL     1       1.950   5.648  21.073  0.00  0.00    +0.000 N 
ATOM      5  C   UNL     1       2.296   4.334  21.063  0.00  0.00    +0.000 C 
ATOM      6  O   UNL     1       2.466   3.647  22.060  0.00  0.00    +0.000 OA
ATOM      7  H   UNL     1       1.831   6.172  21.926  0.00  0.00    +0.000 HD
ENDROOT
BRANCH   3   8
ATOM      8  C   UNL     1       1.842   7.556  19.533  0.00  0.00    +0.000 A 
ATOM      9  C   UNL     1       1.249   8.412  20.461  0.00  0.00    +0.000 A 
ATOM     10  C   UNL     1       1.027   9.750  20.123  0.00  0.00    +0.000 A 
ATOM     11  C   UNL     1       1.402  10.230  18.866  0.00  0.00    +0.000 A 
ATOM     12  C   UNL     1       2.001   9.377  17.942  0.00  0.00    +0.000 A 
ATOM     13  C   UNL     1       2.217   8.040  18.271  0.00  0.00    +0.000 A 
ENDBRANCH   3   8
BRANCH   1  14
ATOM     14  C   UNL     1       1.410   2.925  19.226  0.00  0.00    +0.000 C 
ATOM     15  F   UNL     1       1.840   1.639  19.252  0.00  0.00    +0.000 F 
ATOM     16  F   UNL     1       0.335   2.993  20.053  0.00  0.00    +0.000 F 
ATOM     17  F   UNL     1       0.926   3.142  17.973  0.00  0.00    +0.000 F 
ENDBRANCH   1  14
BRANCH   1  18
ATOM     18  N   UNL     1       3.906   3.442  19.481  0.00  0.00    +0.000 N 
ATOM     19  H   UNL     1       4.116   2.546  19.909  0.00  0.00    +0.000 HD
BRANCH  18  25
ATOM     20  C   UNL     1       7.907   5.889  19.044  0.00  0.00    +0.000 C 
ATOM     21  C   UNL     1       6.832   5.090  18.370  0.00  0.00    +0.000 A 
ATOM     22  C   UNL     1       6.831   4.938  16.991  0.00  0.00    +0.000 A 
ATOM     23  C   UNL     1       5.813   4.195  16.417  0.00  0.00    +0.000 A 
ATOM     24  C   UNL     1       4.829   3.645  17.233  0.00  0.00    +0.000 A 
ATOM     25  C   UNL     1       4.871   3.848  18.604  0.00  0.00    +0.000 A 
ATOM     26  N   UNL     1       5.873   4.553  19.169  0.00  0.00    +0.000 NA
ENDBRANCH  18  25
ENDBRANCH   1  18
TORSDOF 4
ENDMDL
MODEL 5
REMARK VINA RESULT:      -8.9      1.832      2.318
REMARK  Name = 
REMARK  5 active torsions:
REMARK  status: ('A' for Active; 'I' for Inactive)
REMARK    1  A    between atoms: C_1  and  C_2
REMARK    2  A    between atoms: C_6  and  N_7
REMARK    3  A    between atoms: N_7  and  C_8
REMARK    4  A    between atoms: C_8  and  C_9
REMARK    5  A    between atoms: C_14  and  C_15
REMARK                            x       y       z     vdW  Elec       q    Type
REMARK                         _______ _______ _______ _____ _____    ______ ____
ROOT
ATOM      1  C   UNL     1       6.647   6.090  17.535  0.00  0.00    +0.000 C 
ATOM      2  N   UNL     1       6.159   5.945  16.117  0.00  0.00    +0.000 NA
ATOM      3  C   UNL     1       6.762   4.915  15.626  0.00  0.00    +0.000 C 
ATOM      4  N   UNL     1       7.650   4.303  16.432  0.00  0.00    +0.000 N 
ATOM      5  C   UNL     1       7.610   4.898  17.653  0.00  0.00    +0.000 C 
ATOM      6  O   UNL     1       8.175   4.481  18.654  0.00  0.00    +0.000 OA
ATOM      7  H   UNL     1       8.140   3.437  16.266  0.00  0.00    +0.000 HD
ENDROOT
BRANCH   3   8
ATOM      8  C   UNL     1       6.500   4.416  14.266  0.00  0.00    +0.000 A 
ATOM      9  C   UNL     1       7.443   4.536  13.246  0.00  0.00    +0.000 A 
ATOM     10  C   UNL     1       7.127   4.093  11.958  0.00  0.00    +0.000 A 
ATOM     11  C   UNL     1       5.878   3.528  11.695  0.00  0.00    +0.000 A 
ATOM     12  C   UNL     1       4.938   3.400  12.717  0.00  0.00    +0.000 A 
ATOM     13  C   UNL     1       5.246   3.848  14.000  0.00  0.00    +0.000 A 
ENDBRANCH   3   8
BRANCH   1  14
ATOM     14  C   UNL     1       7.518   7.374  17.722  0.00  0.00    +0.000 C 
ATOM     15  F   UNL     1       6.773   8.495  17.887  0.00  0.00    +0.000 F 
ATOM     16  F   UNL     1       8.355   7.302  18.788  0.00  0.00    +0.000 F 
ATOM     17  F   UNL     1       8.316   7.599  16.642  0.00  0.00    +0.000 F 
ENDBRANCH   1  14
BRANCH   1  18
ATOM     18  N   UNL     1       5.581   5.903  18.525  0.00  0.00    +0.000 N 
ATOM     19  H   UNL     1       5.594   6.493  19.350  0.00  0.00    +0.000 HD
BRANCH  18  25
ATOM     20  C   UNL     1       3.487   1.704  18.117  0.00  0.00    +0.000 C 
ATOM     21  C   UNL     1       3.343   3.196  18.106  0.00  0.00    +0.000 A 
ATOM     22  C   UNL     1       2.119   3.780  17.815  0.00  0.00    +0.000 A 
ATOM     23  C   UNL     1       2.040   5.163  17.812  0.00  0.00    +0.000 A 
ATOM     24  C   UNL     1       3.182   5.910  18.084  0.00  0.00    +0.000 A 
ATOM     25  C   UNL     1       4.384   5.269  18.347  0.00  0.00    +0.000 A 
ATOM     26  N   UNL     1       4.459   3.923  18.373  0.00  0.00    +0.000 NA
ENDBRANCH  18  25
ENDBRANCH   1  18
TORSDOF 4
ENDMDL
MODEL 6
REMARK VINA RESULT:      -8.7      1.712      2.246
REMARK  Name = 
REMARK  5 active torsions:
REMARK  status: ('A' for Active; 'I' for Inactive)
REMARK    1  A    between atoms: C_1  and  C_2
REMARK    2  A    between atoms: C_6  and  N_7
REMARK    3  A    between atoms: N_7  and  C_8
REMARK    4  A    between atoms: C_8  and  C_9
REMARK    5  A    between atoms: C_14  and  C_15
REMARK                            x       y       z     vdW  Elec       q    Type
REMARK                         _______ _______ _______ _____ _____    ______ ____
ROOT
ATOM      1  C   UNL     1       6.684   6.284  17.459  0.00  0.00    +0.000 C 
ATOM      2  N   UNL     1       6.320   6.150  16.003  0.00  0.00    +0.000 NA
ATOM      3  C   UNL     1       6.924   5.095  15.571  0.00  0.00    +0.000 C 
ATOM      4  N   UNL     1       7.712   4.453  16.454  0.00  0.00    +0.000 N 
ATOM      5  C   UNL     1       7.586   5.056  17.665  0.00  0.00    +0.000 C 
ATOM      6  O   UNL     1       8.042   4.624  18.714  0.00  0.00    +0.000 OA
ATOM      7  H   UNL     1       8.181   3.568  16.334  0.00  0.00    +0.000 HD
ENDROOT
BRANCH   3   8
ATOM      8  C   UNL     1       6.765   4.599  14.193  0.00  0.00    +0.000 A 
ATOM      9  C   UNL     1       7.627   4.990  13.169  0.00  0.00    +0.000 A 
ATOM     10  C   UNL     1       7.403   4.531  11.867  0.00  0.00    +0.000 A 
ATOM     11  C   UNL     1       6.329   3.683  11.594  0.00  0.00    +0.000 A 
ATOM     12  C   UNL     1       5.473   3.286  12.619  0.00  0.00    +0.000 A 
ATOM     13  C   UNL     1       5.687   3.746  13.917  0.00  0.00    +0.000 A 
ENDBRANCH   3   8
BRANCH   1  14
ATOM     14  C   UNL     1       7.585   7.534  17.720  0.00  0.00    +0.000 C 
ATOM     15  F   UNL     1       8.356   7.404  18.828  0.00  0.00    +0.000 F 
ATOM     16  F   UNL     1       8.426   7.811  16.691  0.00  0.00    +0.000 F 
ATOM     17  F   UNL     1       6.841   8.659  17.901  0.00  0.00    +0.000 F 
ENDBRANCH   1  14
BRANCH   1  18
ATOM     18  N   UNL     1       5.528   6.144  18.350  0.00  0.00    +0.000 N 
ATOM     19  H   UNL     1       5.215   6.968  18.852  0.00  0.00    +0.000 HD
BRANCH  18  25
ATOM     20  C   UNL     1       4.324   2.059  20.364  0.00  0.00    +0.000 C 
ATOM     21  C   UNL     1       4.020   3.096  19.324  0.00  0.00    +0.000 A 
ATOM     22  C   UNL     1       2.973   2.909  18.433  0.00  0.00    +0.000 A 
ATOM     23  C   UNL     1       2.737   3.894  17.488  0.00  0.00    +0.000 A 
ATOM     24  C   UNL     1       3.558   5.016  17.456  0.00  0.00    +0.000 A 
ATOM     25  C   UNL     1       4.604   5.138  18.359  0.00  0.00    +0.000 A 
ATOM     26  N   UNL     1       4.823   4.191  19.295  0.00  0.00    +0.000 NA
ENDBRANCH  18  25
ENDBRANCH   1  18
TORSDOF 4
ENDMDL
MODEL 7
REMARK VINA RESULT:      -8.7      3.497      6.615
REMARK  Name = 
REMARK  5 active torsions:
REMARK  status: ('A' for Active; 'I' for Inactive)
REMARK    1  A    between atoms: C_1  and  C_2
REMARK    2  A    between atoms: C_6  and  N_7
REMARK    3  A    between atoms: N_7  and  C_8
REMARK    4  A    between atoms: C_8  and  C_9
REMARK    5  A    between atoms: C_14  and  C_15
REMARK                            x       y       z     vdW  Elec       q    Type
REMARK                         _______ _______ _______ _____ _____    ______ ____
ROOT
ATOM      1  C   UNL     1       2.621   4.138  19.529  0.00  0.00    +0.000 C 
ATOM      2  N   UNL     1       2.411   5.445  18.811  0.00  0.00    +0.000 NA
ATOM      3  C   UNL     1       2.040   6.299  19.706  0.00  0.00    +0.000 C 
ATOM      4  N   UNL     1       1.895   5.826  20.958  0.00  0.00    +0.000 N 
ATOM      5  C   UNL     1       2.293   4.526  20.979  0.00  0.00    +0.000 C 
ATOM      6  O   UNL     1       2.437   3.855  21.991  0.00  0.00    +0.000 OA
ATOM      7  H   UNL     1       1.711   6.351  21.799  0.00  0.00    +0.000 HD
ENDROOT
BRANCH   3   8
ATOM      8  C   UNL     1       1.793   7.717  19.396  0.00  0.00    +0.000 A 
ATOM      9  C   UNL     1       2.131   8.267  18.160  0.00  0.00    +0.000 A 
ATOM     10  C   UNL     1       1.923   9.631  17.932  0.00  0.00    +0.000 A 
ATOM     11  C   UNL     1       1.375  10.436  18.932  0.00  0.00    +0.000 A 
ATOM     12  C   UNL     1       1.030   9.884  20.164  0.00  0.00    +0.000 A 
ATOM     13  C   UNL     1       1.242   8.527  20.399  0.00  0.00    +0.000 A 
ENDBRANCH   3   8
BRANCH   1  14
ATOM     14  C   UNL     1       1.558   3.070  19.113  0.00  0.00    +0.000 C 
ATOM     15  F   UNL     1       2.009   1.798  19.253  0.00  0.00    +0.000 F 
ATOM     16  F   UNL     1       0.408   3.155  19.827  0.00  0.00    +0.000 F 
ATOM     17  F   UNL     1       1.194   3.206  17.809  0.00  0.00    +0.000 F 
ENDBRANCH   1  14
BRANCH   1  18
ATOM     18  N   UNL     1       4.016   3.686  19.492  0.00  0.00    +0.000 N 
ATOM     19  H   UNL     1       4.254   2.845  20.006  0.00  0.00    +0.000 HD
BRANCH  18  25
ATOM     20  C   UNL     1       8.021   6.107  18.957  0.00  0.00    +0.000 C 
ATOM     21  C   UNL     1       6.947   5.280  18.317  0.00  0.00    +0.000 A 
ATOM     22  C   UNL     1       6.950   5.067  16.946  0.00  0.00    +0.000 A 
ATOM     23  C   UNL     1       5.933   4.301  16.403  0.00  0.00    +0.000 A 
ATOM     24  C   UNL     1       4.946   3.788  17.239  0.00  0.00    +0.000 A 
ATOM     25  C   UNL     1       4.984   4.053  18.601  0.00  0.00    +0.000 A 
ATOM     26  N   UNL     1       5.985   4.780  19.136  0.00  0.00    +0.000 NA
ENDBRANCH  18  25
ENDBRANCH   1  18
TORSDOF 4
ENDMDL
MODEL 8
REMARK VINA RESULT:      -8.7      0.700      1.828
REMARK  Name = 
REMARK  5 active torsions:
REMARK  status: ('A' for Active; 'I' for Inactive)
REMARK    1  A    between atoms: C_1  and  C_2
REMARK    2  A    between atoms: C_6  and  N_7
REMARK    3  A    between atoms: N_7  and  C_8
REMARK    4  A    between atoms: C_8  and  C_9
REMARK    5  A    between atoms: C_14  and  C_15
REMARK                            x       y       z     vdW  Elec       q    Type
REMARK                         _______ _______ _______ _____ _____    ______ ____
ROOT
ATOM      1  C   UNL     1       5.357   4.386  17.864  0.00  0.00    +0.000 C 
ATOM      2  N   UNL     1       5.161   4.265  16.376  0.00  0.00    +0.000 NA
ATOM      3  C   UNL     1       6.317   4.458  15.837  0.00  0.00    +0.000 C 
ATOM      4  N   UNL     1       7.327   4.749  16.678  0.00  0.00    +0.000 N 
ATOM      5  C   UNL     1       6.866   4.663  17.954  0.00  0.00    +0.000 C 
ATOM      6  O   UNL     1       7.566   4.711  18.956  0.00  0.00    +0.000 OA
ATOM      7  H   UNL     1       8.308   4.835  16.460  0.00  0.00    +0.000 HD
ENDROOT
BRANCH   3   8
ATOM      8  C   UNL     1       6.542   4.362  14.385  0.00  0.00    +0.000 A 
ATOM      9  C   UNL     1       5.825   3.469  13.589  0.00  0.00    +0.000 A 
ATOM     10  C   UNL     1       6.112   3.378  12.223  0.00  0.00    +0.000 A 
ATOM     11  C   UNL     1       7.105   4.181  11.658  0.00  0.00    +0.000 A 
ATOM     12  C   UNL     1       7.815   5.079  12.452  0.00  0.00    +0.000 A 
ATOM     13  C   UNL     1       7.539   5.167  13.815  0.00  0.00    +0.000 A 
ENDBRANCH   3   8
BRANCH   1  14
ATOM     14  C   UNL     1       4.646   5.651  18.443  0.00  0.00    +0.000 C 
ATOM     15  F   UNL     1       5.156   6.810  17.955  0.00  0.00    +0.000 F 
ATOM     16  F   UNL     1       3.313   5.677  18.192  0.00  0.00    +0.000 F 
ATOM     17  F   UNL     1       4.768   5.719  19.797  0.00  0.00    +0.000 F 
ENDBRANCH   1  14
BRANCH   1  18
ATOM     18  N   UNL     1       5.090   3.132  18.577  0.00  0.00    +0.000 N 
ATOM     19  H   UNL     1       5.865   2.493  18.715  0.00  0.00    +0.000 HD
BRANCH  18  25
ATOM     20  C   UNL     1       0.432   2.432  18.618  0.00  0.00    +0.000 C 
ATOM     21  C   UNL     1       1.704   2.528  19.405  0.00  0.00    +0.000 A 
ATOM     22  C   UNL     1       1.680   2.441  20.789  0.00  0.00    +0.000 A 
ATOM     23  C   UNL     1       2.882   2.541  21.470  0.00  0.00    +0.000 A 
ATOM     24  C   UNL     1       4.057   2.738  20.751  0.00  0.00    +0.000 A 
ATOM     25  C   UNL     1       4.016   2.838  19.368  0.00  0.00    +0.000 A 
ATOM     26  N   UNL     1       2.850   2.720  18.700  0.00  0.00    +0.000 NA
ENDBRANCH  18  25
ENDBRANCH   1  18
TORSDOF 4
ENDMDL
MODEL 9
REMARK VINA RESULT:      -8.7      3.462      6.760
REMARK  Name = 
REMARK  5 active torsions:
REMARK  status: ('A' for Active; 'I' for Inactive)
REMARK    1  A    between atoms: C_1  and  C_2
REMARK    2  A    between atoms: C_6  and  N_7
REMARK    3  A    between atoms: N_7  and  C_8
REMARK    4  A    between atoms: C_8  and  C_9
REMARK    5  A    between atoms: C_14  and  C_15
REMARK                            x       y       z     vdW  Elec       q    Type
REMARK                         _______ _______ _______ _____ _____    ______ ____
ROOT
ATOM      1  C   UNL     1       2.829   4.328  19.426  0.00  0.00    +0.000 C 
ATOM      2  N   UNL     1       2.608   5.675  18.789  0.00  0.00    +0.000 NA
ATOM      3  C   UNL     1       2.119   6.438  19.707  0.00  0.00    +0.000 C 
ATOM      4  N   UNL     1       1.897   5.865  20.905  0.00  0.00    +0.000 N 
ATOM      5  C   UNL     1       2.362   4.588  20.867  0.00  0.00    +0.000 C 
ATOM      6  O   UNL     1       2.460   3.849  21.836  0.00  0.00    +0.000 OA
ATOM      7  H   UNL     1       1.616   6.315  21.763  0.00  0.00    +0.000 HD
ENDROOT
BRANCH   3   8
ATOM      8  C   UNL     1       1.820   7.862  19.480  0.00  0.00    +0.000 A 
ATOM      9  C   UNL     1       1.224   8.653  20.462  0.00  0.00    +0.000 A 
ATOM     10  C   UNL     1       0.913   9.986  20.180  0.00  0.00    +0.000 A 
ATOM     11  C   UNL     1       1.203  10.526  18.925  0.00  0.00    +0.000 A 
ATOM     12  C   UNL     1       1.806   9.738  17.947  0.00  0.00    +0.000 A 
ATOM     13  C   UNL     1       2.110   8.406  18.221  0.00  0.00    +0.000 A 
ENDBRANCH   3   8
BRANCH   1  14
ATOM     14  C   UNL     1       1.865   3.244  18.844  0.00  0.00    +0.000 C 
ATOM     15  F   UNL     1       2.278   1.979  19.106  0.00  0.00    +0.000 F 
ATOM     16  F   UNL     1       0.598   3.347  19.320  0.00  0.00    +0.000 F 
ATOM     17  F   UNL     1       1.760   3.341  17.491  0.00  0.00    +0.000 F 
ENDBRANCH   1  14
BRANCH   1  18
ATOM     18  N   UNL     1       4.245   3.949  19.477  0.00  0.00    +0.000 N 
ATOM     19  H   UNL     1       4.484   3.073  19.928  0.00  0.00    +0.000 HD
BRANCH  18  25
ATOM     20  C   UNL     1       6.200   3.947  15.190  0.00  0.00    +0.000 C 
ATOM     21  C   UNL     1       6.264   4.424  16.611  0.00  0.00    +0.000 A 
ATOM     22  C   UNL     1       7.342   5.179  17.048  0.00  0.00    +0.000 A 
ATOM     23  C   UNL     1       7.356   5.590  18.371  0.00  0.00    +0.000 A 
ATOM     24  C   UNL     1       6.308   5.223  19.209  0.00  0.00    +0.000 A 
ATOM     25  C   UNL     1       5.267   4.448  18.719  0.00  0.00    +0.000 A 
ATOM     26  N   UNL     1       5.239   4.065  17.427  0.00  0.00    +0.000 NA
ENDBRANCH  18  25
ENDBRANCH   1  18
TORSDOF 4
ENDMDL
