MODEL 1
REMARK VINA RESULT:      -6.3      0.000      0.000
REMARK  Name = 
REMARK  6 active torsions:
REMARK  status: ('A' for Active; 'I' for Inactive)
REMARK    1  A    between atoms: C_1  and  C_2
REMARK    2  A    between atoms: C_3  and  C_4
REMARK    3  A    between atoms: C_3  and  C_6
REMARK    4  A    between atoms: C_4  and  C_5
REMARK    5  A    between atoms: C_6  and  C_7
REMARK    6  A    between atoms: C_7  and  C_8
REMARK                            x       y       z     vdW  Elec       q    Type
REMARK                         _______ _______ _______ _____ _____    ______ ____
ROOT
ATOM      1  C   UNL     1       3.634   4.656  18.759  0.00  0.00    +0.000 C 
ATOM      2  C   UNL     1       3.079   4.166  17.418  0.00  0.00    +0.000 C 
ATOM      3  O   UNL     1       1.885   3.929  17.220  0.00  0.00    +0.000 OA
ATOM      4  N   UNL     1       3.955   4.037  16.375  0.00  0.00    +0.000 N 
ATOM      5  C   UNL     1       5.285   4.298  16.397  0.00  0.00    +0.000 C 
ATOM      6  S   UNL     1       6.219   4.141  15.033  0.00  0.00    +0.000 S 
ATOM      7  N   UNL     1       5.823   4.698  17.575  0.00  0.00    +0.000 N 
ATOM      8  C   UNL     1       5.144   4.926  18.747  0.00  0.00    +0.000 C 
ATOM      9  O   UNL     1       5.766   5.365  19.716  0.00  0.00    +0.000 OA
ATOM     10  H   UNL     1       3.545   3.743  15.496  0.00  0.00    +0.000 HD
ATOM     11  H   UNL     1       6.814   4.906  17.598  0.00  0.00    +0.000 HD
ENDROOT
BRANCH   1  14
ATOM     12  C   UNL     1       1.705   2.838  21.754  0.00  0.00    +0.000 C 
ATOM     13  C   UNL     1       2.273   3.733  20.701  0.00  0.00    +0.000 C 
ATOM     14  C   UNL     1       3.284   3.538  19.822  0.00  0.00    +0.000 C 
BRANCH  14  15
ATOM     15  C   UNL     1       4.127   2.263  19.705  0.00  0.00    +0.000 C 
ATOM     16  C   UNL     1       3.776   1.179  18.693  0.00  0.00    +0.000 C 
ENDBRANCH  14  15
ENDBRANCH   1  14
BRANCH   1  17
ATOM     17  C   UNL     1       2.969   6.040  19.058  0.00  0.00    +0.000 C 
ATOM     18  C   UNL     1       3.207   7.116  17.997  0.00  0.00    +0.000 C 
ENDBRANCH   1  17
TORSDOF 3
ENDMDL
MODEL 2
REMARK VINA RESULT:      -6.2      2.913      4.253
REMARK  Name = 
REMARK  6 active torsions:
REMARK  status: ('A' for Active; 'I' for Inactive)
REMARK    1  A    between atoms: C_1  and  C_2
REMARK    2  A    between atoms: C_3  and  C_4
REMARK    3  A    between atoms: C_3  and  C_6
REMARK    4  A    between atoms: C_4  and  C_5
REMARK    5  A    between atoms: C_6  and  C_7
REMARK    6  A    between atoms: C_7  and  C_8
REMARK                            x       y       z     vdW  Elec       q    Type
REMARK                         _______ _______ _______ _____ _____    ______ ____
ROOT
ATOM      1  C   UNL     1       5.204   5.293  17.122  0.00  0.00    +0.000 C 
ATOM      2  C   UNL     1       6.123   5.152  18.341  0.00  0.00    +0.000 C 
ATOM      3  O   UNL     1       6.109   4.176  19.094  0.00  0.00    +0.000 OA
ATOM      4  N   UNL     1       7.039   6.143  18.567  0.00  0.00    +0.000 N 
ATOM      5  C   UNL     1       7.228   7.257  17.819  0.00  0.00    +0.000 C 
ATOM      6  S   UNL     1       8.418   8.354  18.189  0.00  0.00    +0.000 S 
ATOM      7  N   UNL     1       6.410   7.440  16.753  0.00  0.00    +0.000 N 
ATOM      8  C   UNL     1       5.439   6.575  16.311  0.00  0.00    +0.000 C 
ATOM      9  O   UNL     1       4.829   6.847  15.276  0.00  0.00    +0.000 OA
ATOM     10  H   UNL     1       7.650   5.996  19.362  0.00  0.00    +0.000 HD
ATOM     11  H   UNL     1       6.551   8.264  16.183  0.00  0.00    +0.000 HD
ENDROOT
BRANCH   1  14
ATOM     12  C   UNL     1       1.528   3.886  17.830  0.00  0.00    +0.000 C 
ATOM     13  C   UNL     1       2.924   4.198  17.398  0.00  0.00    +0.000 C 
ATOM     14  C   UNL     1       3.722   5.256  17.675  0.00  0.00    +0.000 C 
BRANCH  14  15
ATOM     15  C   UNL     1       3.342   6.451  18.556  0.00  0.00    +0.000 C 
ATOM     16  C   UNL     1       2.410   7.542  18.040  0.00  0.00    +0.000 C 
ENDBRANCH  14  15
ENDBRANCH   1  14
BRANCH   1  17
ATOM     17  C   UNL     1       5.544   4.119  16.146  0.00  0.00    +0.000 C 
ATOM     18  C   UNL     1       6.909   4.217  15.464  0.00  0.00    +0.000 C 
ENDBRANCH   1  17
TORSDOF 3
ENDMDL
MODEL 3
REMARK VINA RESULT:      -6.1      0.844      3.501
REMARK  Name = 
REMARK  6 active torsions:
REMARK  status: ('A' for Active; 'I' for Inactive)
REMARK    1  A    between atoms: C_1  and  C_2
REMARK    2  A    between atoms: C_3  and  C_4
REMARK    3  A    between atoms: C_3  and  C_6
REMARK    4  A    between atoms: C_4  and  C_5
REMARK    5  A    between atoms: C_6  and  C_7
REMARK    6  A    between atoms: C_7  and  C_8
REMARK                            x       y       z     vdW  Elec       q    Type
REMARK                         _______ _______ _______ _____ _____    ______ ____
ROOT
ATOM      1  C   UNL     1       3.928   3.960  18.634  0.00  0.00    +0.000 C 
ATOM      2  C   UNL     1       5.403   4.370  18.687  0.00  0.00    +0.000 C 
ATOM      3  O   UNL     1       6.009   4.600  19.736  0.00  0.00    +0.000 OA
ATOM      4  N   UNL     1       6.091   4.430  17.506  0.00  0.00    +0.000 N 
ATOM      5  C   UNL     1       5.603   4.162  16.270  0.00  0.00    +0.000 C 
ATOM      6  S   UNL     1       6.574   4.230  14.924  0.00  0.00    +0.000 S 
ATOM      7  N   UNL     1       4.291   3.833  16.175  0.00  0.00    +0.000 N 
ATOM      8  C   UNL     1       3.410   3.681  17.217  0.00  0.00    +0.000 C 
ATOM      9  O   UNL     1       2.264   3.300  16.973  0.00  0.00    +0.000 OA
ATOM     10  H   UNL     1       7.072   4.671  17.586  0.00  0.00    +0.000 HD
ATOM     11  H   UNL     1       3.921   3.621  15.256  0.00  0.00    +0.000 HD
ENDROOT
BRANCH   1  14
ATOM     12  C   UNL     1       2.350   7.609  19.065  0.00  0.00    +0.000 C 
ATOM     13  C   UNL     1       3.074   6.356  18.694  0.00  0.00    +0.000 C 
ATOM     14  C   UNL     1       3.113   5.144  19.295  0.00  0.00    +0.000 C 
BRANCH  14  15
ATOM     15  C   UNL     1       2.367   4.764  20.580  0.00  0.00    +0.000 C 
ATOM     16  C   UNL     1       0.936   4.243  20.532  0.00  0.00    +0.000 C 
ENDBRANCH  14  15
ENDBRANCH   1  14
BRANCH   1  17
ATOM     17  C   UNL     1       3.796   2.601  19.397  0.00  0.00    +0.000 C 
ATOM     18  C   UNL     1       3.890   1.353  18.518  0.00  0.00    +0.000 C 
ENDBRANCH   1  17
TORSDOF 3
ENDMDL
MODEL 4
REMARK VINA RESULT:      -6.0      2.421      3.454
REMARK  Name = 
REMARK  6 active torsions:
REMARK  status: ('A' for Active; 'I' for Inactive)
REMARK    1  A    between atoms: C_1  and  C_2
REMARK    2  A    between atoms: C_3  and  C_4
REMARK    3  A    between atoms: C_3  and  C_6
REMARK    4  A    between atoms: C_4  and  C_5
REMARK    5  A    between atoms: C_6  and  C_7
REMARK    6  A    between atoms: C_7  and  C_8
REMARK                            x       y       z     vdW  Elec       q    Type
REMARK                         _______ _______ _______ _____ _____    ______ ____
ROOT
ATOM      1  C   UNL     1       6.080   5.513  17.340  0.00  0.00    +0.000 C 
ATOM      2  C   UNL     1       5.417   6.147  16.113  0.00  0.00    +0.000 C 
ATOM      3  O   UNL     1       4.455   6.916  16.179  0.00  0.00    +0.000 OA
ATOM      4  N   UNL     1       5.961   5.880  14.885  0.00  0.00    +0.000 N 
ATOM      5  C   UNL     1       7.040   5.102  14.630  0.00  0.00    +0.000 C 
ATOM      6  S   UNL     1       7.619   4.908  13.085  0.00  0.00    +0.000 S 
ATOM      7  N   UNL     1       7.633   4.491  15.685  0.00  0.00    +0.000 N 
ATOM      8  C   UNL     1       7.288   4.628  17.007  0.00  0.00    +0.000 C 
ATOM      9  O   UNL     1       7.977   4.066  17.861  0.00  0.00    +0.000 OA
ATOM     10  H   UNL     1       5.515   6.344  14.103  0.00  0.00    +0.000 HD
ATOM     11  H   UNL     1       8.448   3.917  15.504  0.00  0.00    +0.000 HD
ENDROOT
BRANCH   1  14
ATOM     12  C   UNL     1       3.513   2.513  17.982  0.00  0.00    +0.000 C 
ATOM     13  C   UNL     1       4.508   3.518  17.498  0.00  0.00    +0.000 C 
ATOM     14  C   UNL     1       4.958   4.663  18.063  0.00  0.00    +0.000 C 
BRANCH  14  15
ATOM     15  C   UNL     1       4.516   5.218  19.422  0.00  0.00    +0.000 C 
ATOM     16  C   UNL     1       3.152   5.874  19.596  0.00  0.00    +0.000 C 
ENDBRANCH  14  15
ENDBRANCH   1  14
BRANCH   1  17
ATOM     17  C   UNL     1       6.650   6.678  18.214  0.00  0.00    +0.000 C 
ATOM     18  C   UNL     1       7.635   7.603  17.498  0.00  0.00    +0.000 C 
ENDBRANCH   1  17
TORSDOF 3
ENDMDL
MODEL 5
REMARK VINA RESULT:      -6.0      1.359      3.371
REMARK  Name = 
REMARK  6 active torsions:
REMARK  status: ('A' for Active; 'I' for Inactive)
REMARK    1  A    between atoms: C_1  and  C_2
REMARK    2  A    between atoms: C_3  and  C_4
REMARK    3  A    between atoms: C_3  and  C_6
REMARK    4  A    between atoms: C_4  and  C_5
REMARK    5  A    between atoms: C_6  and  C_7
REMARK    6  A    between atoms: C_7  and  C_8
REMARK                            x       y       z     vdW  Elec       q    Type
REMARK                         _______ _______ _______ _____ _____    ______ ____
ROOT
ATOM      1  C   UNL     1       3.222   3.340  18.823  0.00  0.00    +0.000 C 
ATOM      2  C   UNL     1       4.638   3.399  19.405  0.00  0.00    +0.000 C 
ATOM      3  O   UNL     1       4.930   2.990  20.531  0.00  0.00    +0.000 OA
ATOM      4  N   UNL     1       5.636   3.887  18.605  0.00  0.00    +0.000 N 
ATOM      5  C   UNL     1       5.507   4.331  17.331  0.00  0.00    +0.000 C 
ATOM      6  S   UNL     1       6.823   4.851  16.461  0.00  0.00    +0.000 S 
ATOM      7  N   UNL     1       4.264   4.332  16.792  0.00  0.00    +0.000 N 
ATOM      8  C   UNL     1       3.116   3.867  17.386  0.00  0.00    +0.000 C 
ATOM      9  O   UNL     1       2.071   3.862  16.734  0.00  0.00    +0.000 OA
ATOM     10  H   UNL     1       6.563   3.878  19.013  0.00  0.00    +0.000 HD
ATOM     11  H   UNL     1       4.161   4.653  15.837  0.00  0.00    +0.000 HD
ENDROOT
BRANCH   1  14
ATOM     12  C   UNL     1       1.727   6.570  20.648  0.00  0.00    +0.000 C 
ATOM     13  C   UNL     1       2.475   5.535  19.871  0.00  0.00    +0.000 C 
ATOM     14  C   UNL     1       2.306   4.195  19.791  0.00  0.00    +0.000 C 
BRANCH  14  15
ATOM     15  C   UNL     1       1.234   3.386  20.530  0.00  0.00    +0.000 C 
ATOM     16  C   UNL     1       1.546   2.689  21.849  0.00  0.00    +0.000 C 
ENDBRANCH  14  15
ENDBRANCH   1  14
BRANCH   1  17
ATOM     17  C   UNL     1       2.816   1.832  18.741  0.00  0.00    +0.000 C 
ATOM     18  C   UNL     1       3.902   0.897  18.206  0.00  0.00    +0.000 C 
ENDBRANCH   1  17
TORSDOF 3
ENDMDL
MODEL 6
REMARK VINA RESULT:      -5.9      2.799      4.409
REMARK  Name = 
REMARK  6 active torsions:
REMARK  status: ('A' for Active; 'I' for Inactive)
REMARK    1  A    between atoms: C_1  and  C_2
REMARK    2  A    between atoms: C_3  and  C_4
REMARK    3  A    between atoms: C_3  and  C_6
REMARK    4  A    between atoms: C_4  and  C_5
REMARK    5  A    between atoms: C_6  and  C_7
REMARK    6  A    between atoms: C_7  and  C_8
REMARK                            x       y       z     vdW  Elec       q    Type
REMARK                         _______ _______ _______ _____ _____    ______ ____
ROOT
ATOM      1  C   UNL     1       3.401   4.475  18.043  0.00  0.00    +0.000 C 
ATOM      2  C   UNL     1       1.904   4.159  18.137  0.00  0.00    +0.000 C 
ATOM      3  O   UNL     1       1.122   4.277  17.191  0.00  0.00    +0.000 OA
ATOM      4  N   UNL     1       1.429   3.673  19.325  0.00  0.00    +0.000 N 
ATOM      5  C   UNL     1       2.149   3.435  20.448  0.00  0.00    +0.000 C 
ATOM      6  S   UNL     1       1.442   2.793  21.807  0.00  0.00    +0.000 S 
ATOM      7  N   UNL     1       3.470   3.736  20.419  0.00  0.00    +0.000 N 
ATOM      8  C   UNL     1       4.176   4.206  19.339  0.00  0.00    +0.000 C 
ATOM      9  O   UNL     1       5.395   4.359  19.448  0.00  0.00    +0.000 OA
ATOM     10  H   UNL     1       0.442   3.445  19.337  0.00  0.00    +0.000 HD
ATOM     11  H   UNL     1       4.017   3.551  21.251  0.00  0.00    +0.000 HD
ENDROOT
BRANCH   1  14
ATOM     12  C   UNL     1       2.599   8.393  18.048  0.00  0.00    +0.000 C 
ATOM     13  C   UNL     1       2.676   6.909  18.202  0.00  0.00    +0.000 C 
ATOM     14  C   UNL     1       3.510   6.001  17.642  0.00  0.00    +0.000 C 
BRANCH  14  15
ATOM     15  C   UNL     1       4.640   6.321  16.657  0.00  0.00    +0.000 C 
ATOM     16  C   UNL     1       5.961   6.907  17.141  0.00  0.00    +0.000 C 
ENDBRANCH  14  15
ENDBRANCH   1  14
BRANCH   1  17
ATOM     17  C   UNL     1       4.014   3.500  16.985  0.00  0.00    +0.000 C 
ATOM     18  C   UNL     1       3.858   2.013  17.306  0.00  0.00    +0.000 C 
ENDBRANCH   1  17
TORSDOF 3
ENDMDL
MODEL 7
REMARK VINA RESULT:      -5.9      2.791      4.035
REMARK  Name = 
REMARK  6 active torsions:
REMARK  status: ('A' for Active; 'I' for Inactive)
REMARK    1  A    between atoms: C_1  and  C_2
REMARK    2  A    between atoms: C_3  and  C_4
REMARK    3  A    between atoms: C_3  and  C_6
REMARK    4  A    between atoms: C_4  and  C_5
REMARK    5  A    between atoms: C_6  and  C_7
REMARK    6  A    between atoms: C_7  and  C_8
REMARK                            x       y       z     vdW  Elec       q    Type
REMARK                         _______ _______ _______ _____ _____    ______ ____
ROOT
ATOM      1  C   UNL     1       5.532   5.296  16.918  0.00  0.00    +0.000 C 
ATOM      2  C   UNL     1       6.559   5.210  18.053  0.00  0.00    +0.000 C 
ATOM      3  O   UNL     1       6.751   4.192  18.722  0.00  0.00    +0.000 OA
ATOM      4  N   UNL     1       7.335   6.311  18.295  0.00  0.00    +0.000 N 
ATOM      5  C   UNL     1       7.295   7.491  17.630  0.00  0.00    +0.000 C 
ATOM      6  S   UNL     1       8.338   8.728  18.004  0.00  0.00    +0.000 S 
ATOM      7  N   UNL     1       6.375   7.622  16.644  0.00  0.00    +0.000 N 
ATOM      8  C   UNL     1       5.509   6.652  16.202  0.00  0.00    +0.000 C 
ATOM      9  O   UNL     1       4.782   6.901  15.238  0.00  0.00    +0.000 OA
ATOM     10  H   UNL     1       8.024   6.203  19.029  0.00  0.00    +0.000 HD
ATOM     11  H   UNL     1       6.346   8.497  16.135  0.00  0.00    +0.000 HD
ENDROOT
BRANCH   1  14
ATOM     12  C   UNL     1       2.275   5.848  19.173  0.00  0.00    +0.000 C 
ATOM     13  C   UNL     1       3.589   5.861  18.461  0.00  0.00    +0.000 C 
ATOM     14  C   UNL     1       4.122   4.993  17.569  0.00  0.00    +0.000 C 
BRANCH  14  15
ATOM     15  C   UNL     1       3.446   3.716  17.057  0.00  0.00    +0.000 C 
ATOM     16  C   UNL     1       3.410   2.452  17.907  0.00  0.00    +0.000 C 
ENDBRANCH  14  15
ENDBRANCH   1  14
BRANCH   1  17
ATOM     17  C   UNL     1       5.958   4.259  15.828  0.00  0.00    +0.000 C 
ATOM     18  C   UNL     1       7.158   4.674  14.974  0.00  0.00    +0.000 C 
ENDBRANCH   1  17
TORSDOF 3
ENDMDL
MODEL 8
REMARK VINA RESULT:      -5.9      2.507      3.163
REMARK  Name = 
REMARK  6 active torsions:
REMARK  status: ('A' for Active; 'I' for Inactive)
REMARK    1  A    between atoms: C_1  and  C_2
REMARK    2  A    between atoms: C_3  and  C_4
REMARK    3  A    between atoms: C_3  and  C_6
REMARK    4  A    between atoms: C_4  and  C_5
REMARK    5  A    between atoms: C_6  and  C_7
REMARK    6  A    between atoms: C_7  and  C_8
REMARK                            x       y       z     vdW  Elec       q    Type
REMARK                         _______ _______ _______ _____ _____    ______ ____
ROOT
ATOM      1  C   UNL     1       3.984   4.653  17.989  0.00  0.00    +0.000 C 
ATOM      2  C   UNL     1       4.861   3.772  18.885  0.00  0.00    +0.000 C 
ATOM      3  O   UNL     1       4.549   2.632  19.234  0.00  0.00    +0.000 OA
ATOM      4  N   UNL     1       6.078   4.267  19.270  0.00  0.00    +0.000 N 
ATOM      5  C   UNL     1       6.601   5.473  18.941  0.00  0.00    +0.000 C 
ATOM      6  S   UNL     1       8.120   5.921  19.444  0.00  0.00    +0.000 S 
ATOM      7  N   UNL     1       5.841   6.298  18.181  0.00  0.00    +0.000 N 
ATOM      8  C   UNL     1       4.606   6.014  17.652  0.00  0.00    +0.000 C 
ATOM      9  O   UNL     1       4.072   6.843  16.913  0.00  0.00    +0.000 OA
ATOM     10  H   UNL     1       6.642   3.642  19.833  0.00  0.00    +0.000 HD
ATOM     11  H   UNL     1       6.230   7.197  17.922  0.00  0.00    +0.000 HD
ENDROOT
BRANCH   1  14
ATOM     12  C   UNL     1       1.406   6.063  20.702  0.00  0.00    +0.000 C 
ATOM     13  C   UNL     1       2.558   5.663  19.838  0.00  0.00    +0.000 C 
ATOM     14  C   UNL     1       2.615   4.848  18.759  0.00  0.00    +0.000 C 
BRANCH  14  15
ATOM     15  C   UNL     1       1.426   4.105  18.141  0.00  0.00    +0.000 C 
ATOM     16  C   UNL     1       0.954   2.770  18.706  0.00  0.00    +0.000 C 
ENDBRANCH  14  15
ENDBRANCH   1  14
BRANCH   1  17
ATOM     17  C   UNL     1       3.835   3.916  16.617  0.00  0.00    +0.000 C 
ATOM     18  C   UNL     1       5.124   3.797  15.803  0.00  0.00    +0.000 C 
ENDBRANCH   1  17
TORSDOF 3
ENDMDL
MODEL 9
REMARK VINA RESULT:      -5.9      2.390      3.124
REMARK  Name = 
REMARK  6 active torsions:
REMARK  status: ('A' for Active; 'I' for Inactive)
REMARK    1  A    between atoms: C_1  and  C_2
REMARK    2  A    between atoms: C_3  and  C_4
REMARK    3  A    between atoms: C_3  and  C_6
REMARK    4  A    between atoms: C_4  and  C_5
REMARK    5  A    between atoms: C_6  and  C_7
REMARK    6  A    between atoms: C_7  and  C_8
REMARK                            x       y       z     vdW  Elec       q    Type
REMARK                         _______ _______ _______ _____ _____    ______ ____
ROOT
ATOM      1  C   UNL     1       6.064   5.587  17.400  0.00  0.00    +0.000 C 
ATOM      2  C   UNL     1       5.403   6.195  16.158  0.00  0.00    +0.000 C 
ATOM      3  O   UNL     1       4.467   6.996  16.208  0.00  0.00    +0.000 OA
ATOM      4  N   UNL     1       5.921   5.865  14.935  0.00  0.00    +0.000 N 
ATOM      5  C   UNL     1       6.973   5.045  14.696  0.00  0.00    +0.000 C 
ATOM      6  S   UNL     1       7.524   4.775  13.153  0.00  0.00    +0.000 S 
ATOM      7  N   UNL     1       7.562   4.457  15.766  0.00  0.00    +0.000 N 
ATOM      8  C   UNL     1       7.240   4.654  17.086  0.00  0.00    +0.000 C 
ATOM      9  O   UNL     1       7.923   4.103  17.951  0.00  0.00    +0.000 OA
ATOM     10  H   UNL     1       5.479   6.314  14.141  0.00  0.00    +0.000 HD
ATOM     11  H   UNL     1       8.355   3.851  15.596  0.00  0.00    +0.000 HD
ENDROOT
BRANCH   1  14
ATOM     12  C   UNL     1       3.342   4.788  20.220  0.00  0.00    +0.000 C 
ATOM     13  C   UNL     1       4.434   5.289  19.332  0.00  0.00    +0.000 C 
ATOM     14  C   UNL     1       4.927   4.801  18.170  0.00  0.00    +0.000 C 
BRANCH  14  15
ATOM     15  C   UNL     1       4.436   3.535  17.458  0.00  0.00    +0.000 C 
ATOM     16  C   UNL     1       2.974   3.376  17.058  0.00  0.00    +0.000 C 
ENDBRANCH  14  15
ENDBRANCH   1  14
BRANCH   1  17
ATOM     17  C   UNL     1       6.681   6.767  18.222  0.00  0.00    +0.000 C 
ATOM     18  C   UNL     1       7.666   7.647  17.451  0.00  0.00    +0.000 C 
ENDBRANCH   1  17
TORSDOF 3
ENDMDL
