MODEL 1
REMARK VINA RESULT:      -8.5      0.000      0.000
REMARK  Name = 
REMARK  12 active torsions:
REMARK  status: ('A' for Active; 'I' for Inactive)
REMARK    1  A    between atoms: C_1  and  O_2
REMARK    2  A    between atoms: O_2  and  C_3
REMARK    3  A    between atoms: C_6  and  C_7
REMARK    4  A    between atoms: C_10  and  C_11
REMARK    5  A    between atoms: N_13  and  N_14
REMARK    6  A    between atoms: N_14  and  C_15
REMARK    7  A    between atoms: C_15  and  N_17
REMARK    8  A    between atoms: N_17  and  C_18
REMARK    9  A    between atoms: C_21  and  C_22
REMARK   10  A    between atoms: C_25  and  C_26
REMARK   11  A    between atoms: C_29  and  O_30
REMARK   12  A    between atoms: O_30  and  C_31
REMARK                            x       y       z     vdW  Elec       q    Type
REMARK                         _______ _______ _______ _____ _____    ______ ____
ROOT
ATOM      1  C   UNL     1      -0.887  11.169  22.440  0.00  0.00    +0.000 A 
ATOM      2  C   UNL     1      -0.326  10.096  23.124  0.00  0.00    +0.000 A 
ATOM      3  C   UNL     1       0.434   9.167  22.417  0.00  0.00    +0.000 A 
ATOM      4  C   UNL     1       0.627   9.320  21.040  0.00  0.00    +0.000 A 
ATOM      5  C   UNL     1      -0.003  10.389  20.405  0.00  0.00    +0.000 A 
ATOM      6  C   UNL     1       0.036  10.657  18.932  0.00  0.00    +0.000 C 
ATOM      7  N   UNL     1      -0.732  11.306  21.099  0.00  0.00    +0.000 NA
ENDROOT
BRANCH   1  11
ATOM      8  C   UNL     1      -3.357  14.240  24.202  0.00  0.00    +0.000 A 
ATOM      9  C   UNL     1      -2.024  14.494  23.860  0.00  0.00    +0.000 A 
ATOM     10  C   UNL     1      -1.226  13.495  23.299  0.00  0.00    +0.000 A 
ATOM     11  C   UNL     1      -1.718  12.199  23.092  0.00  0.00    +0.000 A 
ATOM     12  C   UNL     1      -3.024  11.937  23.536  0.00  0.00    +0.000 A 
ATOM     13  C   UNL     1      -3.848  12.932  24.090  0.00  0.00    +0.000 A 
BRANCH   8  15
ATOM     14  C   UNL     1      -4.541  16.233  23.722  0.00  0.00    +0.000 C 
ATOM     15  O   UNL     1      -4.167  15.238  24.674  0.00  0.00    +0.000 OA
ENDBRANCH   8  15
BRANCH  13  16
ATOM     16  O   UNL     1      -5.081  12.439  24.427  0.00  0.00    +0.000 OA
ATOM     17  C   UNL     1      -6.214  12.839  23.672  0.00  0.00    +0.000 C 
ENDBRANCH  13  16
ENDBRANCH   1  11
BRANCH   4  18
ATOM     18  C   UNL     1       1.435   8.278  20.370  0.00  0.00    +0.000 C 
ATOM     19  O   UNL     1       1.872   8.476  19.238  0.00  0.00    +0.000 OA
ATOM     20  N   UNL     1       1.631   7.087  21.043  0.00  0.00    +0.000 N 
ATOM     21  H   UNL     1       1.280   6.876  21.973  0.00  0.00    +0.000 HD
BRANCH  20  22
ATOM     22  N   UNL     1       2.525   6.185  20.477  0.00  0.00    +0.000 N 
ATOM     23  H   UNL     1       3.492   6.514  20.387  0.00  0.00    +0.000 HD
BRANCH  22  24
ATOM     24  C   UNL     1       2.163   4.969  19.966  0.00  0.00    +0.000 C 
ATOM     25  S   UNL     1       1.739   3.637  20.879  0.00  0.00    +0.000 S 
BRANCH  24  26
ATOM     26  N   UNL     1       2.135   4.900  18.589  0.00  0.00    +0.000 N 
ATOM     27  H   UNL     1       1.264   4.576  18.183  0.00  0.00    +0.000 HD
BRANCH  26  28
ATOM     28  C   UNL     1       3.250   4.950  17.725  0.00  0.00    +0.000 A 
ATOM     29  C   UNL     1       3.891   6.154  17.408  0.00  0.00    +0.000 A 
ATOM     30  C   UNL     1       5.012   6.172  16.579  0.00  0.00    +0.000 A 
ATOM     31  C   UNL     1       5.513   4.984  16.047  0.00  0.00    +0.000 A 
ATOM     32  C   UNL     1       6.710   4.996  15.143  0.00  0.00    +0.000 C 
ATOM     33  C   UNL     1       4.892   3.774  16.383  0.00  0.00    +0.000 A 
ATOM     34  C   UNL     1       3.774   3.756  17.232  0.00  0.00    +0.000 A 
ENDBRANCH  26  28
ENDBRANCH  24  26
ENDBRANCH  22  24
ENDBRANCH  20  22
ENDBRANCH   4  18
TORSDOF 8
ENDMDL
MODEL 2
REMARK VINA RESULT:      -8.2      3.360     10.849
REMARK  Name = 
REMARK  12 active torsions:
REMARK  status: ('A' for Active; 'I' for Inactive)
REMARK    1  A    between atoms: C_1  and  O_2
REMARK    2  A    between atoms: O_2  and  C_3
REMARK    3  A    between atoms: C_6  and  C_7
REMARK    4  A    between atoms: C_10  and  C_11
REMARK    5  A    between atoms: N_13  and  N_14
REMARK    6  A    between atoms: N_14  and  C_15
REMARK    7  A    between atoms: C_15  and  N_17
REMARK    8  A    between atoms: N_17  and  C_18
REMARK    9  A    between atoms: C_21  and  C_22
REMARK   10  A    between atoms: C_25  and  C_26
REMARK   11  A    between atoms: C_29  and  O_30
REMARK   12  A    between atoms: O_30  and  C_31
REMARK                            x       y       z     vdW  Elec       q    Type
REMARK                         _______ _______ _______ _____ _____    ______ ____
ROOT
ATOM      1  C   UNL     1       2.304   7.383  19.202  0.00  0.00    +0.000 A 
ATOM      2  C   UNL     1       2.324   8.083  18.001  0.00  0.00    +0.000 A 
ATOM      3  C   UNL     1       1.756   9.354  17.950  0.00  0.00    +0.000 A 
ATOM      4  C   UNL     1       1.178   9.912  19.096  0.00  0.00    +0.000 A 
ATOM      5  C   UNL     1       1.147   9.139  20.255  0.00  0.00    +0.000 A 
ATOM      6  C   UNL     1       0.504   9.550  21.544  0.00  0.00    +0.000 C 
ATOM      7  N   UNL     1       1.717   7.904  20.309  0.00  0.00    +0.000 NA
ENDROOT
BRANCH   1  11
ATOM      8  C   UNL     1       3.894   3.382  19.511  0.00  0.00    +0.000 A 
ATOM      9  C   UNL     1       2.564   3.658  19.850  0.00  0.00    +0.000 A 
ATOM     10  C   UNL     1       2.057   4.955  19.757  0.00  0.00    +0.000 A 
ATOM     11  C   UNL     1       2.866   6.029  19.358  0.00  0.00    +0.000 A 
ATOM     12  C   UNL     1       4.222   5.748  19.122  0.00  0.00    +0.000 A 
ATOM     13  C   UNL     1       4.748   4.446  19.195  0.00  0.00    +0.000 A 
BRANCH   8  15
ATOM     14  C   UNL     1       3.769   1.208  18.582  0.00  0.00    +0.000 C 
ATOM     15  O   UNL     1       4.372   2.099  19.520  0.00  0.00    +0.000 OA
ENDBRANCH   8  15
BRANCH  13  16
ATOM     16  O   UNL     1       6.087   4.425  18.904  0.00  0.00    +0.000 OA
ATOM     17  C   UNL     1       6.501   4.543  17.552  0.00  0.00    +0.000 C 
ENDBRANCH  13  16
ENDBRANCH   1  11
BRANCH   4  18
ATOM     18  C   UNL     1       0.585  11.258  18.944  0.00  0.00    +0.000 C 
ATOM     19  O   UNL     1      -0.607  11.375  18.665  0.00  0.00    +0.000 OA
ATOM     20  N   UNL     1       1.424  12.347  19.084  0.00  0.00    +0.000 N 
ATOM     21  H   UNL     1       2.415  12.299  19.303  0.00  0.00    +0.000 HD
BRANCH  20  22
ATOM     22  N   UNL     1       0.826  13.603  19.105  0.00  0.00    +0.000 N 
ATOM     23  H   UNL     1       0.921  14.156  18.247  0.00  0.00    +0.000 HD
BRANCH  22  24
ATOM     24  C   UNL     1       0.228  14.146  20.210  0.00  0.00    +0.000 C 
ATOM     25  S   UNL     1       1.037  14.910  21.455  0.00  0.00    +0.000 S 
BRANCH  24  26
ATOM     26  N   UNL     1      -1.148  14.054  20.234  0.00  0.00    +0.000 N 
ATOM     27  H   UNL     1      -1.633  14.529  19.481  0.00  0.00    +0.000 HD
BRANCH  26  28
ATOM     28  C   UNL     1      -1.939  13.629  21.323  0.00  0.00    +0.000 A 
ATOM     29  C   UNL     1      -1.804  12.356  21.889  0.00  0.00    +0.000 A 
ATOM     30  C   UNL     1      -2.575  11.974  22.986  0.00  0.00    +0.000 A 
ATOM     31  C   UNL     1      -3.500  12.860  23.538  0.00  0.00    +0.000 A 
ATOM     32  C   UNL     1      -4.343  12.452  24.710  0.00  0.00    +0.000 C 
ATOM     33  C   UNL     1      -3.620  14.145  22.993  0.00  0.00    +0.000 A 
ATOM     34  C   UNL     1      -2.831  14.533  21.899  0.00  0.00    +0.000 A 
ENDBRANCH  26  28
ENDBRANCH  24  26
ENDBRANCH  22  24
ENDBRANCH  20  22
ENDBRANCH   4  18
TORSDOF 8
ENDMDL
MODEL 3
REMARK VINA RESULT:      -8.2      3.191      5.059
REMARK  Name = 
REMARK  12 active torsions:
REMARK  status: ('A' for Active; 'I' for Inactive)
REMARK    1  A    between atoms: C_1  and  O_2
REMARK    2  A    between atoms: O_2  and  C_3
REMARK    3  A    between atoms: C_6  and  C_7
REMARK    4  A    between atoms: C_10  and  C_11
REMARK    5  A    between atoms: N_13  and  N_14
REMARK    6  A    between atoms: N_14  and  C_15
REMARK    7  A    between atoms: C_15  and  N_17
REMARK    8  A    between atoms: N_17  and  C_18
REMARK    9  A    between atoms: C_21  and  C_22
REMARK   10  A    between atoms: C_25  and  C_26
REMARK   11  A    between atoms: C_29  and  O_30
REMARK   12  A    between atoms: O_30  and  C_31
REMARK                            x       y       z     vdW  Elec       q    Type
REMARK                         _______ _______ _______ _____ _____    ______ ____
ROOT
ATOM      1  C   UNL     1       1.279   9.072  19.159  0.00  0.00    +0.000 A 
ATOM      2  C   UNL     1       2.135   9.069  18.063  0.00  0.00    +0.000 A 
ATOM      3  C   UNL     1       2.940   7.955  17.838  0.00  0.00    +0.000 A 
ATOM      4  C   UNL     1       2.880   6.858  18.704  0.00  0.00    +0.000 A 
ATOM      5  C   UNL     1       2.037   6.943  19.810  0.00  0.00    +0.000 A 
ATOM      6  C   UNL     1       1.907   5.897  20.874  0.00  0.00    +0.000 C 
ATOM      7  N   UNL     1       1.239   8.026  20.022  0.00  0.00    +0.000 NA
ENDROOT
BRANCH   1  11
ATOM      8  C   UNL     1      -1.392  12.290  20.229  0.00  0.00    +0.000 A 
ATOM      9  C   UNL     1      -1.688  11.431  19.165  0.00  0.00    +0.000 A 
ATOM     10  C   UNL     1      -0.817  10.396  18.816  0.00  0.00    +0.000 A 
ATOM     11  C   UNL     1       0.397  10.206  19.493  0.00  0.00    +0.000 A 
ATOM     12  C   UNL     1       0.722  11.140  20.489  0.00  0.00    +0.000 A 
ATOM     13  C   UNL     1      -0.148  12.179  20.865  0.00  0.00    +0.000 A 
BRANCH   8  15
ATOM     14  C   UNL     1      -3.060  12.933  21.781  0.00  0.00    +0.000 C 
ATOM     15  O   UNL     1      -2.281  13.252  20.628  0.00  0.00    +0.000 OA
ENDBRANCH   8  15
BRANCH  13  16
ATOM     16  O   UNL     1       0.383  12.945  21.869  0.00  0.00    +0.000 OA
ATOM     17  C   UNL     1       0.965  14.198  21.546  0.00  0.00    +0.000 C 
ENDBRANCH  13  16
ENDBRANCH   1  11
BRANCH   4  18
ATOM     18  C   UNL     1       3.782   5.727  18.395  0.00  0.00    +0.000 C 
ATOM     19  O   UNL     1       4.538   5.293  19.262  0.00  0.00    +0.000 OA
ATOM     20  N   UNL     1       3.762   5.224  17.108  0.00  0.00    +0.000 N 
ATOM     21  H   UNL     1       3.162   5.557  16.359  0.00  0.00    +0.000 HD
BRANCH  20  22
ATOM     22  N   UNL     1       4.487   4.060  16.877  0.00  0.00    +0.000 N 
ATOM     23  H   UNL     1       4.077   3.198  17.252  0.00  0.00    +0.000 HD
BRANCH  22  24
ATOM     24  C   UNL     1       5.721   4.033  16.286  0.00  0.00    +0.000 C 
ATOM     25  S   UNL     1       5.993   3.802  14.655  0.00  0.00    +0.000 S 
BRANCH  24  26
ATOM     26  N   UNL     1       6.782   4.246  17.140  0.00  0.00    +0.000 N 
ATOM     27  H   UNL     1       7.106   3.432  17.651  0.00  0.00    +0.000 HD
BRANCH  26  28
ATOM     28  C   UNL     1       7.261   5.498  17.584  0.00  0.00    +0.000 A 
ATOM     29  C   UNL     1       7.952   5.643  18.793  0.00  0.00    +0.000 A 
ATOM     30  C   UNL     1       8.443   6.885  19.193  0.00  0.00    +0.000 A 
ATOM     31  C   UNL     1       8.251   8.009  18.389  0.00  0.00    +0.000 A 
ATOM     32  C   UNL     1       8.765   9.352  18.818  0.00  0.00    +0.000 C 
ATOM     33  C   UNL     1       7.585   7.865  17.166  0.00  0.00    +0.000 A 
ATOM     34  C   UNL     1       7.105   6.609  16.757  0.00  0.00    +0.000 A 
ENDBRANCH  26  28
ENDBRANCH  24  26
ENDBRANCH  22  24
ENDBRANCH  20  22
ENDBRANCH   4  18
TORSDOF 8
ENDMDL
MODEL 4
REMARK VINA RESULT:      -8.2      3.628     10.646
REMARK  Name = 
REMARK  12 active torsions:
REMARK  status: ('A' for Active; 'I' for Inactive)
REMARK    1  A    between atoms: C_1  and  O_2
REMARK    2  A    between atoms: O_2  and  C_3
REMARK    3  A    between atoms: C_6  and  C_7
REMARK    4  A    between atoms: C_10  and  C_11
REMARK    5  A    between atoms: N_13  and  N_14
REMARK    6  A    between atoms: N_14  and  C_15
REMARK    7  A    between atoms: C_15  and  N_17
REMARK    8  A    between atoms: N_17  and  C_18
REMARK    9  A    between atoms: C_21  and  C_22
REMARK   10  A    between atoms: C_25  and  C_26
REMARK   11  A    between atoms: C_29  and  O_30
REMARK   12  A    between atoms: O_30  and  C_31
REMARK                            x       y       z     vdW  Elec       q    Type
REMARK                         _______ _______ _______ _____ _____    ______ ____
ROOT
ATOM      1  C   UNL     1       2.642   7.034  18.963  0.00  0.00    +0.000 A 
ATOM      2  C   UNL     1       2.761   7.800  17.808  0.00  0.00    +0.000 A 
ATOM      3  C   UNL     1       2.217   9.082  17.787  0.00  0.00    +0.000 A 
ATOM      4  C   UNL     1       1.565   9.586  18.917  0.00  0.00    +0.000 A 
ATOM      5  C   UNL     1       1.436   8.751  20.026  0.00  0.00    +0.000 A 
ATOM      6  C   UNL     1       0.705   9.101  21.285  0.00  0.00    +0.000 C 
ATOM      7  N   UNL     1       1.982   7.503  20.051  0.00  0.00    +0.000 NA
ENDROOT
BRANCH   1  11
ATOM      8  C   UNL     1       4.226   3.050  19.468  0.00  0.00    +0.000 A 
ATOM      9  C   UNL     1       5.063   4.124  19.141  0.00  0.00    +0.000 A 
ATOM     10  C   UNL     1       4.545   5.409  18.969  0.00  0.00    +0.000 A 
ATOM     11  C   UNL     1       3.171   5.663  19.082  0.00  0.00    +0.000 A 
ATOM     12  C   UNL     1       2.337   4.556  19.309  0.00  0.00    +0.000 A 
ATOM     13  C   UNL     1       2.841   3.257  19.500  0.00  0.00    +0.000 A 
BRANCH   8  15
ATOM     14  C   UNL     1       4.980   1.503  21.094  0.00  0.00    +0.000 C 
ATOM     15  O   UNL     1       4.740   1.807  19.720  0.00  0.00    +0.000 OA
ENDBRANCH   8  15
BRANCH  13  16
ATOM     16  O   UNL     1       1.836   2.352  19.724  0.00  0.00    +0.000 OA
ATOM     17  C   UNL     1       0.744   2.296  18.820  0.00  0.00    +0.000 C 
ENDBRANCH  13  16
ENDBRANCH   1  11
BRANCH   4  18
ATOM     18  C   UNL     1       1.005  10.950  18.799  0.00  0.00    +0.000 C 
ATOM     19  O   UNL     1       1.620  11.907  19.267  0.00  0.00    +0.000 OA
ATOM     20  N   UNL     1      -0.229  11.086  18.193  0.00  0.00    +0.000 N 
ATOM     21  H   UNL     1      -0.777  10.324  17.802  0.00  0.00    +0.000 HD
BRANCH  20  22
ATOM     22  N   UNL     1      -0.665  12.382  17.939  0.00  0.00    +0.000 N 
ATOM     23  H   UNL     1      -0.467  12.743  16.999  0.00  0.00    +0.000 HD
BRANCH  22  24
ATOM     24  C   UNL     1      -1.231  13.196  18.882  0.00  0.00    +0.000 C 
ATOM     25  S   UNL     1      -0.534  14.588  19.485  0.00  0.00    +0.000 S 
BRANCH  24  26
ATOM     26  N   UNL     1      -2.483  12.808  19.312  0.00  0.00    +0.000 N 
ATOM     27  H   UNL     1      -3.214  12.824  18.610  0.00  0.00    +0.000 HD
BRANCH  26  28
ATOM     28  C   UNL     1      -2.903  12.676  20.653  0.00  0.00    +0.000 A 
ATOM     29  C   UNL     1      -2.042  12.226  21.661  0.00  0.00    +0.000 A 
ATOM     30  C   UNL     1      -2.473  12.137  22.985  0.00  0.00    +0.000 A 
ATOM     31  C   UNL     1      -3.777  12.495  23.326  0.00  0.00    +0.000 A 
ATOM     32  C   UNL     1      -4.253  12.389  24.744  0.00  0.00    +0.000 C 
ATOM     33  C   UNL     1      -4.634  12.972  22.326  0.00  0.00    +0.000 A 
ATOM     34  C   UNL     1      -4.194  13.077  20.996  0.00  0.00    +0.000 A 
ENDBRANCH  26  28
ENDBRANCH  24  26
ENDBRANCH  22  24
ENDBRANCH  20  22
ENDBRANCH   4  18
TORSDOF 8
ENDMDL
MODEL 5
REMARK VINA RESULT:      -8.1      3.547     11.226
REMARK  Name = 
REMARK  12 active torsions:
REMARK  status: ('A' for Active; 'I' for Inactive)
REMARK    1  A    between atoms: C_1  and  O_2
REMARK    2  A    between atoms: O_2  and  C_3
REMARK    3  A    between atoms: C_6  and  C_7
REMARK    4  A    between atoms: C_10  and  C_11
REMARK    5  A    between atoms: N_13  and  N_14
REMARK    6  A    between atoms: N_14  and  C_15
REMARK    7  A    between atoms: C_15  and  N_17
REMARK    8  A    between atoms: N_17  and  C_18
REMARK    9  A    between atoms: C_21  and  C_22
REMARK   10  A    between atoms: C_25  and  C_26
REMARK   11  A    between atoms: C_29  and  O_30
REMARK   12  A    between atoms: O_30  and  C_31
REMARK                            x       y       z     vdW  Elec       q    Type
REMARK                         _______ _______ _______ _____ _____    ______ ____
ROOT
ATOM      1  C   UNL     1       2.190   7.418  18.811  0.00  0.00    +0.000 A 
ATOM      2  C   UNL     1       2.068   8.372  17.807  0.00  0.00    +0.000 A 
ATOM      3  C   UNL     1       1.578   9.635  18.131  0.00  0.00    +0.000 A 
ATOM      4  C   UNL     1       1.218   9.932  19.450  0.00  0.00    +0.000 A 
ATOM      5  C   UNL     1       1.318   8.917  20.400  0.00  0.00    +0.000 A 
ATOM      6  C   UNL     1       0.907   9.039  21.835  0.00  0.00    +0.000 C 
ATOM      7  N   UNL     1       1.813   7.687  20.086  0.00  0.00    +0.000 NA
ENDROOT
BRANCH   1  11
ATOM      8  C   UNL     1       3.669   3.454  17.952  0.00  0.00    +0.000 A 
ATOM      9  C   UNL     1       2.334   3.795  17.705  0.00  0.00    +0.000 A 
ATOM     10  C   UNL     1       1.857   5.076  17.993  0.00  0.00    +0.000 A 
ATOM     11  C   UNL     1       2.685   6.050  18.570  0.00  0.00    +0.000 A 
ATOM     12  C   UNL     1       3.991   5.656  18.904  0.00  0.00    +0.000 A 
ATOM     13  C   UNL     1       4.494   4.376  18.609  0.00  0.00    +0.000 A 
BRANCH   8  15
ATOM     14  C   UNL     1       3.812   1.145  18.457  0.00  0.00    +0.000 C 
ATOM     15  O   UNL     1       4.161   2.228  17.594  0.00  0.00    +0.000 OA
ENDBRANCH   8  15
BRANCH  13  16
ATOM     16  O   UNL     1       5.796   4.238  19.013  0.00  0.00    +0.000 OA
ATOM     17  C   UNL     1       6.544   5.400  19.337  0.00  0.00    +0.000 C 
ENDBRANCH  13  16
ENDBRANCH   1  11
BRANCH   4  18
ATOM     18  C   UNL     1       0.693  11.292  19.698  0.00  0.00    +0.000 C 
ATOM     19  O   UNL     1       1.472  12.216  19.928  0.00  0.00    +0.000 OA
ATOM     20  N   UNL     1      -0.678  11.459  19.701  0.00  0.00    +0.000 N 
ATOM     21  H   UNL     1      -1.358  10.724  19.526  0.00  0.00    +0.000 HD
BRANCH  20  22
ATOM     22  N   UNL     1      -1.152  12.765  19.768  0.00  0.00    +0.000 N 
ATOM     23  H   UNL     1      -1.196  13.269  18.876  0.00  0.00    +0.000 HD
BRANCH  22  24
ATOM     24  C   UNL     1      -1.453  13.409  20.937  0.00  0.00    +0.000 C 
ATOM     25  S   UNL     1      -1.278  15.050  21.196  0.00  0.00    +0.000 S 
BRANCH  24  26
ATOM     26  N   UNL     1      -1.962  12.603  21.933  0.00  0.00    +0.000 N 
ATOM     27  H   UNL     1      -1.424  11.769  22.142  0.00  0.00    +0.000 HD
BRANCH  26  28
ATOM     28  C   UNL     1      -3.265  12.661  22.474  0.00  0.00    +0.000 A 
ATOM     29  C   UNL     1      -3.501  12.595  23.852  0.00  0.00    +0.000 A 
ATOM     30  C   UNL     1      -4.796  12.689  24.362  0.00  0.00    +0.000 A 
ATOM     31  C   UNL     1      -5.881  12.849  23.500  0.00  0.00    +0.000 A 
ATOM     32  C   UNL     1      -7.278  12.938  24.039  0.00  0.00    +0.000 C 
ATOM     33  C   UNL     1      -5.647  12.943  22.122  0.00  0.00    +0.000 A 
ATOM     34  C   UNL     1      -4.341  12.866  21.612  0.00  0.00    +0.000 A 
ENDBRANCH  26  28
ENDBRANCH  24  26
ENDBRANCH  22  24
ENDBRANCH  20  22
ENDBRANCH   4  18
TORSDOF 8
ENDMDL
MODEL 6
REMARK VINA RESULT:      -8.1      3.608      9.949
REMARK  Name = 
REMARK  12 active torsions:
REMARK  status: ('A' for Active; 'I' for Inactive)
REMARK    1  A    between atoms: C_1  and  O_2
REMARK    2  A    between atoms: O_2  and  C_3
REMARK    3  A    between atoms: C_6  and  C_7
REMARK    4  A    between atoms: C_10  and  C_11
REMARK    5  A    between atoms: N_13  and  N_14
REMARK    6  A    between atoms: N_14  and  C_15
REMARK    7  A    between atoms: C_15  and  N_17
REMARK    8  A    between atoms: N_17  and  C_18
REMARK    9  A    between atoms: C_21  and  C_22
REMARK   10  A    between atoms: C_25  and  C_26
REMARK   11  A    between atoms: C_29  and  O_30
REMARK   12  A    between atoms: O_30  and  C_31
REMARK                            x       y       z     vdW  Elec       q    Type
REMARK                         _______ _______ _______ _____ _____    ______ ____
ROOT
ATOM      1  C   UNL     1       1.874   7.444  19.901  0.00  0.00    +0.000 A 
ATOM      2  C   UNL     1       1.424   7.576  21.210  0.00  0.00    +0.000 A 
ATOM      3  C   UNL     1       0.887   8.794  21.620  0.00  0.00    +0.000 A 
ATOM      4  C   UNL     1       0.801   9.863  20.721  0.00  0.00    +0.000 A 
ATOM      5  C   UNL     1       1.314   9.681  19.438  0.00  0.00    +0.000 A 
ATOM      6  C   UNL     1       1.372  10.738  18.378  0.00  0.00    +0.000 C 
ATOM      7  N   UNL     1       1.825   8.485  19.033  0.00  0.00    +0.000 NA
ENDROOT
BRANCH   1  11
ATOM      8  C   UNL     1       3.499   3.803  18.246  0.00  0.00    +0.000 A 
ATOM      9  C   UNL     1       2.510   3.767  19.235  0.00  0.00    +0.000 A 
ATOM     10  C   UNL     1       1.993   4.947  19.775  0.00  0.00    +0.000 A 
ATOM     11  C   UNL     1       2.470   6.203  19.373  0.00  0.00    +0.000 A 
ATOM     12  C   UNL     1       3.533   6.215  18.454  0.00  0.00    +0.000 A 
ATOM     13  C   UNL     1       4.056   5.038  17.889  0.00  0.00    +0.000 A 
BRANCH   8  15
ATOM     14  C   UNL     1       3.611   1.440  18.329  0.00  0.00    +0.000 C 
ATOM     15  O   UNL     1       3.947   2.653  17.655  0.00  0.00    +0.000 OA
ENDBRANCH   8  15
BRANCH  13  16
ATOM     16  O   UNL     1       5.071   5.308  17.008  0.00  0.00    +0.000 OA
ATOM     17  C   UNL     1       5.008   6.488  16.224  0.00  0.00    +0.000 C 
ENDBRANCH  13  16
ENDBRANCH   1  11
BRANCH   4  18
ATOM     18  C   UNL     1       0.231  11.121  21.248  0.00  0.00    +0.000 C 
ATOM     19  O   UNL     1       0.959  12.098  21.423  0.00  0.00    +0.000 OA
ATOM     20  N   UNL     1      -1.113  11.132  21.567  0.00  0.00    +0.000 N 
ATOM     21  H   UNL     1      -1.749  10.348  21.450  0.00  0.00    +0.000 HD
BRANCH  20  22
ATOM     22  N   UNL     1      -1.670  12.362  21.901  0.00  0.00    +0.000 N 
ATOM     23  H   UNL     1      -1.630  12.614  22.895  0.00  0.00    +0.000 HD
BRANCH  22  24
ATOM     24  C   UNL     1      -2.328  13.169  21.014  0.00  0.00    +0.000 C 
ATOM     25  S   UNL     1      -1.891  14.738  20.643  0.00  0.00    +0.000 S 
BRANCH  24  26
ATOM     26  N   UNL     1      -3.408  12.586  20.385  0.00  0.00    +0.000 N 
ATOM     27  H   UNL     1      -4.186  12.338  20.987  0.00  0.00    +0.000 HD
BRANCH  26  28
ATOM     28  C   UNL     1      -3.426  12.047  19.081  0.00  0.00    +0.000 A 
ATOM     29  C   UNL     1      -4.618  11.854  18.372  0.00  0.00    +0.000 A 
ATOM     30  C   UNL     1      -4.605  11.351  17.072  0.00  0.00    +0.000 A 
ATOM     31  C   UNL     1      -3.396  11.028  16.454  0.00  0.00    +0.000 A 
ATOM     32  C   UNL     1      -3.375  10.473  15.061  0.00  0.00    +0.000 C 
ATOM     33  C   UNL     1      -2.199  11.244  17.149  0.00  0.00    +0.000 A 
ATOM     34  C   UNL     1      -2.213  11.767  18.452  0.00  0.00    +0.000 A 
ENDBRANCH  26  28
ENDBRANCH  24  26
ENDBRANCH  22  24
ENDBRANCH  20  22
ENDBRANCH   4  18
TORSDOF 8
ENDMDL
MODEL 7
REMARK VINA RESULT:      -8.1      2.683      3.763
REMARK  Name = 
REMARK  12 active torsions:
REMARK  status: ('A' for Active; 'I' for Inactive)
REMARK    1  A    between atoms: C_1  and  O_2
REMARK    2  A    between atoms: O_2  and  C_3
REMARK    3  A    between atoms: C_6  and  C_7
REMARK    4  A    between atoms: C_10  and  C_11
REMARK    5  A    between atoms: N_13  and  N_14
REMARK    6  A    between atoms: N_14  and  C_15
REMARK    7  A    between atoms: C_15  and  N_17
REMARK    8  A    between atoms: N_17  and  C_18
REMARK    9  A    between atoms: C_21  and  C_22
REMARK   10  A    between atoms: C_25  and  C_26
REMARK   11  A    between atoms: C_29  and  O_30
REMARK   12  A    between atoms: O_30  and  C_31
REMARK                            x       y       z     vdW  Elec       q    Type
REMARK                         _______ _______ _______ _____ _____    ______ ____
ROOT
ATOM      1  C   UNL     1       0.955   9.560  20.472  0.00  0.00    +0.000 A 
ATOM      2  C   UNL     1       0.727   8.574  21.426  0.00  0.00    +0.000 A 
ATOM      3  C   UNL     1       1.208   7.287  21.197  0.00  0.00    +0.000 A 
ATOM      4  C   UNL     1       1.912   6.999  20.023  0.00  0.00    +0.000 A 
ATOM      5  C   UNL     1       2.064   8.018  19.085  0.00  0.00    +0.000 A 
ATOM      6  C   UNL     1       2.722   7.864  17.748  0.00  0.00    +0.000 C 
ATOM      7  N   UNL     1       1.608   9.280  19.316  0.00  0.00    +0.000 NA
ENDROOT
BRANCH   1  11
ATOM      8  C   UNL     1      -0.570  13.586  20.787  0.00  0.00    +0.000 A 
ATOM      9  C   UNL     1       0.259  13.209  19.724  0.00  0.00    +0.000 A 
ATOM     10  C   UNL     1       0.758  11.908  19.631  0.00  0.00    +0.000 A 
ATOM     11  C   UNL     1       0.477  10.948  20.613  0.00  0.00    +0.000 A 
ATOM     12  C   UNL     1      -0.271  11.374  21.723  0.00  0.00    +0.000 A 
ATOM     13  C   UNL     1      -0.794  12.675  21.827  0.00  0.00    +0.000 A 
BRANCH   8  15
ATOM     14  C   UNL     1      -2.553  14.878  20.770  0.00  0.00    +0.000 C 
ATOM     15  O   UNL     1      -1.128  14.835  20.838  0.00  0.00    +0.000 OA
ENDBRANCH   8  15
BRANCH  13  16
ATOM     16  O   UNL     1      -1.502  12.843  22.988  0.00  0.00    +0.000 OA
ATOM     17  C   UNL     1      -2.570  11.956  23.280  0.00  0.00    +0.000 C 
ENDBRANCH  13  16
ENDBRANCH   1  11
BRANCH   4  18
ATOM     18  C   UNL     1       2.371   5.603  19.857  0.00  0.00    +0.000 C 
ATOM     19  O   UNL     1       1.555   4.714  19.619  0.00  0.00    +0.000 OA
ATOM     20  N   UNL     1       3.719   5.348  20.022  0.00  0.00    +0.000 N 
ATOM     21  H   UNL     1       4.426   6.047  20.230  0.00  0.00    +0.000 HD
BRANCH  20  22
ATOM     22  N   UNL     1       4.160   4.068  19.701  0.00  0.00    +0.000 N 
ATOM     23  H   UNL     1       4.190   3.400  20.478  0.00  0.00    +0.000 HD
BRANCH  22  24
ATOM     24  C   UNL     1       4.630   3.710  18.467  0.00  0.00    +0.000 C 
ATOM     25  S   UNL     1       3.706   3.032  17.253  0.00  0.00    +0.000 S 
BRANCH  24  26
ATOM     26  N   UNL     1       5.966   3.976  18.252  0.00  0.00    +0.000 N 
ATOM     27  H   UNL     1       6.595   3.188  18.364  0.00  0.00    +0.000 HD
BRANCH  26  28
ATOM     28  C   UNL     1       6.564   5.253  18.181  0.00  0.00    +0.000 A 
ATOM     29  C   UNL     1       7.625   5.624  19.016  0.00  0.00    +0.000 A 
ATOM     30  C   UNL     1       8.220   6.879  18.903  0.00  0.00    +0.000 A 
ATOM     31  C   UNL     1       7.764   7.791  17.951  0.00  0.00    +0.000 A 
ATOM     32  C   UNL     1       8.390   9.149  17.831  0.00  0.00    +0.000 C 
ATOM     33  C   UNL     1       6.721   7.415  17.095  0.00  0.00    +0.000 A 
ATOM     34  C   UNL     1       6.134   6.144  17.199  0.00  0.00    +0.000 A 
ENDBRANCH  26  28
ENDBRANCH  24  26
ENDBRANCH  22  24
ENDBRANCH  20  22
ENDBRANCH   4  18
TORSDOF 8
ENDMDL
MODEL 8
REMARK VINA RESULT:      -8.0      2.950      4.611
REMARK  Name = 
REMARK  12 active torsions:
REMARK  status: ('A' for Active; 'I' for Inactive)
REMARK    1  A    between atoms: C_1  and  O_2
REMARK    2  A    between atoms: O_2  and  C_3
REMARK    3  A    between atoms: C_6  and  C_7
REMARK    4  A    between atoms: C_10  and  C_11
REMARK    5  A    between atoms: N_13  and  N_14
REMARK    6  A    between atoms: N_14  and  C_15
REMARK    7  A    between atoms: C_15  and  N_17
REMARK    8  A    between atoms: N_17  and  C_18
REMARK    9  A    between atoms: C_21  and  C_22
REMARK   10  A    between atoms: C_25  and  C_26
REMARK   11  A    between atoms: C_29  and  O_30
REMARK   12  A    between atoms: O_30  and  C_31
REMARK                            x       y       z     vdW  Elec       q    Type
REMARK                         _______ _______ _______ _____ _____    ______ ____
ROOT
ATOM      1  C   UNL     1       0.972   9.312  19.841  0.00  0.00    +0.000 A 
ATOM      2  C   UNL     1       1.479   9.720  18.612  0.00  0.00    +0.000 A 
ATOM      3  C   UNL     1       2.335   8.869  17.917  0.00  0.00    +0.000 A 
ATOM      4  C   UNL     1       2.674   7.622  18.454  0.00  0.00    +0.000 A 
ATOM      5  C   UNL     1       2.172   7.293  19.711  0.00  0.00    +0.000 A 
ATOM      6  C   UNL     1       2.492   6.037  20.462  0.00  0.00    +0.000 C 
ATOM      7  N   UNL     1       1.322   8.118  20.383  0.00  0.00    +0.000 NA
ENDROOT
BRANCH   1  11
ATOM      8  C   UNL     1      -1.547  11.848  22.260  0.00  0.00    +0.000 A 
ATOM      9  C   UNL     1      -0.709  10.893  22.847  0.00  0.00    +0.000 A 
ATOM     10  C   UNL     1       0.097  10.068  22.060  0.00  0.00    +0.000 A 
ATOM     11  C   UNL     1       0.070  10.142  20.661  0.00  0.00    +0.000 A 
ATOM     12  C   UNL     1      -0.852  11.035  20.090  0.00  0.00    +0.000 A 
ATOM     13  C   UNL     1      -1.661  11.884  20.865  0.00  0.00    +0.000 A 
BRANCH   8  15
ATOM     14  C   UNL     1      -3.397  12.148  23.707  0.00  0.00    +0.000 C 
ATOM     15  O   UNL     1      -2.276  12.715  23.030  0.00  0.00    +0.000 OA
ENDBRANCH   8  15
BRANCH  13  16
ATOM     16  O   UNL     1      -2.461  12.674  20.081  0.00  0.00    +0.000 OA
ATOM     17  C   UNL     1      -3.140  12.092  18.981  0.00  0.00    +0.000 C 
ENDBRANCH  13  16
ENDBRANCH   1  11
BRANCH   4  18
ATOM     18  C   UNL     1       3.601   6.793  17.654  0.00  0.00    +0.000 C 
ATOM     19  O   UNL     1       3.307   5.628  17.388  0.00  0.00    +0.000 OA
ATOM     20  N   UNL     1       4.799   7.362  17.268  0.00  0.00    +0.000 N 
ATOM     21  H   UNL     1       5.088   8.314  17.473  0.00  0.00    +0.000 HD
BRANCH  20  22
ATOM     22  N   UNL     1       5.583   6.632  16.380  0.00  0.00    +0.000 N 
ATOM     23  H   UNL     1       5.143   6.400  15.484  0.00  0.00    +0.000 HD
BRANCH  22  24
ATOM     24  C   UNL     1       6.827   6.147  16.680  0.00  0.00    +0.000 C 
ATOM     25  S   UNL     1       7.499   6.123  18.209  0.00  0.00    +0.000 S 
BRANCH  24  26
ATOM     26  N   UNL     1       7.523   5.625  15.611  0.00  0.00    +0.000 N 
ATOM     27  H   UNL     1       8.449   6.011  15.458  0.00  0.00    +0.000 HD
BRANCH  26  28
ATOM     28  C   UNL     1       6.987   4.844  14.563  0.00  0.00    +0.000 A 
ATOM     29  C   UNL     1       5.866   4.027  14.745  0.00  0.00    +0.000 A 
ATOM     30  C   UNL     1       5.336   3.291  13.685  0.00  0.00    +0.000 A 
ATOM     31  C   UNL     1       5.921   3.359  12.420  0.00  0.00    +0.000 A 
ATOM     32  C   UNL     1       5.365   2.561  11.278  0.00  0.00    +0.000 C 
ATOM     33  C   UNL     1       7.026   4.197  12.227  0.00  0.00    +0.000 A 
ATOM     34  C   UNL     1       7.548   4.950  13.291  0.00  0.00    +0.000 A 
ENDBRANCH  26  28
ENDBRANCH  24  26
ENDBRANCH  22  24
ENDBRANCH  20  22
ENDBRANCH   4  18
TORSDOF 8
ENDMDL
MODEL 9
REMARK VINA RESULT:      -7.9      3.457     10.827
REMARK  Name = 
REMARK  12 active torsions:
REMARK  status: ('A' for Active; 'I' for Inactive)
REMARK    1  A    between atoms: C_1  and  O_2
REMARK    2  A    between atoms: O_2  and  C_3
REMARK    3  A    between atoms: C_6  and  C_7
REMARK    4  A    between atoms: C_10  and  C_11
REMARK    5  A    between atoms: N_13  and  N_14
REMARK    6  A    between atoms: N_14  and  C_15
REMARK    7  A    between atoms: C_15  and  N_17
REMARK    8  A    between atoms: N_17  and  C_18
REMARK    9  A    between atoms: C_21  and  C_22
REMARK   10  A    between atoms: C_25  and  C_26
REMARK   11  A    between atoms: C_29  and  O_30
REMARK   12  A    between atoms: O_30  and  C_31
REMARK                            x       y       z     vdW  Elec       q    Type
REMARK                         _______ _______ _______ _____ _____    ______ ____
ROOT
ATOM      1  C   UNL     1       2.427   7.480  19.163  0.00  0.00    +0.000 A 
ATOM      2  C   UNL     1       2.597   8.299  18.052  0.00  0.00    +0.000 A 
ATOM      3  C   UNL     1       2.060   9.584  18.072  0.00  0.00    +0.000 A 
ATOM      4  C   UNL     1       1.364  10.038  19.198  0.00  0.00    +0.000 A 
ATOM      5  C   UNL     1       1.187   9.151  20.258  0.00  0.00    +0.000 A 
ATOM      6  C   UNL     1       0.407   9.445  21.503  0.00  0.00    +0.000 C 
ATOM      7  N   UNL     1       1.726   7.900  20.246  0.00  0.00    +0.000 NA
ENDROOT
BRANCH   1  11
ATOM      8  C   UNL     1       3.816   3.394  19.289  0.00  0.00    +0.000 A 
ATOM      9  C   UNL     1       2.860   3.860  20.199  0.00  0.00    +0.000 A 
ATOM     10  C   UNL     1       2.420   5.185  20.161  0.00  0.00    +0.000 A 
ATOM     11  C   UNL     1       2.944   6.101  19.237  0.00  0.00    +0.000 A 
ATOM     12  C   UNL     1       3.975   5.641  18.402  0.00  0.00    +0.000 A 
ATOM     13  C   UNL     1       4.421   4.307  18.415  0.00  0.00    +0.000 A 
BRANCH   8  15
ATOM     14  C   UNL     1       3.515   1.259  18.311  0.00  0.00    +0.000 C 
ATOM     15  O   UNL     1       4.188   2.077  19.268  0.00  0.00    +0.000 OA
ENDBRANCH   8  15
BRANCH  13  16
ATOM     16  O   UNL     1       5.418   4.098  17.498  0.00  0.00    +0.000 OA
ATOM     17  C   UNL     1       6.674   4.729  17.690  0.00  0.00    +0.000 C 
ENDBRANCH  13  16
ENDBRANCH   1  11
BRANCH   4  18
ATOM     18  C   UNL     1       0.816  11.409  19.123  0.00  0.00    +0.000 C 
ATOM     19  O   UNL     1       1.184  12.260  19.932  0.00  0.00    +0.000 OA
ATOM     20  N   UNL     1      -0.134  11.668  18.154  0.00  0.00    +0.000 N 
ATOM     21  H   UNL     1      -0.474  10.995  17.474  0.00  0.00    +0.000 HD
BRANCH  20  22
ATOM     22  N   UNL     1      -0.516  12.995  17.987  0.00  0.00    +0.000 N 
ATOM     23  H   UNL     1      -0.183  13.450  17.131  0.00  0.00    +0.000 HD
BRANCH  22  24
ATOM     24  C   UNL     1      -1.202  13.716  18.926  0.00  0.00    +0.000 C 
ATOM     25  S   UNL     1      -0.688  15.163  19.582  0.00  0.00    +0.000 S 
BRANCH  24  26
ATOM     26  N   UNL     1      -2.416  13.179  19.302  0.00  0.00    +0.000 N 
ATOM     27  H   UNL     1      -3.101  13.080  18.561  0.00  0.00    +0.000 HD
BRANCH  26  28
ATOM     28  C   UNL     1      -2.892  13.032  20.622  0.00  0.00    +0.000 A 
ATOM     29  C   UNL     1      -4.149  13.506  21.016  0.00  0.00    +0.000 A 
ATOM     30  C   UNL     1      -4.610  13.317  22.319  0.00  0.00    +0.000 A 
ATOM     31  C   UNL     1      -3.820  12.650  23.255  0.00  0.00    +0.000 A 
ATOM     32  C   UNL     1      -4.302  12.454  24.662  0.00  0.00    +0.000 C 
ATOM     33  C   UNL     1      -2.573  12.149  22.858  0.00  0.00    +0.000 A 
ATOM     34  C   UNL     1      -2.118  12.326  21.542  0.00  0.00    +0.000 A 
ENDBRANCH  26  28
ENDBRANCH  24  26
ENDBRANCH  22  24
ENDBRANCH  20  22
ENDBRANCH   4  18
TORSDOF 8
ENDMDL
