MODEL 1
REMARK VINA RESULT:      -7.1      0.000      0.000
REMARK  Name = 
REMARK  10 active torsions:
REMARK  status: ('A' for Active; 'I' for Inactive)
REMARK    1  A    between atoms: C_1  and  O_2
REMARK    2  A    between atoms: O_2  and  N_3
REMARK    3  A    between atoms: C_4  and  C_5
REMARK    4  A    between atoms: C_4  and  C_12
REMARK    5  A    between atoms: C_12  and  C_13
REMARK    6  A    between atoms: C_12  and  C_17
REMARK    7  A    between atoms: C_13  and  N_14
REMARK    8  A    between atoms: N_14  and  O_15
REMARK    9  A    between atoms: O_15  and  C_16
REMARK   10  A    between atoms: C_17  and  N_18
REMARK                            x       y       z     vdW  Elec       q    Type
REMARK                         _______ _______ _______ _____ _____    ______ ____
ROOT
ATOM      1  C   UNL     1       5.422   6.367  17.355  0.00  0.00    +0.000 C 
ENDROOT
BRANCH   1   3
ATOM      2  N   UNL     1       6.786   4.419  18.229  0.00  0.00    +0.000 NA
ATOM      3  C   UNL     1       5.626   4.884  17.840  0.00  0.00    +0.000 C 
BRANCH   3   4
ATOM      4  C   UNL     1       4.460   3.913  18.003  0.00  0.00    +0.000 A 
ATOM      5  C   UNL     1       4.186   3.467  19.315  0.00  0.00    +0.000 A 
ATOM      6  C   UNL     1       2.962   2.858  19.633  0.00  0.00    +0.000 A 
ATOM      7  C   UNL     1       2.000   2.678  18.644  0.00  0.00    +0.000 A 
ATOM      8 CL   UNL     1       0.444   2.066  19.047  0.00  0.00    +0.000 Cl
ATOM      9  C   UNL     1       2.283   3.028  17.332  0.00  0.00    +0.000 A 
ATOM     10  C   UNL     1       3.521   3.607  17.009  0.00  0.00    +0.000 A 
ENDBRANCH   3   4
BRANCH   2  12
ATOM     11  C   UNL     1       8.125   5.832  19.442  0.00  0.00    +0.000 C 
ATOM     12  O   UNL     1       7.825   5.351  18.135  0.00  0.00    +0.000 OA
ENDBRANCH   2  12
ENDBRANCH   1   3
BRANCH   1  13
ATOM     13  C   UNL     1       5.409   6.512  15.822  0.00  0.00    +0.000 C 
BRANCH  13  14
ATOM     14  N   UNL     1       5.932   5.410  15.000  0.00  0.00    +0.000 NA
ATOM     15  H   UNL     1       5.534   5.514  14.066  0.00  0.00    +0.000 HD
BRANCH  14  16
ATOM     16  O   UNL     1       7.342   5.653  14.779  0.00  0.00    +0.000 OA
ATOM     17  C   UNL     1       7.662   5.121  13.493  0.00  0.00    +0.000 C 
ENDBRANCH  14  16
ENDBRANCH  13  14
ENDBRANCH   1  13
BRANCH   1  18
ATOM     18  C   UNL     1       4.365   7.199  18.156  0.00  0.00    +0.000 C 
BRANCH  18  19
ATOM     19  N   UNL     1       2.923   7.088  17.840  0.00  0.00    +0.000 NA
ATOM     20  C   UNL     1       2.121   6.529  18.953  0.00  0.00    +0.000 C 
ATOM     21  C   UNL     1       1.993   7.375  20.229  0.00  0.00    +0.000 C 
ATOM     22  N   UNL     1       1.357   8.631  19.852  0.00  0.00    +0.000 N 
ATOM     23  C   UNL     1       0.752   9.319  20.892  0.00  0.00    +0.000 A 
ATOM     24  C   UNL     1      -0.230  10.267  20.612  0.00  0.00    +0.000 A 
ATOM     25  C   UNL     1      -0.972  10.825  21.648  0.00  0.00    +0.000 A 
ATOM     26  C   UNL     1      -0.713  10.448  22.956  0.00  0.00    +0.000 A 
ATOM     27  C   UNL     1       0.294   9.525  23.168  0.00  0.00    +0.000 A 
ATOM     28  N   UNL     1       1.012   8.961  22.173  0.00  0.00    +0.000 NA
ATOM     29  C   UNL     1       2.066   9.361  18.791  0.00  0.00    +0.000 C 
ATOM     30  C   UNL     1       2.307   8.425  17.563  0.00  0.00    +0.000 C 
ENDBRANCH  18  19
ENDBRANCH   1  18
TORSDOF 8
ENDMDL
MODEL 2
REMARK VINA RESULT:      -7.1      3.009      7.870
REMARK  Name = 
REMARK  10 active torsions:
REMARK  status: ('A' for Active; 'I' for Inactive)
REMARK    1  A    between atoms: C_1  and  O_2
REMARK    2  A    between atoms: O_2  and  N_3
REMARK    3  A    between atoms: C_4  and  C_5
REMARK    4  A    between atoms: C_4  and  C_12
REMARK    5  A    between atoms: C_12  and  C_13
REMARK    6  A    between atoms: C_12  and  C_17
REMARK    7  A    between atoms: C_13  and  N_14
REMARK    8  A    between atoms: N_14  and  O_15
REMARK    9  A    between atoms: O_15  and  C_16
REMARK   10  A    between atoms: C_17  and  N_18
REMARK                            x       y       z     vdW  Elec       q    Type
REMARK                         _______ _______ _______ _____ _____    ______ ____
ROOT
ATOM      1  C   UNL     1       2.934   5.350  18.869  0.00  0.00    +0.000 C 
ENDROOT
BRANCH   1   3
ATOM      2  N   UNL     1       1.926   5.130  21.183  0.00  0.00    +0.000 NA
ATOM      3  C   UNL     1       2.162   5.877  20.135  0.00  0.00    +0.000 C 
BRANCH   3   4
ATOM      4  C   UNL     1       1.736   7.336  20.279  0.00  0.00    +0.000 A 
ATOM      5  C   UNL     1       1.864   8.149  19.133  0.00  0.00    +0.000 A 
ATOM      6  C   UNL     1       1.205   9.386  19.043  0.00  0.00    +0.000 A 
ATOM      7  C   UNL     1       0.418   9.829  20.101  0.00  0.00    +0.000 A 
ATOM      8 CL   UNL     1      -0.508  11.270  19.950  0.00  0.00    +0.000 Cl
ATOM      9  C   UNL     1       0.351   9.087  21.271  0.00  0.00    +0.000 A 
ATOM     10  C   UNL     1       1.037   7.867  21.372  0.00  0.00    +0.000 A 
ENDBRANCH   3   4
BRANCH   2  12
ATOM     11  C   UNL     1       1.389   2.930  21.546  0.00  0.00    +0.000 C 
ATOM     12  O   UNL     1       2.389   3.816  21.052  0.00  0.00    +0.000 OA
ENDBRANCH   2  12
ENDBRANCH   1   3
BRANCH   1  13
ATOM     13  C   UNL     1       2.006   4.777  17.782  0.00  0.00    +0.000 C 
BRANCH  13  14
ATOM     14  N   UNL     1       1.417   3.444  17.981  0.00  0.00    +0.000 NA
ATOM     15  H   UNL     1       0.532   3.426  17.475  0.00  0.00    +0.000 HD
BRANCH  14  16
ATOM     16  O   UNL     1       2.226   2.489  17.253  0.00  0.00    +0.000 OA
ATOM     17  C   UNL     1       2.997   1.773  18.218  0.00  0.00    +0.000 C 
ENDBRANCH  14  16
ENDBRANCH  13  14
ENDBRANCH   1  13
BRANCH   1  18
ATOM     18  C   UNL     1       4.127   6.242  18.387  0.00  0.00    +0.000 C 
BRANCH  18  19
ATOM     19  N   UNL     1       5.503   5.699  18.342  0.00  0.00    +0.000 NA
ATOM     20  C   UNL     1       5.577   4.335  17.770  0.00  0.00    +0.000 C 
ATOM     21  C   UNL     1       5.236   4.172  16.281  0.00  0.00    +0.000 C 
ATOM     22  N   UNL     1       6.185   4.985  15.530  0.00  0.00    +0.000 N 
ATOM     23  C   UNL     1       6.341   4.628  14.200  0.00  0.00    +0.000 A 
ATOM     24  C   UNL     1       7.488   5.017  13.512  0.00  0.00    +0.000 A 
ATOM     25  C   UNL     1       7.742   4.511  12.242  0.00  0.00    +0.000 A 
ATOM     26  C   UNL     1       6.837   3.638  11.660  0.00  0.00    +0.000 A 
ATOM     27  C   UNL     1       5.703   3.315  12.383  0.00  0.00    +0.000 A 
ATOM     28  N   UNL     1       5.451   3.784  13.624  0.00  0.00    +0.000 NA
ATOM     29  C   UNL     1       6.199   6.400  15.927  0.00  0.00    +0.000 C 
ATOM     30  C   UNL     1       6.402   6.523  17.472  0.00  0.00    +0.000 C 
ENDBRANCH  18  19
ENDBRANCH   1  18
TORSDOF 8
ENDMDL
MODEL 3
REMARK VINA RESULT:      -6.9      3.010      4.767
REMARK  Name = 
REMARK  10 active torsions:
REMARK  status: ('A' for Active; 'I' for Inactive)
REMARK    1  A    between atoms: C_1  and  O_2
REMARK    2  A    between atoms: O_2  and  N_3
REMARK    3  A    between atoms: C_4  and  C_5
REMARK    4  A    between atoms: C_4  and  C_12
REMARK    5  A    between atoms: C_12  and  C_13
REMARK    6  A    between atoms: C_12  and  C_17
REMARK    7  A    between atoms: C_13  and  N_14
REMARK    8  A    between atoms: N_14  and  O_15
REMARK    9  A    between atoms: O_15  and  C_16
REMARK   10  A    between atoms: C_17  and  N_18
REMARK                            x       y       z     vdW  Elec       q    Type
REMARK                         _______ _______ _______ _____ _____    ______ ____
ROOT
ATOM      1  C   UNL     1       3.139   4.059  17.358  0.00  0.00    +0.000 C 
ENDROOT
BRANCH   1   3
ATOM      2  N   UNL     1       5.222   3.604  18.727  0.00  0.00    +0.000 NA
ATOM      3  C   UNL     1       4.692   3.926  17.574  0.00  0.00    +0.000 C 
BRANCH   3   4
ATOM      4  C   UNL     1       5.688   4.048  16.424  0.00  0.00    +0.000 A 
ATOM      5  C   UNL     1       5.212   3.718  15.136  0.00  0.00    +0.000 A 
ATOM      6  C   UNL     1       5.911   4.105  13.982  0.00  0.00    +0.000 A 
ATOM      7  C   UNL     1       7.099   4.819  14.100  0.00  0.00    +0.000 A 
ATOM      8 CL   UNL     1       7.890   5.424  12.699  0.00  0.00    +0.000 Cl
ATOM      9  C   UNL     1       7.630   5.077  15.356  0.00  0.00    +0.000 A 
ATOM     10  C   UNL     1       6.946   4.660  16.508  0.00  0.00    +0.000 A 
ENDBRANCH   3   4
BRANCH   2  12
ATOM     11  C   UNL     1       4.522   2.176  20.379  0.00  0.00    +0.000 C 
ATOM     12  O   UNL     1       4.282   3.430  19.748  0.00  0.00    +0.000 OA
ENDBRANCH   2  12
ENDBRANCH   1   3
BRANCH   1  13
ATOM     13  C   UNL     1       2.371   2.752  17.624  0.00  0.00    +0.000 C 
BRANCH  13  14
ATOM     14  N   UNL     1       1.042   2.824  18.251  0.00  0.00    +0.000 NA
ATOM     15  H   UNL     1       0.452   2.132  17.788  0.00  0.00    +0.000 HD
BRANCH  14  16
ATOM     16  O   UNL     1       1.158   2.303  19.596  0.00  0.00    +0.000 OA
ATOM     17  C   UNL     1       0.897   3.388  20.488  0.00  0.00    +0.000 C 
ENDBRANCH  14  16
ENDBRANCH  13  14
ENDBRANCH   1  13
BRANCH   1  18
ATOM     18  C   UNL     1       2.495   5.383  17.893  0.00  0.00    +0.000 C 
BRANCH  18  19
ATOM     19  N   UNL     1       3.340   6.448  18.478  0.00  0.00    +0.000 NA
ATOM     20  C   UNL     1       3.193   7.754  17.795  0.00  0.00    +0.000 C 
ATOM     21  C   UNL     1       1.838   8.468  17.916  0.00  0.00    +0.000 C 
ATOM     22  N   UNL     1       1.606   8.716  19.334  0.00  0.00    +0.000 N 
ATOM     23  C   UNL     1       0.696   9.723  19.613  0.00  0.00    +0.000 A 
ATOM     24  C   UNL     1       0.710  10.337  20.863  0.00  0.00    +0.000 A 
ATOM     25  C   UNL     1      -0.067  11.468  21.091  0.00  0.00    +0.000 A 
ATOM     26  C   UNL     1      -0.869  11.963  20.075  0.00  0.00    +0.000 A 
ATOM     27  C   UNL     1      -0.860  11.290  18.867  0.00  0.00    +0.000 A 
ATOM     28  N   UNL     1      -0.099  10.201  18.625  0.00  0.00    +0.000 NA
ATOM     29  C   UNL     1       1.651   7.503  20.163  0.00  0.00    +0.000 C 
ATOM     30  C   UNL     1       2.982   6.725  19.906  0.00  0.00    +0.000 C 
ENDBRANCH  18  19
ENDBRANCH   1  18
TORSDOF 8
ENDMDL
MODEL 4
REMARK VINA RESULT:      -6.7      2.382      3.941
REMARK  Name = 
REMARK  10 active torsions:
REMARK  status: ('A' for Active; 'I' for Inactive)
REMARK    1  A    between atoms: C_1  and  O_2
REMARK    2  A    between atoms: O_2  and  N_3
REMARK    3  A    between atoms: C_4  and  C_5
REMARK    4  A    between atoms: C_4  and  C_12
REMARK    5  A    between atoms: C_12  and  C_13
REMARK    6  A    between atoms: C_12  and  C_17
REMARK    7  A    between atoms: C_13  and  N_14
REMARK    8  A    between atoms: N_14  and  O_15
REMARK    9  A    between atoms: O_15  and  C_16
REMARK   10  A    between atoms: C_17  and  N_18
REMARK                            x       y       z     vdW  Elec       q    Type
REMARK                         _______ _______ _______ _____ _____    ______ ____
ROOT
ATOM      1  C   UNL     1       5.388   5.543  17.628  0.00  0.00    +0.000 C 
ENDROOT
BRANCH   1   3
ATOM      2  N   UNL     1       7.450   6.614  16.618  0.00  0.00    +0.000 NA
ATOM      3  C   UNL     1       6.383   5.873  16.455  0.00  0.00    +0.000 C 
BRANCH   3   4
ATOM      4  C   UNL     1       6.238   5.255  15.067  0.00  0.00    +0.000 A 
ATOM      5  C   UNL     1       7.358   5.346  14.213  0.00  0.00    +0.000 A 
ATOM      6  C   UNL     1       7.466   4.541  13.068  0.00  0.00    +0.000 A 
ATOM      7  C   UNL     1       6.452   3.641  12.757  0.00  0.00    +0.000 A 
ATOM      8 CL   UNL     1       6.634   2.548  11.442  0.00  0.00    +0.000 Cl
ATOM      9  C   UNL     1       5.303   3.598  13.534  0.00  0.00    +0.000 A 
ATOM     10  C   UNL     1       5.182   4.428  14.659  0.00  0.00    +0.000 A 
ENDBRANCH   3   4
BRANCH   2  12
ATOM     11  C   UNL     1       8.038   8.461  17.841  0.00  0.00    +0.000 C 
ATOM     12  O   UNL     1       7.596   7.110  17.917  0.00  0.00    +0.000 OA
ENDBRANCH   2  12
ENDBRANCH   1   3
BRANCH   1  13
ATOM     13  C   UNL     1       6.036   4.743  18.773  0.00  0.00    +0.000 C 
BRANCH  13  14
ATOM     14  N   UNL     1       5.558   3.379  19.046  0.00  0.00    +0.000 NA
ATOM     15  H   UNL     1       5.380   3.316  20.048  0.00  0.00    +0.000 HD
BRANCH  14  16
ATOM     16  O   UNL     1       4.234   3.251  18.474  0.00  0.00    +0.000 OA
ATOM     17  C   UNL     1       3.579   2.189  19.170  0.00  0.00    +0.000 C 
ENDBRANCH  14  16
ENDBRANCH  13  14
ENDBRANCH   1  13
BRANCH   1  18
ATOM     18  C   UNL     1       4.415   6.702  18.034  0.00  0.00    +0.000 C 
BRANCH  18  19
ATOM     19  N   UNL     1       2.961   6.585  17.788  0.00  0.00    +0.000 NA
ATOM     20  C   UNL     1       2.202   6.123  18.973  0.00  0.00    +0.000 C 
ATOM     21  C   UNL     1       2.136   7.066  20.185  0.00  0.00    +0.000 C 
ATOM     22  N   UNL     1       1.496   8.296  19.739  0.00  0.00    +0.000 N 
ATOM     23  C   UNL     1       0.942   9.069  20.747  0.00  0.00    +0.000 A 
ATOM     24  C   UNL     1      -0.042  10.005  20.437  0.00  0.00    +0.000 A 
ATOM     25  C   UNL     1      -0.735  10.649  21.456  0.00  0.00    +0.000 A 
ATOM     26  C   UNL     1      -0.423  10.371  22.777  0.00  0.00    +0.000 A 
ATOM     27  C   UNL     1       0.584   9.455  23.018  0.00  0.00    +0.000 A 
ATOM     28  N   UNL     1       1.253   8.807  22.040  0.00  0.00    +0.000 NA
ATOM     29  C   UNL     1       2.165   8.934  18.596  0.00  0.00    +0.000 C 
ATOM     30  C   UNL     1       2.345   7.904  17.435  0.00  0.00    +0.000 C 
ENDBRANCH  18  19
ENDBRANCH   1  18
TORSDOF 8
ENDMDL
MODEL 5
REMARK VINA RESULT:      -6.5      3.220      5.105
REMARK  Name = 
REMARK  10 active torsions:
REMARK  status: ('A' for Active; 'I' for Inactive)
REMARK    1  A    between atoms: C_1  and  O_2
REMARK    2  A    between atoms: O_2  and  N_3
REMARK    3  A    between atoms: C_4  and  C_5
REMARK    4  A    between atoms: C_4  and  C_12
REMARK    5  A    between atoms: C_12  and  C_13
REMARK    6  A    between atoms: C_12  and  C_17
REMARK    7  A    between atoms: C_13  and  N_14
REMARK    8  A    between atoms: N_14  and  O_15
REMARK    9  A    between atoms: O_15  and  C_16
REMARK   10  A    between atoms: C_17  and  N_18
REMARK                            x       y       z     vdW  Elec       q    Type
REMARK                         _______ _______ _______ _____ _____    ______ ____
ROOT
ATOM      1  C   UNL     1       2.191   4.937  18.527  0.00  0.00    +0.000 C 
ENDROOT
BRANCH   1   3
ATOM      2  N   UNL     1       3.379   3.106  17.242  0.00  0.00    +0.000 NA
ATOM      3  C   UNL     1       3.437   4.272  17.835  0.00  0.00    +0.000 C 
BRANCH   3   4
ATOM      4  C   UNL     1       4.777   4.992  17.703  0.00  0.00    +0.000 A 
ATOM      5  C   UNL     1       4.922   5.862  16.600  0.00  0.00    +0.000 A 
ATOM      6  C   UNL     1       5.952   6.815  16.559  0.00  0.00    +0.000 A 
ATOM      7  C   UNL     1       6.854   6.905  17.613  0.00  0.00    +0.000 A 
ATOM      8 CL   UNL     1       8.030   8.159  17.645  0.00  0.00    +0.000 Cl
ATOM      9  C   UNL     1       6.783   6.002  18.665  0.00  0.00    +0.000 A 
ATOM     10  C   UNL     1       5.773   5.028  18.688  0.00  0.00    +0.000 A 
ENDBRANCH   3   4
BRANCH   2  12
ATOM     11  C   UNL     1       2.164   1.488  18.319  0.00  0.00    +0.000 C 
ATOM     12  O   UNL     1       2.122   2.499  17.318  0.00  0.00    +0.000 OA
ENDBRANCH   2  12
ENDBRANCH   1   3
BRANCH   1  13
ATOM     13  C   UNL     1       2.065   4.592  20.022  0.00  0.00    +0.000 C 
BRANCH  13  14
ATOM     14  N   UNL     1       0.782   4.081  20.528  0.00  0.00    +0.000 NA
ATOM     15  H   UNL     1       0.257   3.734  19.725  0.00  0.00    +0.000 HD
BRANCH  14  16
ATOM     16  O   UNL     1       1.052   2.875  21.282  0.00  0.00    +0.000 OA
ATOM     17  C   UNL     1       2.415   2.942  21.703  0.00  0.00    +0.000 C 
ENDBRANCH  14  16
ENDBRANCH  13  14
ENDBRANCH   1  13
BRANCH   1  18
ATOM     18  C   UNL     1       1.902   6.420  18.114  0.00  0.00    +0.000 C 
BRANCH  18  19
ATOM     19  N   UNL     1       2.615   7.537  18.773  0.00  0.00    +0.000 NA
ATOM     20  C   UNL     1       2.454   8.831  18.070  0.00  0.00    +0.000 C 
ATOM     21  C   UNL     1       1.052   9.458  18.051  0.00  0.00    +0.000 C 
ATOM     22  N   UNL     1       0.665   9.690  19.437  0.00  0.00    +0.000 N 
ATOM     23  C   UNL     1      -0.331  10.638  19.618  0.00  0.00    +0.000 A 
ATOM     24  C   UNL     1      -0.479  11.253  20.859  0.00  0.00    +0.000 A 
ATOM     25  C   UNL     1      -1.345  12.332  21.000  0.00  0.00    +0.000 A 
ATOM     26  C   UNL     1      -2.072  12.773  19.907  0.00  0.00    +0.000 A 
ATOM     27  C   UNL     1      -1.901  12.102  18.711  0.00  0.00    +0.000 A 
ATOM     28  N   UNL     1      -1.052  11.064  18.552  0.00  0.00    +0.000 NA
ATOM     29  C   UNL     1       0.705   8.484  20.275  0.00  0.00    +0.000 C 
ATOM     30  C   UNL     1       2.101   7.792  20.156  0.00  0.00    +0.000 C 
ENDBRANCH  18  19
ENDBRANCH   1  18
TORSDOF 8
ENDMDL
MODEL 6
REMARK VINA RESULT:      -6.3      2.904      4.497
REMARK  Name = 
REMARK  10 active torsions:
REMARK  status: ('A' for Active; 'I' for Inactive)
REMARK    1  A    between atoms: C_1  and  O_2
REMARK    2  A    between atoms: O_2  and  N_3
REMARK    3  A    between atoms: C_4  and  C_5
REMARK    4  A    between atoms: C_4  and  C_12
REMARK    5  A    between atoms: C_12  and  C_13
REMARK    6  A    between atoms: C_12  and  C_17
REMARK    7  A    between atoms: C_13  and  N_14
REMARK    8  A    between atoms: N_14  and  O_15
REMARK    9  A    between atoms: O_15  and  C_16
REMARK   10  A    between atoms: C_17  and  N_18
REMARK                            x       y       z     vdW  Elec       q    Type
REMARK                         _______ _______ _______ _____ _____    ______ ____
ROOT
ATOM      1  C   UNL     1       2.713   5.049  18.884  0.00  0.00    +0.000 C 
ENDROOT
BRANCH   1   3
ATOM      2  N   UNL     1       2.314   3.393  17.009  0.00  0.00    +0.000 NA
ATOM      3  C   UNL     1       3.096   4.283  17.564  0.00  0.00    +0.000 C 
BRANCH   3   4
ATOM      4  C   UNL     1       4.359   4.611  16.770  0.00  0.00    +0.000 A 
ATOM      5  C   UNL     1       5.159   3.517  16.374  0.00  0.00    +0.000 A 
ATOM      6  C   UNL     1       6.136   3.657  15.376  0.00  0.00    +0.000 A 
ATOM      7  C   UNL     1       6.332   4.893  14.767  0.00  0.00    +0.000 A 
ATOM      8 CL   UNL     1       7.422   5.047  13.447  0.00  0.00    +0.000 Cl
ATOM      9  C   UNL     1       5.618   6.000  15.204  0.00  0.00    +0.000 A 
ATOM     10  C   UNL     1       4.665   5.865  16.225  0.00  0.00    +0.000 A 
ENDBRANCH   3   4
BRANCH   2  12
ATOM     11  C   UNL     1       1.341   2.070  18.608  0.00  0.00    +0.000 C 
ATOM     12  O   UNL     1       1.132   3.163  17.720  0.00  0.00    +0.000 OA
ENDBRANCH   2  12
ENDBRANCH   1   3
BRANCH   1  13
ATOM     13  C   UNL     1       3.824   5.022  19.950  0.00  0.00    +0.000 C 
BRANCH  13  14
ATOM     14  N   UNL     1       5.034   5.831  19.736  0.00  0.00    +0.000 NA
ATOM     15  H   UNL     1       5.193   6.368  20.589  0.00  0.00    +0.000 HD
BRANCH  14  16
ATOM     16  O   UNL     1       6.168   4.932  19.704  0.00  0.00    +0.000 OA
ATOM     17  C   UNL     1       7.268   5.667  19.164  0.00  0.00    +0.000 C 
ENDBRANCH  14  16
ENDBRANCH  13  14
ENDBRANCH   1  13
BRANCH   1  18
ATOM     18  C   UNL     1       1.955   6.404  18.682  0.00  0.00    +0.000 C 
BRANCH  18  19
ATOM     19  N   UNL     1       2.550   7.676  19.149  0.00  0.00    +0.000 NA
ATOM     20  C   UNL     1       2.274   8.818  18.246  0.00  0.00    +0.000 C 
ATOM     21  C   UNL     1       0.818   9.295  18.132  0.00  0.00    +0.000 C 
ATOM     22  N   UNL     1       0.396   9.710  19.464  0.00  0.00    +0.000 N 
ATOM     23  C   UNL     1      -0.688  10.574  19.493  0.00  0.00    +0.000 A 
ATOM     24  C   UNL     1      -0.909  11.364  20.619  0.00  0.00    +0.000 A 
ATOM     25  C   UNL     1      -1.876  12.363  20.588  0.00  0.00    +0.000 A 
ATOM     26  C   UNL     1      -2.630  12.551  19.440  0.00  0.00    +0.000 A 
ATOM     27  C   UNL     1      -2.382  11.714  18.368  0.00  0.00    +0.000 A 
ATOM     28  N   UNL     1      -1.435  10.751  18.376  0.00  0.00    +0.000 NA
ATOM     29  C   UNL     1       0.541   8.665  20.486  0.00  0.00    +0.000 C 
ATOM     30  C   UNL     1       1.998   8.100  20.474  0.00  0.00    +0.000 C 
ENDBRANCH  18  19
ENDBRANCH   1  18
TORSDOF 8
ENDMDL
MODEL 7
REMARK VINA RESULT:      -6.3      2.323      3.756
REMARK  Name = 
REMARK  10 active torsions:
REMARK  status: ('A' for Active; 'I' for Inactive)
REMARK    1  A    between atoms: C_1  and  O_2
REMARK    2  A    between atoms: O_2  and  N_3
REMARK    3  A    between atoms: C_4  and  C_5
REMARK    4  A    between atoms: C_4  and  C_12
REMARK    5  A    between atoms: C_12  and  C_13
REMARK    6  A    between atoms: C_12  and  C_17
REMARK    7  A    between atoms: C_13  and  N_14
REMARK    8  A    between atoms: N_14  and  O_15
REMARK    9  A    between atoms: O_15  and  C_16
REMARK   10  A    between atoms: C_17  and  N_18
REMARK                            x       y       z     vdW  Elec       q    Type
REMARK                         _______ _______ _______ _____ _____    ______ ____
ROOT
ATOM      1  C   UNL     1       5.291   5.862  17.862  0.00  0.00    +0.000 C 
ENDROOT
BRANCH   1   3
ATOM      2  N   UNL     1       7.134   7.113  16.655  0.00  0.00    +0.000 NA
ATOM      3  C   UNL     1       6.292   6.112  16.673  0.00  0.00    +0.000 C 
BRANCH   3   4
ATOM      4  C   UNL     1       6.434   5.134  15.509  0.00  0.00    +0.000 A 
ATOM      5  C   UNL     1       5.414   4.168  15.366  0.00  0.00    +0.000 A 
ATOM      6  C   UNL     1       5.257   3.451  14.170  0.00  0.00    +0.000 A 
ATOM      7  C   UNL     1       6.120   3.683  13.105  0.00  0.00    +0.000 A 
ATOM      8 CL   UNL     1       5.853   2.920  11.587  0.00  0.00    +0.000 Cl
ATOM      9  C   UNL     1       7.182   4.564  13.255  0.00  0.00    +0.000 A 
ATOM     10  C   UNL     1       7.358   5.255  14.463  0.00  0.00    +0.000 A 
ENDBRANCH   3   4
BRANCH   2  12
ATOM     11  C   UNL     1       8.310   8.050  18.386  0.00  0.00    +0.000 C 
ATOM     12  O   UNL     1       7.031   7.955  17.768  0.00  0.00    +0.000 OA
ENDBRANCH   2  12
ENDBRANCH   1   3
BRANCH   1  13
ATOM     13  C   UNL     1       5.936   5.153  19.066  0.00  0.00    +0.000 C 
BRANCH  13  14
ATOM     14  N   UNL     1       5.621   3.736  19.308  0.00  0.00    +0.000 NA
ATOM     15  H   UNL     1       5.887   3.528  20.270  0.00  0.00    +0.000 HD
BRANCH  14  16
ATOM     16  O   UNL     1       4.180   3.600  19.332  0.00  0.00    +0.000 OA
ATOM     17  C   UNL     1       3.852   2.476  18.515  0.00  0.00    +0.000 C 
ENDBRANCH  14  16
ENDBRANCH  13  14
ENDBRANCH   1  13
BRANCH   1  18
ATOM     18  C   UNL     1       4.309   7.042  18.175  0.00  0.00    +0.000 C 
BRANCH  18  19
ATOM     19  N   UNL     1       2.860   6.906  17.908  0.00  0.00    +0.000 NA
ATOM     20  C   UNL     1       2.096   6.393  19.068  0.00  0.00    +0.000 C 
ATOM     21  C   UNL     1       1.998   7.296  20.307  0.00  0.00    +0.000 C 
ATOM     22  N   UNL     1       1.340   8.529  19.892  0.00  0.00    +0.000 N 
ATOM     23  C   UNL     1       0.760   9.260  20.917  0.00  0.00    +0.000 A 
ATOM     24  C   UNL     1      -0.237  10.186  20.623  0.00  0.00    +0.000 A 
ATOM     25  C   UNL     1      -0.954  10.786  21.654  0.00  0.00    +0.000 A 
ATOM     26  C   UNL     1      -0.653  10.472  22.969  0.00  0.00    +0.000 A 
ATOM     27  C   UNL     1       0.368   9.567  23.194  0.00  0.00    +0.000 A 
ATOM     28  N   UNL     1       1.061   8.963  22.205  0.00  0.00    +0.000 NA
ATOM     29  C   UNL     1       2.011   9.214  18.778  0.00  0.00    +0.000 C 
ATOM     30  C   UNL     1       2.224   8.224  17.588  0.00  0.00    +0.000 C 
ENDBRANCH  18  19
ENDBRANCH   1  18
TORSDOF 8
ENDMDL
MODEL 8
REMARK VINA RESULT:      -6.2      3.307      5.053
REMARK  Name = 
REMARK  10 active torsions:
REMARK  status: ('A' for Active; 'I' for Inactive)
REMARK    1  A    between atoms: C_1  and  O_2
REMARK    2  A    between atoms: O_2  and  N_3
REMARK    3  A    between atoms: C_4  and  C_5
REMARK    4  A    between atoms: C_4  and  C_12
REMARK    5  A    between atoms: C_12  and  C_13
REMARK    6  A    between atoms: C_12  and  C_17
REMARK    7  A    between atoms: C_13  and  N_14
REMARK    8  A    between atoms: N_14  and  O_15
REMARK    9  A    between atoms: O_15  and  C_16
REMARK   10  A    between atoms: C_17  and  N_18
REMARK                            x       y       z     vdW  Elec       q    Type
REMARK                         _______ _______ _______ _____ _____    ______ ____
ROOT
ATOM      1  C   UNL     1       2.293   5.479  18.737  0.00  0.00    +0.000 C 
ENDROOT
BRANCH   1   3
ATOM      2  N   UNL     1       2.168   3.498  17.162  0.00  0.00    +0.000 NA
ATOM      3  C   UNL     1       2.853   4.511  17.629  0.00  0.00    +0.000 C 
BRANCH   3   4
ATOM      4  C   UNL     1       4.190   4.754  16.936  0.00  0.00    +0.000 A 
ATOM      5  C   UNL     1       4.867   3.615  16.448  0.00  0.00    +0.000 A 
ATOM      6  C   UNL     1       5.911   3.734  15.517  0.00  0.00    +0.000 A 
ATOM      7  C   UNL     1       6.298   4.993  15.068  0.00  0.00    +0.000 A 
ATOM      8 CL   UNL     1       7.473   5.147  13.823  0.00  0.00    +0.000 Cl
ATOM      9  C   UNL     1       5.705   6.129  15.600  0.00  0.00    +0.000 A 
ATOM     10  C   UNL     1       4.685   6.009  16.556  0.00  0.00    +0.000 A 
ENDBRANCH   3   4
BRANCH   2  12
ATOM     11  C   UNL     1       0.948   2.170  18.578  0.00  0.00    +0.000 C 
ATOM     12  O   UNL     1       0.916   3.340  17.766  0.00  0.00    +0.000 OA
ENDBRANCH   2  12
ENDBRANCH   1   3
BRANCH   1  13
ATOM     13  C   UNL     1       3.109   5.450  20.042  0.00  0.00    +0.000 C 
BRANCH  13  14
ATOM     14  N   UNL     1       3.175   4.198  20.812  0.00  0.00    +0.000 NA
ATOM     15  H   UNL     1       3.809   4.357  21.595  0.00  0.00    +0.000 HD
BRANCH  14  16
ATOM     16  O   UNL     1       1.896   4.011  21.464  0.00  0.00    +0.000 OA
ATOM     17  C   UNL     1       1.828   2.642  21.866  0.00  0.00    +0.000 C 
ENDBRANCH  14  16
ENDBRANCH  13  14
ENDBRANCH   1  13
BRANCH   1  18
ATOM     18  C   UNL     1       1.816   6.881  18.228  0.00  0.00    +0.000 C 
BRANCH  18  19
ATOM     19  N   UNL     1       2.402   8.122  18.781  0.00  0.00    +0.000 NA
ATOM     20  C   UNL     1       1.998   9.341  18.043  0.00  0.00    +0.000 C 
ATOM     21  C   UNL     1       0.521   9.755  18.114  0.00  0.00    +0.000 C 
ATOM     22  N   UNL     1       0.209  10.000  19.517  0.00  0.00    +0.000 N 
ATOM     23  C   UNL     1      -0.900  10.801  19.742  0.00  0.00    +0.000 A 
ATOM     24  C   UNL     1      -1.044  11.451  20.965  0.00  0.00    +0.000 A 
ATOM     25  C   UNL     1      -2.048  12.398  21.134  0.00  0.00    +0.000 A 
ATOM     26  C   UNL     1      -2.913  12.673  20.088  0.00  0.00    +0.000 A 
ATOM     27  C   UNL     1      -2.735  11.973  18.909  0.00  0.00    +0.000 A 
ATOM     28  N   UNL     1      -1.755  11.062  18.723  0.00  0.00    +0.000 NA
ATOM     29  C   UNL     1       0.491   8.857  20.396  0.00  0.00    +0.000 C 
ATOM     30  C   UNL     1       1.961   8.369  20.191  0.00  0.00    +0.000 C 
ENDBRANCH  18  19
ENDBRANCH   1  18
TORSDOF 8
ENDMDL
MODEL 9
REMARK VINA RESULT:      -6.2      2.643      3.932
REMARK  Name = 
REMARK  10 active torsions:
REMARK  status: ('A' for Active; 'I' for Inactive)
REMARK    1  A    between atoms: C_1  and  O_2
REMARK    2  A    between atoms: O_2  and  N_3
REMARK    3  A    between atoms: C_4  and  C_5
REMARK    4  A    between atoms: C_4  and  C_12
REMARK    5  A    between atoms: C_12  and  C_13
REMARK    6  A    between atoms: C_12  and  C_17
REMARK    7  A    between atoms: C_13  and  N_14
REMARK    8  A    between atoms: N_14  and  O_15
REMARK    9  A    between atoms: O_15  and  C_16
REMARK   10  A    between atoms: C_17  and  N_18
REMARK                            x       y       z     vdW  Elec       q    Type
REMARK                         _______ _______ _______ _____ _____    ______ ____
ROOT
ATOM      1  C   UNL     1       4.725   5.042  19.206  0.00  0.00    +0.000 C 
ENDROOT
BRANCH   1   3
ATOM      2  N   UNL     1       3.461   3.123  18.138  0.00  0.00    +0.000 NA
ATOM      3  C   UNL     1       4.340   4.085  18.017  0.00  0.00    +0.000 C 
BRANCH   3   4
ATOM      4  C   UNL     1       4.880   4.286  16.603  0.00  0.00    +0.000 A 
ATOM      5  C   UNL     1       4.953   5.616  16.136  0.00  0.00    +0.000 A 
ATOM      6  C   UNL     1       5.727   5.950  15.014  0.00  0.00    +0.000 A 
ATOM      7  C   UNL     1       6.432   4.959  14.340  0.00  0.00    +0.000 A 
ATOM      8 CL   UNL     1       7.498   5.372  13.055  0.00  0.00    +0.000 Cl
ATOM      9  C   UNL     1       6.305   3.633  14.729  0.00  0.00    +0.000 A 
ATOM     10  C   UNL     1       5.503   3.297  15.830  0.00  0.00    +0.000 A 
ENDBRANCH   3   4
BRANCH   2  12
ATOM     11  C   UNL     1       1.553   2.660  19.321  0.00  0.00    +0.000 C 
ATOM     12  O   UNL     1       2.930   3.006  19.426  0.00  0.00    +0.000 OA
ENDBRANCH   2  12
ENDBRANCH   1   3
BRANCH   1  13
ATOM     13  C   UNL     1       6.244   5.232  19.370  0.00  0.00    +0.000 C 
BRANCH  13  14
ATOM     14  N   UNL     1       7.155   4.400  18.569  0.00  0.00    +0.000 NA
ATOM     15  H   UNL     1       6.584   3.891  17.894  0.00  0.00    +0.000 HD
BRANCH  14  16
ATOM     16  O   UNL     1       7.939   5.282  17.730  0.00  0.00    +0.000 OA
ATOM     17  C   UNL     1       7.811   6.597  18.274  0.00  0.00    +0.000 C 
ENDBRANCH  14  16
ENDBRANCH  13  14
ENDBRANCH   1  13
BRANCH   1  18
ATOM     18  C   UNL     1       3.828   6.316  19.363  0.00  0.00    +0.000 C 
BRANCH  18  19
ATOM     19  N   UNL     1       2.379   6.257  19.069  0.00  0.00    +0.000 NA
ATOM     20  C   UNL     1       1.534   6.727  20.192  0.00  0.00    +0.000 C 
ATOM     21  C   UNL     1       1.614   8.216  20.564  0.00  0.00    +0.000 C 
ATOM     22  N   UNL     1       1.202   8.976  19.391  0.00  0.00    +0.000 N 
ATOM     23  C   UNL     1       0.775  10.269  19.649  0.00  0.00    +0.000 A 
ATOM     24  C   UNL     1      -0.028  10.928  18.721  0.00  0.00    +0.000 A 
ATOM     25  C   UNL     1      -0.615  12.145  19.050  0.00  0.00    +0.000 A 
ATOM     26  C   UNL     1      -0.375  12.707  20.294  0.00  0.00    +0.000 A 
ATOM     27  C   UNL     1       0.455  12.017  21.158  0.00  0.00    +0.000 A 
ATOM     28  N   UNL     1       1.018  10.826  20.861  0.00  0.00    +0.000 NA
ATOM     29  C   UNL     1       1.988   8.680  18.185  0.00  0.00    +0.000 C 
ATOM     30  C   UNL     1       2.005   7.140  17.919  0.00  0.00    +0.000 C 
ENDBRANCH  18  19
ENDBRANCH   1  18
TORSDOF 8
ENDMDL
