MODEL 1
REMARK VINA RESULT:      -7.4      0.000      0.000
REMARK  Name = 
REMARK  2 active torsions:
REMARK  status: ('A' for Active; 'I' for Inactive)
REMARK    1  A    between atoms: C_4  and  C_5
REMARK    2  A    between atoms: C_5  and  C_6
REMARK                            x       y       z     vdW  Elec       q    Type
REMARK                         _______ _______ _______ _____ _____    ______ ____
ROOT
ATOM      1  N   UNL     1       8.358   5.246  20.440  0.00  0.00    +0.000 N 
ATOM      2  C   UNL     1       7.795   5.614  19.264  0.00  0.00    +0.000 A 
ATOM      3  N   UNL     1       7.036   4.785  18.616  0.00  0.00    +0.000 NA
ATOM      4  C   UNL     1       6.491   5.209  17.422  0.00  0.00    +0.000 A 
ATOM      5  C   UNL     1       6.748   6.408  16.879  0.00  0.00    +0.000 A 
ATOM      6  C   UNL     1       7.608   7.335  17.625  0.00  0.00    +0.000 A 
ATOM      7  O   UNL     1       7.889   8.442  17.185  0.00  0.00    +0.000 OA
ATOM      8  N   UNL     1       8.065   6.869  18.821  0.00  0.00    +0.000 N 
ATOM      9  H   UNL     1       7.935   4.410  20.828  0.00  0.00    +0.000 HD
ATOM     10  H   UNL     1       8.536   5.966  21.126  0.00  0.00    +0.000 HD
ATOM     11  H   UNL     1       8.676   7.481  19.334  0.00  0.00    +0.000 HD
ENDROOT
BRANCH   4  12
ATOM     12  C   UNL     1       5.608   4.211  16.697  0.00  0.00    +0.000 C 
BRANCH  12  13
ATOM     13  C   UNL     1       4.208   4.091  17.264  0.00  0.00    +0.000 A 
ATOM     14  C   UNL     1       3.456   5.238  17.563  0.00  0.00    +0.000 A 
ATOM     15  C   UNL     1       2.154   5.126  18.058  0.00  0.00    +0.000 A 
ATOM     16  C   UNL     1       1.586   3.871  18.256  0.00  0.00    +0.000 A 
ATOM     17  C   UNL     1       2.319   2.724  17.959  0.00  0.00    +0.000 A 
ATOM     18  C   UNL     1       3.622   2.833  17.466  0.00  0.00    +0.000 A 
ENDBRANCH  12  13
ENDBRANCH   4  12
TORSDOF 2
ENDMDL
MODEL 2
REMARK VINA RESULT:      -7.4      2.008      2.835
REMARK  Name = 
REMARK  2 active torsions:
REMARK  status: ('A' for Active; 'I' for Inactive)
REMARK    1  A    between atoms: C_4  and  C_5
REMARK    2  A    between atoms: C_5  and  C_6
REMARK                            x       y       z     vdW  Elec       q    Type
REMARK                         _______ _______ _______ _____ _____    ______ ____
ROOT
ATOM      1  N   UNL     1       7.339   5.518  15.546  0.00  0.00    +0.000 N 
ATOM      2  C   UNL     1       6.662   5.548  16.718  0.00  0.00    +0.000 A 
ATOM      3  N   UNL     1       5.383   5.764  16.729  0.00  0.00    +0.000 NA
ATOM      4  C   UNL     1       4.743   5.788  17.951  0.00  0.00    +0.000 A 
ATOM      5  C   UNL     1       5.384   5.653  19.121  0.00  0.00    +0.000 A 
ATOM      6  C   UNL     1       6.831   5.409  19.093  0.00  0.00    +0.000 A 
ATOM      7  O   UNL     1       7.479   5.282  20.123  0.00  0.00    +0.000 OA
ATOM      8  N   UNL     1       7.385   5.342  17.850  0.00  0.00    +0.000 N 
ATOM      9  H   UNL     1       6.723   5.437  14.744  0.00  0.00    +0.000 HD
ATOM     10  H   UNL     1       8.159   4.931  15.488  0.00  0.00    +0.000 HD
ATOM     11  H   UNL     1       8.380   5.200  17.812  0.00  0.00    +0.000 HD
ENDROOT
BRANCH   4  12
ATOM     12  C   UNL     1       3.248   6.041  17.919  0.00  0.00    +0.000 C 
BRANCH  12  13
ATOM     13  C   UNL     1       2.420   4.961  18.586  0.00  0.00    +0.000 A 
ATOM     14  C   UNL     1       1.946   5.130  19.897  0.00  0.00    +0.000 A 
ATOM     15  C   UNL     1       1.158   4.146  20.500  0.00  0.00    +0.000 A 
ATOM     16  C   UNL     1       0.829   2.988  19.803  0.00  0.00    +0.000 A 
ATOM     17  C   UNL     1       1.288   2.809  18.500  0.00  0.00    +0.000 A 
ATOM     18  C   UNL     1       2.078   3.790  17.894  0.00  0.00    +0.000 A 
ENDBRANCH  12  13
ENDBRANCH   4  12
TORSDOF 2
ENDMDL
MODEL 3
REMARK VINA RESULT:      -7.4      1.769      2.252
REMARK  Name = 
REMARK  2 active torsions:
REMARK  status: ('A' for Active; 'I' for Inactive)
REMARK    1  A    between atoms: C_4  and  C_5
REMARK    2  A    between atoms: C_5  and  C_6
REMARK                            x       y       z     vdW  Elec       q    Type
REMARK                         _______ _______ _______ _____ _____    ______ ____
ROOT
ATOM      1  N   UNL     1       7.888   5.374  19.844  0.00  0.00    +0.000 N 
ATOM      2  C   UNL     1       7.101   5.444  18.744  0.00  0.00    +0.000 A 
ATOM      3  N   UNL     1       5.876   5.858  18.842  0.00  0.00    +0.000 NA
ATOM      4  C   UNL     1       5.116   5.906  17.692  0.00  0.00    +0.000 A 
ATOM      5  C   UNL     1       5.564   5.499  16.496  0.00  0.00    +0.000 A 
ATOM      6  C   UNL     1       6.953   5.033  16.400  0.00  0.00    +0.000 A 
ATOM      7  O   UNL     1       7.426   4.641  15.341  0.00  0.00    +0.000 OA
ATOM      8  N   UNL     1       7.659   5.066  17.564  0.00  0.00    +0.000 N 
ATOM      9  H   UNL     1       7.502   5.886  20.630  0.00  0.00    +0.000 HD
ATOM     10  H   UNL     1       8.882   5.505  19.724  0.00  0.00    +0.000 HD
ATOM     11  H   UNL     1       8.605   4.727  17.523  0.00  0.00    +0.000 HD
ENDROOT
BRANCH   4  12
ATOM     12  C   UNL     1       3.690   6.398  17.850  0.00  0.00    +0.000 C 
BRANCH  12  13
ATOM     13  C   UNL     1       2.766   5.415  18.542  0.00  0.00    +0.000 A 
ATOM     14  C   UNL     1       2.363   5.627  19.870  0.00  0.00    +0.000 A 
ATOM     15  C   UNL     1       1.487   4.736  20.497  0.00  0.00    +0.000 A 
ATOM     16  C   UNL     1       1.001   3.630  19.807  0.00  0.00    +0.000 A 
ATOM     17  C   UNL     1       1.389   3.410  18.488  0.00  0.00    +0.000 A 
ATOM     18  C   UNL     1       2.266   4.298  17.858  0.00  0.00    +0.000 A 
ENDBRANCH  12  13
ENDBRANCH   4  12
TORSDOF 2
ENDMDL
MODEL 4
REMARK VINA RESULT:      -7.4      1.767      2.441
REMARK  Name = 
REMARK  2 active torsions:
REMARK  status: ('A' for Active; 'I' for Inactive)
REMARK    1  A    between atoms: C_4  and  C_5
REMARK    2  A    between atoms: C_5  and  C_6
REMARK                            x       y       z     vdW  Elec       q    Type
REMARK                         _______ _______ _______ _____ _____    ______ ____
ROOT
ATOM      1  N   UNL     1       7.836   5.435  19.859  0.00  0.00    +0.000 N 
ATOM      2  C   UNL     1       7.057   5.482  18.752  0.00  0.00    +0.000 A 
ATOM      3  N   UNL     1       5.831   5.894  18.833  0.00  0.00    +0.000 NA
ATOM      4  C   UNL     1       5.080   5.919  17.676  0.00  0.00    +0.000 A 
ATOM      5  C   UNL     1       5.539   5.490  16.491  0.00  0.00    +0.000 A 
ATOM      6  C   UNL     1       6.930   5.027  16.415  0.00  0.00    +0.000 A 
ATOM      7  O   UNL     1       7.412   4.616  15.368  0.00  0.00    +0.000 OA
ATOM      8  N   UNL     1       7.626   5.083  17.584  0.00  0.00    +0.000 N 
ATOM      9  H   UNL     1       7.443   5.961  20.632  0.00  0.00    +0.000 HD
ATOM     10  H   UNL     1       8.831   5.566  19.744  0.00  0.00    +0.000 HD
ATOM     11  H   UNL     1       8.574   4.746  17.557  0.00  0.00    +0.000 HD
ENDROOT
BRANCH   4  12
ATOM     12  C   UNL     1       3.651   6.409  17.813  0.00  0.00    +0.000 C 
BRANCH  12  13
ATOM     13  C   UNL     1       2.719   5.427  18.494  0.00  0.00    +0.000 A 
ATOM     14  C   UNL     1       2.222   4.314  17.799  0.00  0.00    +0.000 A 
ATOM     15  C   UNL     1       1.386   3.393  18.436  0.00  0.00    +0.000 A 
ATOM     16  C   UNL     1       1.042   3.568  19.774  0.00  0.00    +0.000 A 
ATOM     17  C   UNL     1       1.533   4.666  20.477  0.00  0.00    +0.000 A 
ATOM     18  C   UNL     1       2.367   5.590  19.842  0.00  0.00    +0.000 A 
ENDBRANCH  12  13
ENDBRANCH   4  12
TORSDOF 2
ENDMDL
MODEL 5
REMARK VINA RESULT:      -7.4      1.949      2.954
REMARK  Name = 
REMARK  2 active torsions:
REMARK  status: ('A' for Active; 'I' for Inactive)
REMARK    1  A    between atoms: C_4  and  C_5
REMARK    2  A    between atoms: C_5  and  C_6
REMARK                            x       y       z     vdW  Elec       q    Type
REMARK                         _______ _______ _______ _____ _____    ______ ____
ROOT
ATOM      1  N   UNL     1       7.446   4.782  15.669  0.00  0.00    +0.000 N 
ATOM      2  C   UNL     1       6.744   5.047  16.796  0.00  0.00    +0.000 A 
ATOM      3  N   UNL     1       5.476   5.312  16.730  0.00  0.00    +0.000 NA
ATOM      4  C   UNL     1       4.810   5.578  17.908  0.00  0.00    +0.000 A 
ATOM      5  C   UNL     1       5.417   5.627  19.103  0.00  0.00    +0.000 A 
ATOM      6  C   UNL     1       6.852   5.325  19.162  0.00  0.00    +0.000 A 
ATOM      7  O   UNL     1       7.470   5.357  20.218  0.00  0.00    +0.000 OA
ATOM      8  N   UNL     1       7.431   5.017  17.968  0.00  0.00    +0.000 N 
ATOM      9  H   UNL     1       6.845   4.585  14.876  0.00  0.00    +0.000 HD
ATOM     10  H   UNL     1       8.240   4.161  15.740  0.00  0.00    +0.000 HD
ATOM     11  H   UNL     1       8.419   4.831  17.986  0.00  0.00    +0.000 HD
ENDROOT
BRANCH   4  12
ATOM     12  C   UNL     1       3.328   5.882  17.787  0.00  0.00    +0.000 C 
BRANCH  12  13
ATOM     13  C   UNL     1       2.430   4.886  18.493  0.00  0.00    +0.000 A 
ATOM     14  C   UNL     1       2.033   3.702  17.853  0.00  0.00    +0.000 A 
ATOM     15  C   UNL     1       1.229   2.771  18.516  0.00  0.00    +0.000 A 
ATOM     16  C   UNL     1       0.818   3.007  19.824  0.00  0.00    +0.000 A 
ATOM     17  C   UNL     1       1.209   4.176  20.474  0.00  0.00    +0.000 A 
ATOM     18  C   UNL     1       2.011   5.110  19.813  0.00  0.00    +0.000 A 
ENDBRANCH  12  13
ENDBRANCH   4  12
TORSDOF 2
ENDMDL
MODEL 6
REMARK VINA RESULT:      -7.3      2.290      3.226
REMARK  Name = 
REMARK  2 active torsions:
REMARK  status: ('A' for Active; 'I' for Inactive)
REMARK    1  A    between atoms: C_4  and  C_5
REMARK    2  A    between atoms: C_5  and  C_6
REMARK                            x       y       z     vdW  Elec       q    Type
REMARK                         _______ _______ _______ _____ _____    ______ ____
ROOT
ATOM      1  N   UNL     1       6.748   5.137  14.271  0.00  0.00    +0.000 N 
ATOM      2  C   UNL     1       6.455   5.240  15.589  0.00  0.00    +0.000 A 
ATOM      3  N   UNL     1       5.335   5.773  15.970  0.00  0.00    +0.000 NA
ATOM      4  C   UNL     1       5.087   5.857  17.324  0.00  0.00    +0.000 A 
ATOM      5  C   UNL     1       5.965   5.465  18.259  0.00  0.00    +0.000 A 
ATOM      6  C   UNL     1       7.228   4.863  17.813  0.00  0.00    +0.000 A 
ATOM      7  O   UNL     1       8.076   4.489  18.612  0.00  0.00    +0.000 OA
ATOM      8  N   UNL     1       7.379   4.762  16.463  0.00  0.00    +0.000 N 
ATOM      9  H   UNL     1       5.937   5.284  13.680  0.00  0.00    +0.000 HD
ATOM     10  H   UNL     1       7.332   4.367  13.974  0.00  0.00    +0.000 HD
ATOM     11  H   UNL     1       8.249   4.375  16.138  0.00  0.00    +0.000 HD
ENDROOT
BRANCH   4  12
ATOM     12  C   UNL     1       3.767   6.485  17.727  0.00  0.00    +0.000 C 
BRANCH  12  13
ATOM     13  C   UNL     1       2.826   5.543  18.451  0.00  0.00    +0.000 A 
ATOM     14  C   UNL     1       2.215   4.478  17.770  0.00  0.00    +0.000 A 
ATOM     15  C   UNL     1       1.371   3.592  18.445  0.00  0.00    +0.000 A 
ATOM     16  C   UNL     1       1.131   3.755  19.806  0.00  0.00    +0.000 A 
ATOM     17  C   UNL     1       1.734   4.804  20.496  0.00  0.00    +0.000 A 
ATOM     18  C   UNL     1       2.577   5.693  19.823  0.00  0.00    +0.000 A 
ENDBRANCH  12  13
ENDBRANCH   4  12
TORSDOF 2
ENDMDL
MODEL 7
REMARK VINA RESULT:      -7.2      1.649      1.721
REMARK  Name = 
REMARK  2 active torsions:
REMARK  status: ('A' for Active; 'I' for Inactive)
REMARK    1  A    between atoms: C_4  and  C_5
REMARK    2  A    between atoms: C_5  and  C_6
REMARK                            x       y       z     vdW  Elec       q    Type
REMARK                         _______ _______ _______ _____ _____    ______ ____
ROOT
ATOM      1  N   UNL     1       8.524   5.214  20.539  0.00  0.00    +0.000 N 
ATOM      2  C   UNL     1       7.712   5.573  19.517  0.00  0.00    +0.000 A 
ATOM      3  N   UNL     1       6.646   4.883  19.254  0.00  0.00    +0.000 NA
ATOM      4  C   UNL     1       5.856   5.291  18.200  0.00  0.00    +0.000 A 
ATOM      5  C   UNL     1       6.163   6.328  17.407  0.00  0.00    +0.000 A 
ATOM      6  C   UNL     1       7.373   7.101  17.717  0.00  0.00    +0.000 A 
ATOM      7  O   UNL     1       7.716   8.055  17.032  0.00  0.00    +0.000 OA
ATOM      8  N   UNL     1       8.073   6.673  18.805  0.00  0.00    +0.000 N 
ATOM      9  H   UNL     1       8.085   4.549  21.167  0.00  0.00    +0.000 HD
ATOM     10  H   UNL     1       9.039   5.942  21.014  0.00  0.00    +0.000 HD
ATOM     11  H   UNL     1       8.918   7.175  19.017  0.00  0.00    +0.000 HD
ENDROOT
BRANCH   4  12
ATOM     12  C   UNL     1       4.618   4.458  17.928  0.00  0.00    +0.000 C 
BRANCH  12  13
ATOM     13  C   UNL     1       3.734   4.243  19.140  0.00  0.00    +0.000 A 
ATOM     14  C   UNL     1       2.959   5.294  19.656  0.00  0.00    +0.000 A 
ATOM     15  C   UNL     1       2.122   5.087  20.755  0.00  0.00    +0.000 A 
ATOM     16  C   UNL     1       2.043   3.830  21.348  0.00  0.00    +0.000 A 
ATOM     17  C   UNL     1       2.803   2.777  20.843  0.00  0.00    +0.000 A 
ATOM     18  C   UNL     1       3.642   2.981  19.745  0.00  0.00    +0.000 A 
ENDBRANCH  12  13
ENDBRANCH   4  12
TORSDOF 2
ENDMDL
MODEL 8
REMARK VINA RESULT:      -7.2      2.293      3.201
REMARK  Name = 
REMARK  2 active torsions:
REMARK  status: ('A' for Active; 'I' for Inactive)
REMARK    1  A    between atoms: C_4  and  C_5
REMARK    2  A    between atoms: C_5  and  C_6
REMARK                            x       y       z     vdW  Elec       q    Type
REMARK                         _______ _______ _______ _____ _____    ______ ____
ROOT
ATOM      1  N   UNL     1       6.224   4.339  14.349  0.00  0.00    +0.000 N 
ATOM      2  C   UNL     1       6.044   4.629  15.660  0.00  0.00    +0.000 A 
ATOM      3  N   UNL     1       4.921   5.133  16.070  0.00  0.00    +0.000 NA
ATOM      4  C   UNL     1       4.792   5.413  17.414  0.00  0.00    +0.000 A 
ATOM      5  C   UNL     1       5.782   5.238  18.302  0.00  0.00    +0.000 A 
ATOM      6  C   UNL     1       7.046   4.666  17.824  0.00  0.00    +0.000 A 
ATOM      7  O   UNL     1       7.993   4.486  18.577  0.00  0.00    +0.000 OA
ATOM      8  N   UNL     1       7.082   4.364  16.496  0.00  0.00    +0.000 N 
ATOM      9  H   UNL     1       5.352   4.331  13.831  0.00  0.00    +0.000 HD
ATOM     10  H   UNL     1       6.843   3.577  14.114  0.00  0.00    +0.000 HD
ATOM     11  H   UNL     1       7.949   3.994  16.145  0.00  0.00    +0.000 HD
ENDROOT
BRANCH   4  12
ATOM     12  C   UNL     1       3.463   5.999  17.853  0.00  0.00    +0.000 C 
BRANCH  12  13
ATOM     13  C   UNL     1       2.557   5.019  18.571  0.00  0.00    +0.000 A 
ATOM     14  C   UNL     1       2.168   5.248  19.901  0.00  0.00    +0.000 A 
ATOM     15  C   UNL     1       1.309   4.359  20.552  0.00  0.00    +0.000 A 
ATOM     16  C   UNL     1       0.824   3.238  19.886  0.00  0.00    +0.000 A 
ATOM     17  C   UNL     1       1.198   3.002  18.564  0.00  0.00    +0.000 A 
ATOM     18  C   UNL     1       2.059   3.887  17.910  0.00  0.00    +0.000 A 
ENDBRANCH  12  13
ENDBRANCH   4  12
TORSDOF 2
ENDMDL
MODEL 9
REMARK VINA RESULT:      -7.2      2.075      2.455
REMARK  Name = 
REMARK  2 active torsions:
REMARK  status: ('A' for Active; 'I' for Inactive)
REMARK    1  A    between atoms: C_4  and  C_5
REMARK    2  A    between atoms: C_5  and  C_6
REMARK                            x       y       z     vdW  Elec       q    Type
REMARK                         _______ _______ _______ _____ _____    ______ ____
ROOT
ATOM      1  N   UNL     1       8.371   4.148  17.952  0.00  0.00    +0.000 N 
ATOM      2  C   UNL     1       7.391   4.607  17.138  0.00  0.00    +0.000 A 
ATOM      3  N   UNL     1       6.236   4.937  17.626  0.00  0.00    +0.000 NA
ATOM      4  C   UNL     1       5.273   5.395  16.753  0.00  0.00    +0.000 A 
ATOM      5  C   UNL     1       5.455   5.465  15.426  0.00  0.00    +0.000 A 
ATOM      6  C   UNL     1       6.767   5.089  14.887  0.00  0.00    +0.000 A 
ATOM      7  O   UNL     1       7.001   5.122  13.686  0.00  0.00    +0.000 OA
ATOM      8  N   UNL     1       7.686   4.699  15.814  0.00  0.00    +0.000 N 
ATOM      9  H   UNL     1       8.177   4.328  18.931  0.00  0.00    +0.000 HD
ATOM     10  H   UNL     1       9.330   4.328  17.689  0.00  0.00    +0.000 HD
ATOM     11  H   UNL     1       8.584   4.413  15.461  0.00  0.00    +0.000 HD
ENDROOT
BRANCH   4  12
ATOM     12  C   UNL     1       3.937   5.773  17.364  0.00  0.00    +0.000 C 
BRANCH  12  13
ATOM     13  C   UNL     1       3.099   4.590  17.806  0.00  0.00    +0.000 A 
ATOM     14  C   UNL     1       1.984   4.775  18.640  0.00  0.00    +0.000 A 
ATOM     15  C   UNL     1       1.194   3.687  19.022  0.00  0.00    +0.000 A 
ATOM     16  C   UNL     1       1.503   2.406  18.574  0.00  0.00    +0.000 A 
ATOM     17  C   UNL     1       2.603   2.209  17.742  0.00  0.00    +0.000 A 
ATOM     18  C   UNL     1       3.396   3.294  17.359  0.00  0.00    +0.000 A 
ENDBRANCH  12  13
ENDBRANCH   4  12
TORSDOF 2
ENDMDL
