MODEL 1
REMARK VINA RESULT:      -6.1      0.000      0.000
REMARK  Name = 
REMARK  6 active torsions:
REMARK  status: ('A' for Active; 'I' for Inactive)
REMARK    1  A    between atoms: C_1  and  S_2
REMARK    2  A    between atoms: S_2  and  C_3
REMARK    3  A    between atoms: C_3  and  N_5
REMARK    4  A    between atoms: N_5  and  C_6
REMARK    5  A    between atoms: C_6  and  C_7
REMARK    6  A    between atoms: C_7  and  C_8
REMARK                            x       y       z     vdW  Elec       q    Type
REMARK                         _______ _______ _______ _____ _____    ______ ____
ROOT
ATOM      1  C   UNL     1       3.847   4.852  17.642  0.00  0.00    +0.000 A 
ATOM      2  C   UNL     1       4.072   3.649  17.004  0.00  0.00    +0.000 A 
ATOM      3  N   UNL     1       3.287   2.695  17.595  0.00  0.00    +0.000 N 
ATOM      4  C   UNL     1       2.553   3.250  18.617  0.00  0.00    +0.000 A 
ATOM      5  C   UNL     1       1.596   2.670  19.458  0.00  0.00    +0.000 A 
ATOM      6  C   UNL     1       0.997   3.490  20.420  0.00  0.00    +0.000 A 
ATOM      7  C   UNL     1       1.346   4.833  20.536  0.00  0.00    +0.000 A 
ATOM      8  C   UNL     1       2.297   5.399  19.679  0.00  0.00    +0.000 A 
ATOM      9  C   UNL     1       2.911   4.596  18.695  0.00  0.00    +0.000 A 
ATOM     10  H   UNL     1       3.223   1.729  17.305  0.00  0.00    +0.000 HD
ENDROOT
BRANCH   1  11
ATOM     11  C   UNL     1       4.389   6.188  17.238  0.00  0.00    +0.000 C 
BRANCH  11  12
ATOM     12  C   UNL     1       5.108   6.066  15.892  0.00  0.00    +0.000 C 
BRANCH  12  13
ATOM     13  N   UNL     1       6.555   6.202  15.963  0.00  0.00    +0.000 N 
ATOM     14  H   UNL     1       7.113   6.027  15.138  0.00  0.00    +0.000 HD
BRANCH  13  15
ATOM     15  C   UNL     1       7.255   6.494  17.113  0.00  0.00    +0.000 C 
ATOM     16  S   UNL     1       7.694   8.022  17.625  0.00  0.00    +0.000 S 
BRANCH  15  18
ATOM     17  C   UNL     1       7.674   5.545  19.688  0.00  0.00    +0.000 C 
ATOM     18  S   UNL     1       7.551   4.993  17.971  0.00  0.00    +0.000 S 
ENDBRANCH  15  18
ENDBRANCH  13  15
ENDBRANCH  12  13
ENDBRANCH  11  12
ENDBRANCH   1  11
TORSDOF 5
ENDMDL
MODEL 2
REMARK VINA RESULT:      -6.0      1.675      2.320
REMARK  Name = 
REMARK  6 active torsions:
REMARK  status: ('A' for Active; 'I' for Inactive)
REMARK    1  A    between atoms: C_1  and  S_2
REMARK    2  A    between atoms: S_2  and  C_3
REMARK    3  A    between atoms: C_3  and  N_5
REMARK    4  A    between atoms: N_5  and  C_6
REMARK    5  A    between atoms: C_6  and  C_7
REMARK    6  A    between atoms: C_7  and  C_8
REMARK                            x       y       z     vdW  Elec       q    Type
REMARK                         _______ _______ _______ _____ _____    ______ ____
ROOT
ATOM      1  C   UNL     1       3.245   5.545  18.207  0.00  0.00    +0.000 A 
ATOM      2  C   UNL     1       3.156   6.494  19.206  0.00  0.00    +0.000 A 
ATOM      3  N   UNL     1       2.351   5.999  20.198  0.00  0.00    +0.000 N 
ATOM      4  C   UNL     1       1.903   4.742  19.864  0.00  0.00    +0.000 A 
ATOM      5  C   UNL     1       1.103   3.848  20.586  0.00  0.00    +0.000 A 
ATOM      6  C   UNL     1       0.809   2.617  19.991  0.00  0.00    +0.000 A 
ATOM      7  C   UNL     1       1.292   2.298  18.724  0.00  0.00    +0.000 A 
ATOM      8  C   UNL     1       2.100   3.199  18.022  0.00  0.00    +0.000 A 
ATOM      9  C   UNL     1       2.418   4.445  18.603  0.00  0.00    +0.000 A 
ATOM     10  H   UNL     1       2.140   6.468  21.068  0.00  0.00    +0.000 HD
ENDROOT
BRANCH   1  11
ATOM     11  C   UNL     1       4.127   5.607  16.999  0.00  0.00    +0.000 C 
BRANCH  11  12
ATOM     12  C   UNL     1       5.073   6.806  17.112  0.00  0.00    +0.000 C 
BRANCH  12  13
ATOM     13  N   UNL     1       6.398   6.588  16.555  0.00  0.00    +0.000 N 
ATOM     14  H   UNL     1       6.989   7.383  16.347  0.00  0.00    +0.000 HD
BRANCH  13  15
ATOM     15  C   UNL     1       6.907   5.353  16.215  0.00  0.00    +0.000 C 
ATOM     16  S   UNL     1       6.935   4.702  14.678  0.00  0.00    +0.000 S 
BRANCH  15  18
ATOM     17  C   UNL     1       7.820   6.041  18.745  0.00  0.00    +0.000 C 
ATOM     18  S   UNL     1       7.569   4.615  17.662  0.00  0.00    +0.000 S 
ENDBRANCH  15  18
ENDBRANCH  13  15
ENDBRANCH  12  13
ENDBRANCH  11  12
ENDBRANCH   1  11
TORSDOF 5
ENDMDL
MODEL 3
REMARK VINA RESULT:      -6.0      3.287      6.386
REMARK  Name = 
REMARK  6 active torsions:
REMARK  status: ('A' for Active; 'I' for Inactive)
REMARK    1  A    between atoms: C_1  and  S_2
REMARK    2  A    between atoms: S_2  and  C_3
REMARK    3  A    between atoms: C_3  and  N_5
REMARK    4  A    between atoms: N_5  and  C_6
REMARK    5  A    between atoms: C_6  and  C_7
REMARK    6  A    between atoms: C_7  and  C_8
REMARK                            x       y       z     vdW  Elec       q    Type
REMARK                         _______ _______ _______ _____ _____    ______ ____
ROOT
ATOM      1  C   UNL     1       5.767   4.543  15.886  0.00  0.00    +0.000 A 
ATOM      2  C   UNL     1       6.717   5.416  16.377  0.00  0.00    +0.000 A 
ATOM      3  N   UNL     1       7.585   5.721  15.362  0.00  0.00    +0.000 N 
ATOM      4  C   UNL     1       7.226   5.058  14.213  0.00  0.00    +0.000 A 
ATOM      5  C   UNL     1       7.790   5.101  12.933  0.00  0.00    +0.000 A 
ATOM      6  C   UNL     1       7.201   4.313  11.938  0.00  0.00    +0.000 A 
ATOM      7  C   UNL     1       6.096   3.512  12.218  0.00  0.00    +0.000 A 
ATOM      8  C   UNL     1       5.538   3.490  13.501  0.00  0.00    +0.000 A 
ATOM      9  C   UNL     1       6.108   4.281  14.520  0.00  0.00    +0.000 A 
ATOM     10  H   UNL     1       8.360   6.366  15.431  0.00  0.00    +0.000 HD
ENDROOT
BRANCH   1  11
ATOM     11  C   UNL     1       4.550   4.056  16.608  0.00  0.00    +0.000 C 
BRANCH  11  12
ATOM     12  C   UNL     1       4.807   4.068  18.117  0.00  0.00    +0.000 C 
BRANCH  12  13
ATOM     13  N   UNL     1       3.896   4.906  18.881  0.00  0.00    +0.000 N 
ATOM     14  H   UNL     1       3.938   5.912  18.778  0.00  0.00    +0.000 HD
BRANCH  13  15
ATOM     15  C   UNL     1       2.997   4.433  19.812  0.00  0.00    +0.000 C 
ATOM     16  S   UNL     1       1.858   5.350  20.619  0.00  0.00    +0.000 S 
BRANCH  15  18
ATOM     17  C   UNL     1       1.780   2.048  19.082  0.00  0.00    +0.000 C 
ATOM     18  S   UNL     1       3.220   2.700  19.960  0.00  0.00    +0.000 S 
ENDBRANCH  15  18
ENDBRANCH  13  15
ENDBRANCH  12  13
ENDBRANCH  11  12
ENDBRANCH   1  11
TORSDOF 5
ENDMDL
MODEL 4
REMARK VINA RESULT:      -6.0      1.842      2.733
REMARK  Name = 
REMARK  6 active torsions:
REMARK  status: ('A' for Active; 'I' for Inactive)
REMARK    1  A    between atoms: C_1  and  S_2
REMARK    2  A    between atoms: S_2  and  C_3
REMARK    3  A    between atoms: C_3  and  N_5
REMARK    4  A    between atoms: N_5  and  C_6
REMARK    5  A    between atoms: C_6  and  C_7
REMARK    6  A    between atoms: C_7  and  C_8
REMARK                            x       y       z     vdW  Elec       q    Type
REMARK                         _______ _______ _______ _____ _____    ______ ____
ROOT
ATOM      1  C   UNL     1       3.353   5.382  18.267  0.00  0.00    +0.000 A 
ATOM      2  C   UNL     1       3.596   6.201  19.352  0.00  0.00    +0.000 A 
ATOM      3  N   UNL     1       2.856   5.743  20.410  0.00  0.00    +0.000 N 
ATOM      4  C   UNL     1       2.125   4.640  20.037  0.00  0.00    +0.000 A 
ATOM      5  C   UNL     1       1.273   3.825  20.792  0.00  0.00    +0.000 A 
ATOM      6  C   UNL     1       0.659   2.750  20.140  0.00  0.00    +0.000 A 
ATOM      7  C   UNL     1       0.886   2.507  18.788  0.00  0.00    +0.000 A 
ATOM      8  C   UNL     1       1.750   3.325  18.051  0.00  0.00    +0.000 A 
ATOM      9  C   UNL     1       2.388   4.411  18.687  0.00  0.00    +0.000 A 
ATOM     10  H   UNL     1       2.867   6.132  21.342  0.00  0.00    +0.000 HD
ENDROOT
BRANCH   1  11
ATOM     11  C   UNL     1       4.051   5.430  16.944  0.00  0.00    +0.000 C 
BRANCH  11  12
ATOM     12  C   UNL     1       4.884   6.711  16.847  0.00  0.00    +0.000 C 
BRANCH  12  13
ATOM     13  N   UNL     1       6.148   6.561  16.142  0.00  0.00    +0.000 N 
ATOM     14  H   UNL     1       6.466   7.298  15.526  0.00  0.00    +0.000 HD
BRANCH  13  15
ATOM     15  C   UNL     1       6.939   5.434  16.194  0.00  0.00    +0.000 C 
ATOM     16  S   UNL     1       7.479   4.686  17.586  0.00  0.00    +0.000 S 
BRANCH  15  18
ATOM     17  C   UNL     1       5.675   4.075  14.130  0.00  0.00    +0.000 C 
ATOM     18  S   UNL     1       7.232   4.893  14.551  0.00  0.00    +0.000 S 
ENDBRANCH  15  18
ENDBRANCH  13  15
ENDBRANCH  12  13
ENDBRANCH  11  12
ENDBRANCH   1  11
TORSDOF 5
ENDMDL
MODEL 5
REMARK VINA RESULT:      -6.0      2.929      5.397
REMARK  Name = 
REMARK  6 active torsions:
REMARK  status: ('A' for Active; 'I' for Inactive)
REMARK    1  A    between atoms: C_1  and  S_2
REMARK    2  A    between atoms: S_2  and  C_3
REMARK    3  A    between atoms: C_3  and  N_5
REMARK    4  A    between atoms: N_5  and  C_6
REMARK    5  A    between atoms: C_6  and  C_7
REMARK    6  A    between atoms: C_7  and  C_8
REMARK                            x       y       z     vdW  Elec       q    Type
REMARK                         _______ _______ _______ _____ _____    ______ ____
ROOT
ATOM      1  C   UNL     1       3.939   3.561  17.785  0.00  0.00    +0.000 A 
ATOM      2  C   UNL     1       4.475   2.943  18.898  0.00  0.00    +0.000 A 
ATOM      3  N   UNL     1       5.625   3.602  19.243  0.00  0.00    +0.000 N 
ATOM      4  C   UNL     1       5.859   4.640  18.371  0.00  0.00    +0.000 A 
ATOM      5  C   UNL     1       6.878   5.598  18.363  0.00  0.00    +0.000 A 
ATOM      6  C   UNL     1       6.860   6.555  17.342  0.00  0.00    +0.000 A 
ATOM      7  C   UNL     1       5.863   6.547  16.369  0.00  0.00    +0.000 A 
ATOM      8  C   UNL     1       4.845   5.587  16.400  0.00  0.00    +0.000 A 
ATOM      9  C   UNL     1       4.836   4.617  17.423  0.00  0.00    +0.000 A 
ATOM     10  H   UNL     1       6.205   3.386  20.041  0.00  0.00    +0.000 HD
ENDROOT
BRANCH   1  11
ATOM     11  C   UNL     1       2.617   3.259  17.152  0.00  0.00    +0.000 C 
BRANCH  11  12
ATOM     12  C   UNL     1       1.592   2.916  18.236  0.00  0.00    +0.000 C 
BRANCH  12  13
ATOM     13  N   UNL     1       1.196   4.038  19.072  0.00  0.00    +0.000 N 
ATOM     14  H   UNL     1       0.755   4.845  18.649  0.00  0.00    +0.000 HD
BRANCH  13  15
ATOM     15  C   UNL     1       1.439   4.125  20.425  0.00  0.00    +0.000 C 
ATOM     16  S   UNL     1       1.590   2.833  21.473  0.00  0.00    +0.000 S 
BRANCH  15  18
ATOM     17  C   UNL     1       2.488   6.483  19.404  0.00  0.00    +0.000 C 
ATOM     18  S   UNL     1       1.618   5.820  20.843  0.00  0.00    +0.000 S 
ENDBRANCH  15  18
ENDBRANCH  13  15
ENDBRANCH  12  13
ENDBRANCH  11  12
ENDBRANCH   1  11
TORSDOF 5
ENDMDL
MODEL 6
REMARK VINA RESULT:      -6.0      2.793      3.909
REMARK  Name = 
REMARK  6 active torsions:
REMARK  status: ('A' for Active; 'I' for Inactive)
REMARK    1  A    between atoms: C_1  and  S_2
REMARK    2  A    between atoms: S_2  and  C_3
REMARK    3  A    between atoms: C_3  and  N_5
REMARK    4  A    between atoms: N_5  and  C_6
REMARK    5  A    between atoms: C_6  and  C_7
REMARK    6  A    between atoms: C_7  and  C_8
REMARK                            x       y       z     vdW  Elec       q    Type
REMARK                         _______ _______ _______ _____ _____    ______ ____
ROOT
ATOM      1  C   UNL     1       3.143   6.248  18.548  0.00  0.00    +0.000 A 
ATOM      2  C   UNL     1       3.012   5.613  19.767  0.00  0.00    +0.000 A 
ATOM      3  N   UNL     1       2.272   6.418  20.593  0.00  0.00    +0.000 N 
ATOM      4  C   UNL     1       1.920   7.575  19.939  0.00  0.00    +0.000 A 
ATOM      5  C   UNL     1       1.138   8.652  20.370  0.00  0.00    +0.000 A 
ATOM      6  C   UNL     1       0.938   9.708  19.474  0.00  0.00    +0.000 A 
ATOM      7  C   UNL     1       1.503   9.685  18.201  0.00  0.00    +0.000 A 
ATOM      8  C   UNL     1       2.273   8.594  17.783  0.00  0.00    +0.000 A 
ATOM      9  C   UNL     1       2.484   7.513  18.664  0.00  0.00    +0.000 A 
ATOM     10  H   UNL     1       1.992   6.187  21.536  0.00  0.00    +0.000 HD
ENDROOT
BRANCH   1  11
ATOM     11  C   UNL     1       3.756   5.673  17.309  0.00  0.00    +0.000 C 
BRANCH  11  12
ATOM     12  C   UNL     1       3.857   4.151  17.442  0.00  0.00    +0.000 C 
BRANCH  12  13
ATOM     13  N   UNL     1       5.211   3.625  17.369  0.00  0.00    +0.000 N 
ATOM     14  H   UNL     1       5.473   2.840  17.952  0.00  0.00    +0.000 HD
BRANCH  13  15
ATOM     15  C   UNL     1       6.216   4.165  16.598  0.00  0.00    +0.000 C 
ATOM     16  S   UNL     1       6.234   4.233  14.929  0.00  0.00    +0.000 S 
BRANCH  15  18
ATOM     17  C   UNL     1       7.322   6.593  17.361  0.00  0.00    +0.000 C 
ATOM     18  S   UNL     1       7.442   4.816  17.671  0.00  0.00    +0.000 S 
ENDBRANCH  15  18
ENDBRANCH  13  15
ENDBRANCH  12  13
ENDBRANCH  11  12
ENDBRANCH   1  11
TORSDOF 5
ENDMDL
MODEL 7
REMARK VINA RESULT:      -5.9      1.795      2.601
REMARK  Name = 
REMARK  6 active torsions:
REMARK  status: ('A' for Active; 'I' for Inactive)
REMARK    1  A    between atoms: C_1  and  S_2
REMARK    2  A    between atoms: S_2  and  C_3
REMARK    3  A    between atoms: C_3  and  N_5
REMARK    4  A    between atoms: N_5  and  C_6
REMARK    5  A    between atoms: C_6  and  C_7
REMARK    6  A    between atoms: C_7  and  C_8
REMARK                            x       y       z     vdW  Elec       q    Type
REMARK                         _______ _______ _______ _____ _____    ______ ____
ROOT
ATOM      1  C   UNL     1       2.428   6.434  18.663  0.00  0.00    +0.000 A 
ATOM      2  C   UNL     1       2.442   7.023  19.911  0.00  0.00    +0.000 A 
ATOM      3  N   UNL     1       2.004   6.102  20.826  0.00  0.00    +0.000 N 
ATOM      4  C   UNL     1       1.696   4.918  20.198  0.00  0.00    +0.000 A 
ATOM      5  C   UNL     1       1.259   3.701  20.733  0.00  0.00    +0.000 A 
ATOM      6  C   UNL     1       1.027   2.648  19.842  0.00  0.00    +0.000 A 
ATOM      7  C   UNL     1       1.220   2.811  18.472  0.00  0.00    +0.000 A 
ATOM      8  C   UNL     1       1.667   4.032  17.956  0.00  0.00    +0.000 A 
ATOM      9  C   UNL     1       1.917   5.108  18.834  0.00  0.00    +0.000 A 
ATOM     10  H   UNL     1       1.946   6.251  21.824  0.00  0.00    +0.000 HD
ENDROOT
BRANCH   1  11
ATOM     11  C   UNL     1       2.954   7.029  17.394  0.00  0.00    +0.000 C 
BRANCH  11  12
ATOM     12  C   UNL     1       4.483   7.088  17.448  0.00  0.00    +0.000 C 
BRANCH  12  13
ATOM     13  N   UNL     1       5.148   5.819  17.200  0.00  0.00    +0.000 N 
ATOM     14  H   UNL     1       4.687   4.955  17.457  0.00  0.00    +0.000 HD
BRANCH  13  15
ATOM     15  C   UNL     1       6.421   5.693  16.689  0.00  0.00    +0.000 C 
ATOM     16  S   UNL     1       6.856   4.756  15.376  0.00  0.00    +0.000 S 
BRANCH  15  18
ATOM     17  C   UNL     1       7.742   5.769  19.129  0.00  0.00    +0.000 C 
ATOM     18  S   UNL     1       7.491   6.728  17.617  0.00  0.00    +0.000 S 
ENDBRANCH  15  18
ENDBRANCH  13  15
ENDBRANCH  12  13
ENDBRANCH  11  12
ENDBRANCH   1  11
TORSDOF 5
ENDMDL
MODEL 8
REMARK VINA RESULT:      -5.9      1.782      2.588
REMARK  Name = 
REMARK  6 active torsions:
REMARK  status: ('A' for Active; 'I' for Inactive)
REMARK    1  A    between atoms: C_1  and  S_2
REMARK    2  A    between atoms: S_2  and  C_3
REMARK    3  A    between atoms: C_3  and  N_5
REMARK    4  A    between atoms: N_5  and  C_6
REMARK    5  A    between atoms: C_6  and  C_7
REMARK    6  A    between atoms: C_7  and  C_8
REMARK                            x       y       z     vdW  Elec       q    Type
REMARK                         _______ _______ _______ _____ _____    ______ ____
ROOT
ATOM      1  C   UNL     1       2.509   6.589  18.719  0.00  0.00    +0.000 A 
ATOM      2  C   UNL     1       2.404   7.117  19.990  0.00  0.00    +0.000 A 
ATOM      3  N   UNL     1       1.886   6.152  20.814  0.00  0.00    +0.000 N 
ATOM      4  C   UNL     1       1.642   5.001  20.103  0.00  0.00    +0.000 A 
ATOM      5  C   UNL     1       1.161   3.759  20.535  0.00  0.00    +0.000 A 
ATOM      6  C   UNL     1       1.017   2.751  19.576  0.00  0.00    +0.000 A 
ATOM      7  C   UNL     1       1.337   2.980  18.240  0.00  0.00    +0.000 A 
ATOM      8  C   UNL     1       1.827   4.225  17.828  0.00  0.00    +0.000 A 
ATOM      9  C   UNL     1       1.989   5.256  18.777  0.00  0.00    +0.000 A 
ATOM     10  H   UNL     1       1.735   6.253  21.808  0.00  0.00    +0.000 HD
ENDROOT
BRANCH   1  11
ATOM     11  C   UNL     1       3.150   7.244  17.535  0.00  0.00    +0.000 C 
BRANCH  11  12
ATOM     12  C   UNL     1       4.335   6.401  17.058  0.00  0.00    +0.000 C 
BRANCH  12  13
ATOM     13  N   UNL     1       5.396   6.236  18.039  0.00  0.00    +0.000 N 
ATOM     14  H   UNL     1       5.158   6.075  19.009  0.00  0.00    +0.000 HD
BRANCH  13  15
ATOM     15  C   UNL     1       6.740   6.349  17.760  0.00  0.00    +0.000 C 
ATOM     16  S   UNL     1       7.603   7.778  17.690  0.00  0.00    +0.000 S 
BRANCH  15  18
ATOM     17  C   UNL     1       7.029   4.392  15.813  0.00  0.00    +0.000 C 
ATOM     18  S   UNL     1       7.396   4.736  17.549  0.00  0.00    +0.000 S 
ENDBRANCH  15  18
ENDBRANCH  13  15
ENDBRANCH  12  13
ENDBRANCH  11  12
ENDBRANCH   1  11
TORSDOF 5
ENDMDL
MODEL 9
REMARK VINA RESULT:      -5.9      2.869      5.429
REMARK  Name = 
REMARK  6 active torsions:
REMARK  status: ('A' for Active; 'I' for Inactive)
REMARK    1  A    between atoms: C_1  and  S_2
REMARK    2  A    between atoms: S_2  and  C_3
REMARK    3  A    between atoms: C_3  and  N_5
REMARK    4  A    between atoms: N_5  and  C_6
REMARK    5  A    between atoms: C_6  and  C_7
REMARK    6  A    between atoms: C_7  and  C_8
REMARK                            x       y       z     vdW  Elec       q    Type
REMARK                         _______ _______ _______ _____ _____    ______ ____
ROOT
ATOM      1  C   UNL     1       4.205   5.636  18.312  0.00  0.00    +0.000 A 
ATOM      2  C   UNL     1       4.846   5.258  19.474  0.00  0.00    +0.000 A 
ATOM      3  N   UNL     1       6.089   4.786  19.145  0.00  0.00    +0.000 N 
ATOM      4  C   UNL     1       6.274   4.841  17.783  0.00  0.00    +0.000 A 
ATOM      5  C   UNL     1       7.392   4.510  17.010  0.00  0.00    +0.000 A 
ATOM      6  C   UNL     1       7.295   4.677  15.625  0.00  0.00    +0.000 A 
ATOM      7  C   UNL     1       6.124   5.151  15.040  0.00  0.00    +0.000 A 
ATOM      8  C   UNL     1       5.018   5.488  15.829  0.00  0.00    +0.000 A 
ATOM      9  C   UNL     1       5.093   5.337  17.229  0.00  0.00    +0.000 A 
ATOM     10  H   UNL     1       6.789   4.473  19.804  0.00  0.00    +0.000 HD
ENDROOT
BRANCH   1  11
ATOM     11  C   UNL     1       2.883   6.332  18.212  0.00  0.00    +0.000 C 
BRANCH  11  12
ATOM     12  C   UNL     1       1.752   5.304  18.297  0.00  0.00    +0.000 C 
BRANCH  12  13
ATOM     13  N   UNL     1       2.095   3.982  17.797  0.00  0.00    +0.000 N 
ATOM     14  H   UNL     1       2.183   3.832  16.800  0.00  0.00    +0.000 HD
BRANCH  13  15
ATOM     15  C   UNL     1       2.250   2.865  18.589  0.00  0.00    +0.000 C 
ATOM     16  S   UNL     1       3.425   1.693  18.401  0.00  0.00    +0.000 S 
BRANCH  15  18
ATOM     17  C   UNL     1       2.053   2.986  21.355  0.00  0.00    +0.000 C 
ATOM     18  S   UNL     1       1.041   2.921  19.859  0.00  0.00    +0.000 S 
ENDBRANCH  15  18
ENDBRANCH  13  15
ENDBRANCH  12  13
ENDBRANCH  11  12
ENDBRANCH   1  11
TORSDOF 5
ENDMDL
