MODEL 1
REMARK VINA RESULT:      -7.1      0.000      0.000
REMARK  Name = 
REMARK  12 active torsions:
REMARK  status: ('A' for Active; 'I' for Inactive)
REMARK    1  A    between atoms: C_1  and  C_2
REMARK    2  A    between atoms: C_2  and  C_3
REMARK    3  A    between atoms: C_3  and  C_4
REMARK    4  A    between atoms: C_4  and  C_5
REMARK    5  A    between atoms: C_5  and  C_6
REMARK    6  A    between atoms: C_6  and  S_7
REMARK    7  A    between atoms: S_7  and  C_8
REMARK    8  A    between atoms: C_12  and  C_13
REMARK    9  A    between atoms: C_13  and  C_15
REMARK   10  A    between atoms: C_15  and  C_16
REMARK   11  A    between atoms: C_16  and  N_17
REMARK   12  A    between atoms: C_21  and  C_22
REMARK                            x       y       z     vdW  Elec       q    Type
REMARK                         _______ _______ _______ _____ _____    ______ ____
ROOT
ATOM      1  C   UNL     1       5.420   5.181  16.996  0.00  0.00    +0.000 A 
ATOM      2  C   UNL     1       4.131   4.652  17.170  0.00  0.00    +0.000 A 
ATOM      3  C   UNL     1       3.092   5.417  17.727  0.00  0.00    +0.000 A 
ATOM      4 CL   UNL     1       1.549   4.649  17.836  0.00  0.00    +0.000 Cl
ATOM      5  C   UNL     1       3.335   6.737  18.118  0.00  0.00    +0.000 A 
ATOM      6  C   UNL     1       4.634   7.248  17.980  0.00  0.00    +0.000 A 
ATOM      7  C   UNL     1       5.659   6.495  17.405  0.00  0.00    +0.000 A 
ATOM      8 CL   UNL     1       7.170   7.311  17.199  0.00  0.00    +0.000 Cl
ENDROOT
BRANCH   5   9
ATOM      9  C   UNL     1       2.281   7.650  18.667  0.00  0.00    +0.000 C 
ATOM     10  O   UNL     1       1.957   7.583  19.846  0.00  0.00    +0.000 OA
BRANCH   9  11
ATOM     11  C   UNL     1       1.674   8.707  17.753  0.00  0.00    +0.000 C 
BRANCH  11  12
ATOM     12  C   UNL     1       1.766  10.097  18.376  0.00  0.00    +0.000 C 
BRANCH  12  13
ATOM     13  N   UNL     1       0.502  10.857  18.347  0.00  0.00    +0.000 NA
ATOM     14  C   UNL     1      -0.596  10.233  19.120  0.00  0.00    +0.000 C 
ATOM     15  C   UNL     1      -0.332  10.165  20.635  0.00  0.00    +0.000 C 
ATOM     16  N   UNL     1      -0.002  11.493  21.170  0.00  0.00    +0.000 N 
ATOM     17  C   UNL     1      -0.554  12.090  22.279  0.00  0.00    +0.000 C 
ATOM     18  C   UNL     1      -1.649  11.406  23.045  0.00  0.00    +0.000 C 
ATOM     19  O   UNL     1      -0.182  13.210  22.663  0.00  0.00    +0.000 OA
ATOM     20  C   UNL     1       1.042  12.213  20.424  0.00  0.00    +0.000 C 
ATOM     21  C   UNL     1       0.730  12.216  18.908  0.00  0.00    +0.000 C 
ENDBRANCH  12  13
ENDBRANCH  11  12
ENDBRANCH   9  11
ENDBRANCH   5   9
BRANCH   1  22
ATOM     22  S   UNL     1       6.615   4.144  16.176  0.00  0.00    +0.000 S 
BRANCH  22  23
ATOM     23  C   UNL     1       6.312   4.584  14.431  0.00  0.00    +0.000 C 
BRANCH  23  24
ATOM     24  C   UNL     1       6.238   3.291  13.628  0.00  0.00    +0.000 C 
BRANCH  24  25
ATOM     25  C   UNL     1       6.443   3.541  12.135  0.00  0.00    +0.000 C 
BRANCH  25  26
ATOM     26  C   UNL     1       5.369   2.816  11.325  0.00  0.00    +0.000 C 
BRANCH  26  28
ATOM     27  C   UNL     1       3.174   3.268  10.187  0.00  0.00    +0.000 C 
ATOM     28  C   UNL     1       4.022   3.526  11.422  0.00  0.00    +0.000 C 
ENDBRANCH  26  28
ENDBRANCH  25  26
ENDBRANCH  24  25
ENDBRANCH  23  24
ENDBRANCH  22  23
ENDBRANCH   1  22
TORSDOF 10
ENDMDL
MODEL 2
REMARK VINA RESULT:      -6.9      1.345      1.696
REMARK  Name = 
REMARK  12 active torsions:
REMARK  status: ('A' for Active; 'I' for Inactive)
REMARK    1  A    between atoms: C_1  and  C_2
REMARK    2  A    between atoms: C_2  and  C_3
REMARK    3  A    between atoms: C_3  and  C_4
REMARK    4  A    between atoms: C_4  and  C_5
REMARK    5  A    between atoms: C_5  and  C_6
REMARK    6  A    between atoms: C_6  and  S_7
REMARK    7  A    between atoms: S_7  and  C_8
REMARK    8  A    between atoms: C_12  and  C_13
REMARK    9  A    between atoms: C_13  and  C_15
REMARK   10  A    between atoms: C_15  and  C_16
REMARK   11  A    between atoms: C_16  and  N_17
REMARK   12  A    between atoms: C_21  and  C_22
REMARK                            x       y       z     vdW  Elec       q    Type
REMARK                         _______ _______ _______ _____ _____    ______ ____
ROOT
ATOM      1  C   UNL     1       5.409   4.981  16.718  0.00  0.00    +0.000 A 
ATOM      2  C   UNL     1       4.130   4.417  16.849  0.00  0.00    +0.000 A 
ATOM      3  C   UNL     1       3.152   4.998  17.673  0.00  0.00    +0.000 A 
ATOM      4 CL   UNL     1       1.610   4.219  17.699  0.00  0.00    +0.000 Cl
ATOM      5  C   UNL     1       3.446   6.167  18.381  0.00  0.00    +0.000 A 
ATOM      6  C   UNL     1       4.737   6.705  18.279  0.00  0.00    +0.000 A 
ATOM      7  C   UNL     1       5.701   6.140  17.442  0.00  0.00    +0.000 A 
ATOM      8 CL   UNL     1       7.203   6.991  17.338  0.00  0.00    +0.000 Cl
ENDROOT
BRANCH   5   9
ATOM      9  C   UNL     1       2.454   6.893  19.239  0.00  0.00    +0.000 C 
ATOM     10  O   UNL     1       2.068   6.400  20.292  0.00  0.00    +0.000 OA
BRANCH   9  11
ATOM     11  C   UNL     1       1.993   8.282  18.816  0.00  0.00    +0.000 C 
BRANCH  11  12
ATOM     12  C   UNL     1       1.329   9.022  19.974  0.00  0.00    +0.000 C 
BRANCH  12  13
ATOM     13  N   UNL     1       0.084   9.723  19.609  0.00  0.00    +0.000 NA
ATOM     14  C   UNL     1      -0.500  10.526  20.707  0.00  0.00    +0.000 C 
ATOM     15  C   UNL     1       0.380  11.709  21.151  0.00  0.00    +0.000 C 
ATOM     16  N   UNL     1       0.732  12.560  20.006  0.00  0.00    +0.000 N 
ATOM     17  C   UNL     1       0.624  13.930  19.940  0.00  0.00    +0.000 C 
ATOM     18  C   UNL     1       0.048  14.704  21.090  0.00  0.00    +0.000 C 
ATOM     19  O   UNL     1       0.977  14.557  18.929  0.00  0.00    +0.000 OA
ATOM     20  C   UNL     1       1.266  11.834  18.843  0.00  0.00    +0.000 C 
ATOM     21  C   UNL     1       0.350  10.644  18.471  0.00  0.00    +0.000 C 
ENDBRANCH  12  13
ENDBRANCH  11  12
ENDBRANCH   9  11
ENDBRANCH   5   9
BRANCH   1  22
ATOM     22  S   UNL     1       6.517   4.209  15.555  0.00  0.00    +0.000 S 
BRANCH  22  23
ATOM     23  C   UNL     1       5.436   4.067  14.091  0.00  0.00    +0.000 C 
BRANCH  23  24
ATOM     24  C   UNL     1       6.273   3.514  12.944  0.00  0.00    +0.000 C 
BRANCH  24  25
ATOM     25  C   UNL     1       5.399   2.879  11.864  0.00  0.00    +0.000 C 
BRANCH  25  26
ATOM     26  C   UNL     1       4.486   3.932  11.236  0.00  0.00    +0.000 C 
BRANCH  26  28
ATOM     27  C   UNL     1       2.756   4.195   9.433  0.00  0.00    +0.000 C 
ATOM     28  C   UNL     1       3.299   3.289  10.526  0.00  0.00    +0.000 C 
ENDBRANCH  26  28
ENDBRANCH  25  26
ENDBRANCH  24  25
ENDBRANCH  23  24
ENDBRANCH  22  23
ENDBRANCH   1  22
TORSDOF 10
ENDMDL
MODEL 3
REMARK VINA RESULT:      -6.8      3.330      4.846
REMARK  Name = 
REMARK  12 active torsions:
REMARK  status: ('A' for Active; 'I' for Inactive)
REMARK    1  A    between atoms: C_1  and  C_2
REMARK    2  A    between atoms: C_2  and  C_3
REMARK    3  A    between atoms: C_3  and  C_4
REMARK    4  A    between atoms: C_4  and  C_5
REMARK    5  A    between atoms: C_5  and  C_6
REMARK    6  A    between atoms: C_6  and  S_7
REMARK    7  A    between atoms: S_7  and  C_8
REMARK    8  A    between atoms: C_12  and  C_13
REMARK    9  A    between atoms: C_13  and  C_15
REMARK   10  A    between atoms: C_15  and  C_16
REMARK   11  A    between atoms: C_16  and  N_17
REMARK   12  A    between atoms: C_21  and  C_22
REMARK                            x       y       z     vdW  Elec       q    Type
REMARK                         _______ _______ _______ _____ _____    ______ ____
ROOT
ATOM      1  C   UNL     1       4.001   5.631  18.544  0.00  0.00    +0.000 A 
ATOM      2  C   UNL     1       3.126   5.942  19.596  0.00  0.00    +0.000 A 
ATOM      3  C   UNL     1       2.370   7.127  19.598  0.00  0.00    +0.000 A 
ATOM      4 CL   UNL     1       1.301   7.353  20.936  0.00  0.00    +0.000 Cl
ATOM      5  C   UNL     1       2.483   8.022  18.530  0.00  0.00    +0.000 A 
ATOM      6  C   UNL     1       3.388   7.727  17.501  0.00  0.00    +0.000 A 
ATOM      7  C   UNL     1       4.121   6.539  17.489  0.00  0.00    +0.000 A 
ATOM      8 CL   UNL     1       5.103   6.272  16.091  0.00  0.00    +0.000 Cl
ENDROOT
BRANCH   5   9
ATOM      9  C   UNL     1       1.678   9.282  18.412  0.00  0.00    +0.000 C 
ATOM     10  O   UNL     1       1.836  10.030  17.455  0.00  0.00    +0.000 OA
BRANCH   9  11
ATOM     11  C   UNL     1       0.614   9.576  19.462  0.00  0.00    +0.000 C 
BRANCH  11  12
ATOM     12  C   UNL     1      -0.193  10.819  19.098  0.00  0.00    +0.000 C 
BRANCH  12  13
ATOM     13  N   UNL     1      -0.281  11.821  20.177  0.00  0.00    +0.000 NA
ATOM     14  C   UNL     1       1.034  12.274  20.686  0.00  0.00    +0.000 C 
ATOM     15  C   UNL     1       1.876  13.038  19.648  0.00  0.00    +0.000 C 
ATOM     16  N   UNL     1       1.116  14.160  19.080  0.00  0.00    +0.000 N 
ATOM     17  C   UNL     1       1.550  15.459  18.947  0.00  0.00    +0.000 C 
ATOM     18  C   UNL     1       2.901  15.865  19.458  0.00  0.00    +0.000 C 
ATOM     19  O   UNL     1       0.834  16.328  18.425  0.00  0.00    +0.000 OA
ATOM     20  C   UNL     1      -0.230  13.810  18.602  0.00  0.00    +0.000 C 
ATOM     21  C   UNL     1      -1.008  13.020  19.681  0.00  0.00    +0.000 C 
ENDBRANCH  12  13
ENDBRANCH  11  12
ENDBRANCH   9  11
ENDBRANCH   5   9
BRANCH   1  22
ATOM     22  S   UNL     1       4.814   4.046  18.610  0.00  0.00    +0.000 S 
BRANCH  22  23
ATOM     23  C   UNL     1       3.904   3.138  17.315  0.00  0.00    +0.000 C 
BRANCH  23  24
ATOM     24  C   UNL     1       3.395   1.838  17.926  0.00  0.00    +0.000 C 
BRANCH  24  25
ATOM     25  C   UNL     1       2.734   2.072  19.283  0.00  0.00    +0.000 C 
BRANCH  25  26
ATOM     26  C   UNL     1       1.300   2.566  19.094  0.00  0.00    +0.000 C 
BRANCH  26  28
ATOM     27  C   UNL     1       1.426   2.823  21.591  0.00  0.00    +0.000 C 
ATOM     28  C   UNL     1       0.819   3.360  20.305  0.00  0.00    +0.000 C 
ENDBRANCH  26  28
ENDBRANCH  25  26
ENDBRANCH  24  25
ENDBRANCH  23  24
ENDBRANCH  22  23
ENDBRANCH   1  22
TORSDOF 10
ENDMDL
MODEL 4
REMARK VINA RESULT:      -6.7      3.389      4.840
REMARK  Name = 
REMARK  12 active torsions:
REMARK  status: ('A' for Active; 'I' for Inactive)
REMARK    1  A    between atoms: C_1  and  C_2
REMARK    2  A    between atoms: C_2  and  C_3
REMARK    3  A    between atoms: C_3  and  C_4
REMARK    4  A    between atoms: C_4  and  C_5
REMARK    5  A    between atoms: C_5  and  C_6
REMARK    6  A    between atoms: C_6  and  S_7
REMARK    7  A    between atoms: S_7  and  C_8
REMARK    8  A    between atoms: C_12  and  C_13
REMARK    9  A    between atoms: C_13  and  C_15
REMARK   10  A    between atoms: C_15  and  C_16
REMARK   11  A    between atoms: C_16  and  N_17
REMARK   12  A    between atoms: C_21  and  C_22
REMARK                            x       y       z     vdW  Elec       q    Type
REMARK                         _______ _______ _______ _____ _____    ______ ____
ROOT
ATOM      1  C   UNL     1       4.014   5.854  18.199  0.00  0.00    +0.000 A 
ATOM      2  C   UNL     1       3.153   6.186  19.257  0.00  0.00    +0.000 A 
ATOM      3  C   UNL     1       2.425   7.388  19.261  0.00  0.00    +0.000 A 
ATOM      4 CL   UNL     1       1.371   7.641  20.606  0.00  0.00    +0.000 Cl
ATOM      5  C   UNL     1       2.549   8.278  18.190  0.00  0.00    +0.000 A 
ATOM      6  C   UNL     1       3.439   7.961  17.155  0.00  0.00    +0.000 A 
ATOM      7  C   UNL     1       4.146   6.757  17.141  0.00  0.00    +0.000 A 
ATOM      8 CL   UNL     1       5.111   6.464  15.736  0.00  0.00    +0.000 Cl
ENDROOT
BRANCH   5   9
ATOM      9  C   UNL     1       1.771   9.555  18.075  0.00  0.00    +0.000 C 
ATOM     10  O   UNL     1       2.353  10.631  18.020  0.00  0.00    +0.000 OA
BRANCH   9  11
ATOM     11  C   UNL     1       0.254   9.484  17.955  0.00  0.00    +0.000 C 
BRANCH  11  12
ATOM     12  C   UNL     1      -0.425  10.401  18.969  0.00  0.00    +0.000 C 
BRANCH  12  13
ATOM     13  N   UNL     1      -0.819  11.715  18.426  0.00  0.00    +0.000 NA
ATOM     14  C   UNL     1      -2.046  11.682  17.599  0.00  0.00    +0.000 C 
ATOM     15  C   UNL     1      -3.315  11.297  18.379  0.00  0.00    +0.000 C 
ATOM     16  N   UNL     1      -3.495  12.165  19.551  0.00  0.00    +0.000 N 
ATOM     17  C   UNL     1      -4.647  12.822  19.916  0.00  0.00    +0.000 C 
ATOM     18  C   UNL     1      -5.874  12.739  19.055  0.00  0.00    +0.000 C 
ATOM     19  O   UNL     1      -4.699  13.513  20.946  0.00  0.00    +0.000 OA
ATOM     20  C   UNL     1      -2.301  12.304  20.400  0.00  0.00    +0.000 C 
ATOM     21  C   UNL     1      -1.059  12.661  19.550  0.00  0.00    +0.000 C 
ENDBRANCH  12  13
ENDBRANCH  11  12
ENDBRANCH   9  11
ENDBRANCH   5   9
BRANCH   1  22
ATOM     22  S   UNL     1       4.792   4.252  18.263  0.00  0.00    +0.000 S 
BRANCH  22  23
ATOM     23  C   UNL     1       3.556   3.233  17.387  0.00  0.00    +0.000 C 
BRANCH  23  24
ATOM     24  C   UNL     1       3.004   2.214  18.377  0.00  0.00    +0.000 C 
BRANCH  24  25
ATOM     25  C   UNL     1       1.480   2.276  18.459  0.00  0.00    +0.000 C 
BRANCH  25  26
ATOM     26  C   UNL     1       1.028   2.269  19.919  0.00  0.00    +0.000 C 
BRANCH  26  28
ATOM     27  C   UNL     1       2.093   3.687  21.701  0.00  0.00    +0.000 C 
ATOM     28  C   UNL     1       1.116   3.662  20.537  0.00  0.00    +0.000 C 
ENDBRANCH  26  28
ENDBRANCH  25  26
ENDBRANCH  24  25
ENDBRANCH  23  24
ENDBRANCH  22  23
ENDBRANCH   1  22
TORSDOF 10
ENDMDL
MODEL 5
REMARK VINA RESULT:      -6.7      1.825      2.577
REMARK  Name = 
REMARK  12 active torsions:
REMARK  status: ('A' for Active; 'I' for Inactive)
REMARK    1  A    between atoms: C_1  and  C_2
REMARK    2  A    between atoms: C_2  and  C_3
REMARK    3  A    between atoms: C_3  and  C_4
REMARK    4  A    between atoms: C_4  and  C_5
REMARK    5  A    between atoms: C_5  and  C_6
REMARK    6  A    between atoms: C_6  and  S_7
REMARK    7  A    between atoms: S_7  and  C_8
REMARK    8  A    between atoms: C_12  and  C_13
REMARK    9  A    between atoms: C_13  and  C_15
REMARK   10  A    between atoms: C_15  and  C_16
REMARK   11  A    between atoms: C_16  and  N_17
REMARK   12  A    between atoms: C_21  and  C_22
REMARK                            x       y       z     vdW  Elec       q    Type
REMARK                         _______ _______ _______ _____ _____    ______ ____
ROOT
ATOM      1  C   UNL     1       5.584   5.025  16.381  0.00  0.00    +0.000 A 
ATOM      2  C   UNL     1       4.481   4.156  16.358  0.00  0.00    +0.000 A 
ATOM      3  C   UNL     1       3.626   4.025  17.466  0.00  0.00    +0.000 A 
ATOM      4 CL   UNL     1       2.284   2.954  17.276  0.00  0.00    +0.000 Cl
ATOM      5  C   UNL     1       3.867   4.776  18.621  0.00  0.00    +0.000 A 
ATOM      6  C   UNL     1       4.992   5.612  18.654  0.00  0.00    +0.000 A 
ATOM      7  C   UNL     1       5.828   5.758  17.545  0.00  0.00    +0.000 A 
ATOM      8 CL   UNL     1       7.102   6.917  17.708  0.00  0.00    +0.000 Cl
ENDROOT
BRANCH   5   9
ATOM      9  C   UNL     1       2.981   4.750  19.830  0.00  0.00    +0.000 C 
ATOM     10  O   UNL     1       3.026   3.807  20.610  0.00  0.00    +0.000 OA
BRANCH   9  11
ATOM     11  C   UNL     1       2.081   5.947  20.108  0.00  0.00    +0.000 C 
BRANCH  11  12
ATOM     12  C   UNL     1       1.936   6.830  18.871  0.00  0.00    +0.000 C 
BRANCH  12  13
ATOM     13  N   UNL     1       2.440   8.205  19.048  0.00  0.00    +0.000 NA
ATOM     14  C   UNL     1       2.063   9.130  17.955  0.00  0.00    +0.000 C 
ATOM     15  C   UNL     1       0.549   9.386  17.849  0.00  0.00    +0.000 C 
ATOM     16  N   UNL     1       0.002   9.840  19.135  0.00  0.00    +0.000 N 
ATOM     17  C   UNL     1      -0.816  10.928  19.340  0.00  0.00    +0.000 C 
ATOM     18  C   UNL     1      -1.190  11.823  18.195  0.00  0.00    +0.000 C 
ATOM     19  O   UNL     1      -1.246  11.209  20.470  0.00  0.00    +0.000 OA
ATOM     20  C   UNL     1       0.378   9.010  20.290  0.00  0.00    +0.000 C 
ATOM     21  C   UNL     1       1.906   8.767  20.318  0.00  0.00    +0.000 C 
ENDBRANCH  12  13
ENDBRANCH  11  12
ENDBRANCH   9  11
ENDBRANCH   5   9
BRANCH   1  22
ATOM     22  S   UNL     1       6.521   5.180  14.874  0.00  0.00    +0.000 S 
BRANCH  22  23
ATOM     23  C   UNL     1       6.177   3.570  14.086  0.00  0.00    +0.000 C 
BRANCH  23  24
ATOM     24  C   UNL     1       6.389   3.728  12.586  0.00  0.00    +0.000 C 
BRANCH  24  25
ATOM     25  C   UNL     1       5.429   2.850  11.785  0.00  0.00    +0.000 C 
BRANCH  25  26
ATOM     26  C   UNL     1       4.064   3.528  11.670  0.00  0.00    +0.000 C 
BRANCH  26  28
ATOM     27  C   UNL     1       2.929   4.290   9.561  0.00  0.00    +0.000 C 
ATOM     28  C   UNL     1       3.329   3.092  10.406  0.00  0.00    +0.000 C 
ENDBRANCH  26  28
ENDBRANCH  25  26
ENDBRANCH  24  25
ENDBRANCH  23  24
ENDBRANCH  22  23
ENDBRANCH   1  22
TORSDOF 10
ENDMDL
MODEL 6
REMARK VINA RESULT:      -6.7      4.198      9.137
REMARK  Name = 
REMARK  12 active torsions:
REMARK  status: ('A' for Active; 'I' for Inactive)
REMARK    1  A    between atoms: C_1  and  C_2
REMARK    2  A    between atoms: C_2  and  C_3
REMARK    3  A    between atoms: C_3  and  C_4
REMARK    4  A    between atoms: C_4  and  C_5
REMARK    5  A    between atoms: C_5  and  C_6
REMARK    6  A    between atoms: C_6  and  S_7
REMARK    7  A    between atoms: S_7  and  C_8
REMARK    8  A    between atoms: C_12  and  C_13
REMARK    9  A    between atoms: C_13  and  C_15
REMARK   10  A    between atoms: C_15  and  C_16
REMARK   11  A    between atoms: C_16  and  N_17
REMARK   12  A    between atoms: C_21  and  C_22
REMARK                            x       y       z     vdW  Elec       q    Type
REMARK                         _______ _______ _______ _____ _____    ______ ____
ROOT
ATOM      1  C   UNL     1       0.840  10.301  20.402  0.00  0.00    +0.000 A 
ATOM      2  C   UNL     1       1.416   9.721  19.261  0.00  0.00    +0.000 A 
ATOM      3  C   UNL     1       1.812   8.373  19.242  0.00  0.00    +0.000 A 
ATOM      4 CL   UNL     1       2.463   7.786  17.754  0.00  0.00    +0.000 Cl
ATOM      5  C   UNL     1       1.630   7.581  20.380  0.00  0.00    +0.000 A 
ATOM      6  C   UNL     1       1.091   8.174  21.530  0.00  0.00    +0.000 A 
ATOM      7  C   UNL     1       0.677   9.507  21.540  0.00  0.00    +0.000 A 
ATOM      8 CL   UNL     1      -0.076  10.053  22.999  0.00  0.00    +0.000 Cl
ENDROOT
BRANCH   5   9
ATOM      9  C   UNL     1       1.966   6.121  20.440  0.00  0.00    +0.000 C 
ATOM     10  O   UNL     1       1.128   5.307  20.809  0.00  0.00    +0.000 OA
BRANCH   9  11
ATOM     11  C   UNL     1       3.339   5.662  19.966  0.00  0.00    +0.000 C 
BRANCH  11  12
ATOM     12  C   UNL     1       3.224   4.516  18.964  0.00  0.00    +0.000 C 
BRANCH  12  13
ATOM     13  N   UNL     1       4.461   3.729  18.802  0.00  0.00    +0.000 NA
ATOM     14  C   UNL     1       4.542   2.990  17.522  0.00  0.00    +0.000 C 
ATOM     15  C   UNL     1       4.609   3.897  16.280  0.00  0.00    +0.000 C 
ATOM     16  N   UNL     1       5.708   4.867  16.398  0.00  0.00    +0.000 N 
ATOM     17  C   UNL     1       6.663   5.142  15.447  0.00  0.00    +0.000 C 
ATOM     18  C   UNL     1       6.689   4.381  14.153  0.00  0.00    +0.000 C 
ATOM     19  O   UNL     1       7.535   6.004  15.638  0.00  0.00    +0.000 OA
ATOM     20  C   UNL     1       5.740   5.606  17.669  0.00  0.00    +0.000 C 
ATOM     21  C   UNL     1       5.638   4.638  18.871  0.00  0.00    +0.000 C 
ENDBRANCH  12  13
ENDBRANCH  11  12
ENDBRANCH   9  11
ENDBRANCH   5   9
BRANCH   1  22
ATOM     22  S   UNL     1       0.279  11.987  20.257  0.00  0.00    +0.000 S 
BRANCH  22  23
ATOM     23  C   UNL     1      -1.431  11.732  19.674  0.00  0.00    +0.000 C 
BRANCH  23  24
ATOM     24  C   UNL     1      -1.406  11.699  18.150  0.00  0.00    +0.000 C 
BRANCH  24  25
ATOM     25  C   UNL     1      -2.076  10.440  17.602  0.00  0.00    +0.000 C 
BRANCH  25  26
ATOM     26  C   UNL     1      -3.584  10.657  17.475  0.00  0.00    +0.000 C 
BRANCH  26  28
ATOM     27  C   UNL     1      -2.861  10.408  15.081  0.00  0.00    +0.000 C 
ATOM     28  C   UNL     1      -4.014  10.742  16.013  0.00  0.00    +0.000 C 
ENDBRANCH  26  28
ENDBRANCH  25  26
ENDBRANCH  24  25
ENDBRANCH  23  24
ENDBRANCH  22  23
ENDBRANCH   1  22
TORSDOF 10
ENDMDL
MODEL 7
REMARK VINA RESULT:      -6.6      3.119      4.510
REMARK  Name = 
REMARK  12 active torsions:
REMARK  status: ('A' for Active; 'I' for Inactive)
REMARK    1  A    between atoms: C_1  and  C_2
REMARK    2  A    between atoms: C_2  and  C_3
REMARK    3  A    between atoms: C_3  and  C_4
REMARK    4  A    between atoms: C_4  and  C_5
REMARK    5  A    between atoms: C_5  and  C_6
REMARK    6  A    between atoms: C_6  and  S_7
REMARK    7  A    between atoms: S_7  and  C_8
REMARK    8  A    between atoms: C_12  and  C_13
REMARK    9  A    between atoms: C_13  and  C_15
REMARK   10  A    between atoms: C_15  and  C_16
REMARK   11  A    between atoms: C_16  and  N_17
REMARK   12  A    between atoms: C_21  and  C_22
REMARK                            x       y       z     vdW  Elec       q    Type
REMARK                         _______ _______ _______ _____ _____    ______ ____
ROOT
ATOM      1  C   UNL     1       4.028   5.590  18.563  0.00  0.00    +0.000 A 
ATOM      2  C   UNL     1       3.147   5.907  19.609  0.00  0.00    +0.000 A 
ATOM      3  C   UNL     1       2.399   7.096  19.605  0.00  0.00    +0.000 A 
ATOM      4 CL   UNL     1       1.322   7.329  20.935  0.00  0.00    +0.000 Cl
ATOM      5  C   UNL     1       2.523   7.990  18.536  0.00  0.00    +0.000 A 
ATOM      6  C   UNL     1       3.433   7.689  17.514  0.00  0.00    +0.000 A 
ATOM      7  C   UNL     1       4.159   6.497  17.508  0.00  0.00    +0.000 A 
ATOM      8 CL   UNL     1       5.149   6.222  16.115  0.00  0.00    +0.000 Cl
ENDROOT
BRANCH   5   9
ATOM      9  C   UNL     1       1.726   9.253  18.412  0.00  0.00    +0.000 C 
ATOM     10  O   UNL     1       1.841   9.963  17.421  0.00  0.00    +0.000 OA
BRANCH   9  11
ATOM     11  C   UNL     1       0.720   9.599  19.503  0.00  0.00    +0.000 C 
BRANCH  11  12
ATOM     12  C   UNL     1      -0.277  10.650  19.023  0.00  0.00    +0.000 C 
BRANCH  12  13
ATOM     13  N   UNL     1      -0.067  11.992  19.599  0.00  0.00    +0.000 NA
ATOM     14  C   UNL     1      -1.175  12.939  19.341  0.00  0.00    +0.000 C 
ATOM     15  C   UNL     1      -2.504  12.542  20.008  0.00  0.00    +0.000 C 
ATOM     16  N   UNL     1      -2.324  12.323  21.450  0.00  0.00    +0.000 N 
ATOM     17  C   UNL     1      -3.097  12.845  22.461  0.00  0.00    +0.000 C 
ATOM     18  C   UNL     1      -4.226  13.784  22.147  0.00  0.00    +0.000 C 
ATOM     19  O   UNL     1      -2.874  12.574  23.651  0.00  0.00    +0.000 OA
ATOM     20  C   UNL     1      -1.203  11.438  21.800  0.00  0.00    +0.000 C 
ATOM     21  C   UNL     1       0.092  11.876  21.074  0.00  0.00    +0.000 C 
ENDBRANCH  12  13
ENDBRANCH  11  12
ENDBRANCH   9  11
ENDBRANCH   5   9
BRANCH   1  22
ATOM     22  S   UNL     1       4.832   4.001  18.636  0.00  0.00    +0.000 S 
BRANCH  22  23
ATOM     23  C   UNL     1       3.987   3.125  17.276  0.00  0.00    +0.000 C 
BRANCH  23  24
ATOM     24  C   UNL     1       3.310   1.892  17.862  0.00  0.00    +0.000 C 
BRANCH  24  25
ATOM     25  C   UNL     1       2.822   2.141  19.288  0.00  0.00    +0.000 C 
BRANCH  25  26
ATOM     26  C   UNL     1       1.328   2.463  19.287  0.00  0.00    +0.000 C 
BRANCH  26  28
ATOM     27  C   UNL     1       1.708   2.938  21.726  0.00  0.00    +0.000 C 
ATOM     28  C   UNL     1       0.946   3.342  20.474  0.00  0.00    +0.000 C 
ENDBRANCH  26  28
ENDBRANCH  25  26
ENDBRANCH  24  25
ENDBRANCH  23  24
ENDBRANCH  22  23
ENDBRANCH   1  22
TORSDOF 10
ENDMDL
MODEL 8
REMARK VINA RESULT:      -6.5      2.531      3.112
REMARK  Name = 
REMARK  12 active torsions:
REMARK  status: ('A' for Active; 'I' for Inactive)
REMARK    1  A    between atoms: C_1  and  C_2
REMARK    2  A    between atoms: C_2  and  C_3
REMARK    3  A    between atoms: C_3  and  C_4
REMARK    4  A    between atoms: C_4  and  C_5
REMARK    5  A    between atoms: C_5  and  C_6
REMARK    6  A    between atoms: C_6  and  S_7
REMARK    7  A    between atoms: S_7  and  C_8
REMARK    8  A    between atoms: C_12  and  C_13
REMARK    9  A    between atoms: C_13  and  C_15
REMARK   10  A    between atoms: C_15  and  C_16
REMARK   11  A    between atoms: C_16  and  N_17
REMARK   12  A    between atoms: C_21  and  C_22
REMARK                            x       y       z     vdW  Elec       q    Type
REMARK                         _______ _______ _______ _____ _____    ______ ____
ROOT
ATOM      1  C   UNL     1       3.856   5.469  17.867  0.00  0.00    +0.000 A 
ATOM      2  C   UNL     1       3.079   5.274  19.019  0.00  0.00    +0.000 A 
ATOM      3  C   UNL     1       2.317   6.316  19.576  0.00  0.00    +0.000 A 
ATOM      4 CL   UNL     1       1.374   5.917  20.968  0.00  0.00    +0.000 Cl
ATOM      5  C   UNL     1       2.323   7.578  18.975  0.00  0.00    +0.000 A 
ATOM      6  C   UNL     1       3.132   7.779  17.847  0.00  0.00    +0.000 A 
ATOM      7  C   UNL     1       3.870   6.738  17.282  0.00  0.00    +0.000 A 
ATOM      8 CL   UNL     1       4.721   7.120  15.825  0.00  0.00    +0.000 Cl
ENDROOT
BRANCH   5   9
ATOM      9  C   UNL     1       1.501   8.735  19.458  0.00  0.00    +0.000 C 
ATOM     10  O   UNL     1       1.457   9.007  20.652  0.00  0.00    +0.000 OA
BRANCH   9  11
ATOM     11  C   UNL     1       0.782   9.605  18.435  0.00  0.00    +0.000 C 
BRANCH  11  12
ATOM     12  C   UNL     1      -0.163  10.592  19.115  0.00  0.00    +0.000 C 
BRANCH  12  13
ATOM     13  N   UNL     1      -0.708  11.625  18.214  0.00  0.00    +0.000 NA
ATOM     14  C   UNL     1      -1.719  11.118  17.258  0.00  0.00    +0.000 C 
ATOM     15  C   UNL     1      -3.007  10.604  17.925  0.00  0.00    +0.000 C 
ATOM     16  N   UNL     1      -3.585  11.627  18.808  0.00  0.00    +0.000 N 
ATOM     17  C   UNL     1      -4.896  12.042  18.834  0.00  0.00    +0.000 C 
ATOM     18  C   UNL     1      -5.890  11.481  17.859  0.00  0.00    +0.000 C 
ATOM     19  O   UNL     1      -5.288  12.898  19.643  0.00  0.00    +0.000 OA
ATOM     20  C   UNL     1      -2.633  12.230  19.754  0.00  0.00    +0.000 C 
ATOM     21  C   UNL     1      -1.352  12.696  19.023  0.00  0.00    +0.000 C 
ENDBRANCH  12  13
ENDBRANCH  11  12
ENDBRANCH   9  11
ENDBRANCH   5   9
BRANCH   1  22
ATOM     22  S   UNL     1       4.684   4.039  17.200  0.00  0.00    +0.000 S 
BRANCH  22  23
ATOM     23  C   UNL     1       6.430   4.544  17.366  0.00  0.00    +0.000 C 
BRANCH  23  24
ATOM     24  C   UNL     1       7.035   4.602  15.969  0.00  0.00    +0.000 C 
BRANCH  24  25
ATOM     25  C   UNL     1       6.287   3.696  14.992  0.00  0.00    +0.000 C 
BRANCH  25  26
ATOM     26  C   UNL     1       6.162   4.378  13.630  0.00  0.00    +0.000 C 
BRANCH  26  28
ATOM     27  C   UNL     1       4.728   3.385  11.820  0.00  0.00    +0.000 C 
ATOM     28  C   UNL     1       6.088   3.356  12.499  0.00  0.00    +0.000 C 
ENDBRANCH  26  28
ENDBRANCH  25  26
ENDBRANCH  24  25
ENDBRANCH  23  24
ENDBRANCH  22  23
ENDBRANCH   1  22
TORSDOF 10
ENDMDL
MODEL 9
REMARK VINA RESULT:      -6.4      4.247      9.601
REMARK  Name = 
REMARK  12 active torsions:
REMARK  status: ('A' for Active; 'I' for Inactive)
REMARK    1  A    between atoms: C_1  and  C_2
REMARK    2  A    between atoms: C_2  and  C_3
REMARK    3  A    between atoms: C_3  and  C_4
REMARK    4  A    between atoms: C_4  and  C_5
REMARK    5  A    between atoms: C_5  and  C_6
REMARK    6  A    between atoms: C_6  and  S_7
REMARK    7  A    between atoms: S_7  and  C_8
REMARK    8  A    between atoms: C_12  and  C_13
REMARK    9  A    between atoms: C_13  and  C_15
REMARK   10  A    between atoms: C_15  and  C_16
REMARK   11  A    between atoms: C_16  and  N_17
REMARK   12  A    between atoms: C_21  and  C_22
REMARK                            x       y       z     vdW  Elec       q    Type
REMARK                         _______ _______ _______ _____ _____    ______ ____
ROOT
ATOM      1  C   UNL     1       0.754   9.923  20.337  0.00  0.00    +0.000 A 
ATOM      2  C   UNL     1       1.417   9.614  19.140  0.00  0.00    +0.000 A 
ATOM      3  C   UNL     1       1.954   8.337  18.906  0.00  0.00    +0.000 A 
ATOM      4 CL   UNL     1       2.701   8.088  17.369  0.00  0.00    +0.000 Cl
ATOM      5  C   UNL     1       1.828   7.342  19.881  0.00  0.00    +0.000 A 
ATOM      6  C   UNL     1       1.201   7.668  21.092  0.00  0.00    +0.000 A 
ATOM      7  C   UNL     1       0.647   8.930  21.314  0.00  0.00    +0.000 A 
ATOM      8 CL   UNL     1      -0.196   9.132  22.811  0.00  0.00    +0.000 Cl
ENDROOT
BRANCH   5   9
ATOM      9  C   UNL     1       2.315   5.936  19.704  0.00  0.00    +0.000 C 
ATOM     10  O   UNL     1       1.540   5.049  19.368  0.00  0.00    +0.000 OA
BRANCH   9  11
ATOM     11  C   UNL     1       3.801   5.644  19.877  0.00  0.00    +0.000 C 
BRANCH  11  12
ATOM     12  C   UNL     1       4.541   5.731  18.546  0.00  0.00    +0.000 C 
BRANCH  12  13
ATOM     13  N   UNL     1       5.443   4.595  18.280  0.00  0.00    +0.000 NA
ATOM     14  C   UNL     1       4.974   3.691  17.205  0.00  0.00    +0.000 C 
ATOM     15  C   UNL     1       4.919   4.350  15.815  0.00  0.00    +0.000 C 
ATOM     16  N   UNL     1       6.214   4.952  15.468  0.00  0.00    +0.000 N 
ATOM     17  C   UNL     1       6.904   4.790  14.289  0.00  0.00    +0.000 C 
ATOM     18  C   UNL     1       6.375   3.880  13.218  0.00  0.00    +0.000 C 
ATOM     19  O   UNL     1       7.982   5.369  14.086  0.00  0.00    +0.000 OA
ATOM     20  C   UNL     1       6.785   5.821  16.508  0.00  0.00    +0.000 C 
ATOM     21  C   UNL     1       6.782   5.110  17.882  0.00  0.00    +0.000 C 
ENDBRANCH  12  13
ENDBRANCH  11  12
ENDBRANCH   9  11
ENDBRANCH   5   9
BRANCH   1  22
ATOM     22  S   UNL     1       0.022  11.544  20.461  0.00  0.00    +0.000 S 
BRANCH  22  23
ATOM     23  C   UNL     1      -1.555  11.277  19.581  0.00  0.00    +0.000 C 
BRANCH  23  24
ATOM     24  C   UNL     1      -1.251  11.195  18.090  0.00  0.00    +0.000 C 
BRANCH  24  25
ATOM     25  C   UNL     1      -2.509  11.390  17.246  0.00  0.00    +0.000 C 
BRANCH  25  26
ATOM     26  C   UNL     1      -3.618  10.454  17.726  0.00  0.00    +0.000 C 
BRANCH  26  28
ATOM     27  C   UNL     1      -5.272  11.829  19.026  0.00  0.00    +0.000 C 
ATOM     28  C   UNL     1      -4.979  11.143  17.702  0.00  0.00    +0.000 C 
ENDBRANCH  26  28
ENDBRANCH  25  26
ENDBRANCH  24  25
ENDBRANCH  23  24
ENDBRANCH  22  23
ENDBRANCH   1  22
TORSDOF 10
ENDMDL
