MODEL 1
REMARK VINA RESULT:      -5.3      0.000      0.000
REMARK  Name = 
REMARK  26 active torsions:
REMARK  status: ('A' for Active; 'I' for Inactive)
REMARK    1  A    between atoms: C_1  and  C_2
REMARK    2  A    between atoms: C_2  and  C_3
REMARK    3  A    between atoms: C_3  and  C_4
REMARK    4  A    between atoms: C_4  and  C_5
REMARK    5  A    between atoms: C_5  and  C_6
REMARK    6  A    between atoms: C_6  and  C_7
REMARK    7  A    between atoms: C_7  and  C_8
REMARK    8  A    between atoms: C_8  and  C_9
REMARK    9  A    between atoms: C_9  and  C_10
REMARK   10  A    between atoms: C_10  and  C_11
REMARK   11  A    between atoms: C_11  and  C_12
REMARK   12  A    between atoms: C_12  and  C_13
REMARK   13  A    between atoms: C_13  and  C_14
REMARK   14  A    between atoms: C_14  and  C_15
REMARK   15  A    between atoms: C_15  and  C_16
REMARK   16  A    between atoms: C_16  and  C_17
REMARK   17  A    between atoms: C_17  and  C_18
REMARK   18  A    between atoms: C_18  and  O_19
REMARK   19  A    between atoms: O_19  and  C_20
REMARK   20  A    between atoms: C_20  and  C_21
REMARK   21  A    between atoms: C_21  and  C_22
REMARK   22  A    between atoms: C_21  and  N_26
REMARK   23  A    between atoms: C_22  and  C_23
REMARK   24  A    between atoms: C_23  and  C_24
REMARK   25  A    between atoms: C_24  and  O_25
REMARK   26  A    between atoms: C_27  and  C_28
REMARK                            x       y       z     vdW  Elec       q    Type
REMARK                         _______ _______ _______ _____ _____    ______ ____
ROOT
ATOM      1  C   UNL     1       3.333   7.566  18.024  0.00  0.00    +0.000 C 
ENDROOT
BRANCH   1   2
ATOM      2  C   UNL     1       2.000   8.294  17.922  0.00  0.00    +0.000 C 
BRANCH   2   3
ATOM      3  C   UNL     1       2.228   9.796  17.813  0.00  0.00    +0.000 C 
BRANCH   3   4
ATOM      4  O   UNL     1       1.135  10.466  18.431  0.00  0.00    +0.000 OA
BRANCH   4   5
ATOM      5  C   UNL     1       1.558  11.651  19.114  0.00  0.00    +0.000 C 
BRANCH   5   6
ATOM      6  C   UNL     1       0.819  11.764  20.457  0.00  0.00    +0.000 C 
BRANCH   6   7
ATOM      7  N   UNL     1       0.069  10.544  20.744  0.00  0.00    +0.000 N 
ATOM      8  C   UNL     1       0.504   9.638  21.680  0.00  0.00    +0.000 C 
ATOM      9  C   UNL     1      -0.384   8.425  21.821  0.00  0.00    +0.000 C 
ATOM     10  O   UNL     1       1.521   9.783  22.347  0.00  0.00    +0.000 OA
ATOM     11  H   UNL     1      -0.710  10.296  20.148  0.00  0.00    +0.000 HD
ENDBRANCH   6   7
BRANCH   6  12
ATOM     12  C   UNL     1      -0.121  12.984  20.487  0.00  0.00    +0.000 C 
BRANCH  12  13
ATOM     13  C   UNL     1      -1.306  12.885  19.517  0.00  0.00    +0.000 C 
BRANCH  13  14
ATOM     14  C   UNL     1      -2.663  12.928  20.210  0.00  0.00    +0.000 C 
BRANCH  14  15
ATOM     15  O   UNL     1      -3.694  12.559  19.291  0.00  0.00    +0.000 OA
ATOM     16  H   UNL     1      -3.342  11.846  18.727  0.00  0.00    +0.000 HD
ENDBRANCH  14  15
ENDBRANCH  13  14
ENDBRANCH  12  13
ENDBRANCH   6  12
ENDBRANCH   5   6
ENDBRANCH   4   5
ENDBRANCH   3   4
ENDBRANCH   2   3
ENDBRANCH   1   2
BRANCH   1  17
ATOM     17  C   UNL     1       3.317   6.508  19.123  0.00  0.00    +0.000 C 
BRANCH  17  18
ATOM     18  C   UNL     1       1.960   5.813  19.147  0.00  0.00    +0.000 C 
BRANCH  18  19
ATOM     19  C   UNL     1       1.565   5.440  20.568  0.00  0.00    +0.000 C 
BRANCH  19  20
ATOM     20  C   UNL     1       1.206   3.962  20.642  0.00  0.00    +0.000 C 
BRANCH  20  21
ATOM     21  C   UNL     1       2.300   3.190  21.362  0.00  0.00    +0.000 C 
BRANCH  21  22
ATOM     22  C   UNL     1       3.155   2.430  20.360  0.00  0.00    +0.000 C 
BRANCH  22  23
ATOM     23  C   UNL     1       2.371   2.182  19.082  0.00  0.00    +0.000 C 
BRANCH  23  24
ATOM     24  C   UNL     1       3.312   2.108  17.890  0.00  0.00    +0.000 C 
BRANCH  24  25
ATOM     25  C   UNL     1       4.384   3.180  17.997  0.00  0.00    +0.000 C 
BRANCH  25  26
ATOM     26  C   UNL     1       4.399   4.042  16.742  0.00  0.00    +0.000 C 
BRANCH  26  27
ATOM     27  C   UNL     1       5.798   4.581  16.482  0.00  0.00    +0.000 C 
BRANCH  27  28
ATOM     28  C   UNL     1       6.613   4.600  17.770  0.00  0.00    +0.000 C 
BRANCH  28  29
ATOM     29  C   UNL     1       6.810   6.030  18.258  0.00  0.00    +0.000 C 
BRANCH  29  31
ATOM     30  C   UNL     1       7.874   8.238  17.724  0.00  0.00    +0.000 C 
ATOM     31  C   UNL     1       7.422   6.902  17.164  0.00  0.00    +0.000 C 
ENDBRANCH  29  31
ENDBRANCH  28  29
ENDBRANCH  27  28
ENDBRANCH  26  27
ENDBRANCH  25  26
ENDBRANCH  24  25
ENDBRANCH  23  24
ENDBRANCH  22  23
ENDBRANCH  21  22
ENDBRANCH  20  21
ENDBRANCH  19  20
ENDBRANCH  18  19
ENDBRANCH  17  18
ENDBRANCH   1  17
TORSDOF 24
ENDMDL
MODEL 2
REMARK VINA RESULT:      -5.3      2.048      3.649
REMARK  Name = 
REMARK  26 active torsions:
REMARK  status: ('A' for Active; 'I' for Inactive)
REMARK    1  A    between atoms: C_1  and  C_2
REMARK    2  A    between atoms: C_2  and  C_3
REMARK    3  A    between atoms: C_3  and  C_4
REMARK    4  A    between atoms: C_4  and  C_5
REMARK    5  A    between atoms: C_5  and  C_6
REMARK    6  A    between atoms: C_6  and  C_7
REMARK    7  A    between atoms: C_7  and  C_8
REMARK    8  A    between atoms: C_8  and  C_9
REMARK    9  A    between atoms: C_9  and  C_10
REMARK   10  A    between atoms: C_10  and  C_11
REMARK   11  A    between atoms: C_11  and  C_12
REMARK   12  A    between atoms: C_12  and  C_13
REMARK   13  A    between atoms: C_13  and  C_14
REMARK   14  A    between atoms: C_14  and  C_15
REMARK   15  A    between atoms: C_15  and  C_16
REMARK   16  A    between atoms: C_16  and  C_17
REMARK   17  A    between atoms: C_17  and  C_18
REMARK   18  A    between atoms: C_18  and  O_19
REMARK   19  A    between atoms: O_19  and  C_20
REMARK   20  A    between atoms: C_20  and  C_21
REMARK   21  A    between atoms: C_21  and  C_22
REMARK   22  A    between atoms: C_21  and  N_26
REMARK   23  A    between atoms: C_22  and  C_23
REMARK   24  A    between atoms: C_23  and  C_24
REMARK   25  A    between atoms: C_24  and  O_25
REMARK   26  A    between atoms: C_27  and  C_28
REMARK                            x       y       z     vdW  Elec       q    Type
REMARK                         _______ _______ _______ _____ _____    ______ ____
ROOT
ATOM      1  C   UNL     1       0.745   9.856  18.573  0.00  0.00    +0.000 C 
ENDROOT
BRANCH   1   2
ATOM      2  C   UNL     1       0.870  11.337  18.898  0.00  0.00    +0.000 C 
BRANCH   2   3
ATOM      3  C   UNL     1       0.647  11.570  20.387  0.00  0.00    +0.000 C 
BRANCH   3   4
ATOM      4  O   UNL     1      -0.753  11.625  20.632  0.00  0.00    +0.000 OA
BRANCH   4   5
ATOM      5  C   UNL     1      -1.400  12.594  19.800  0.00  0.00    +0.000 C 
BRANCH   5   6
ATOM      6  C   UNL     1      -2.728  12.024  19.280  0.00  0.00    +0.000 C 
BRANCH   6   7
ATOM      7  N   UNL     1      -2.732  11.954  17.821  0.00  0.00    +0.000 N 
ATOM      8  C   UNL     1      -2.851  10.756  17.160  0.00  0.00    +0.000 C 
ATOM      9  C   UNL     1      -2.807  10.877  15.657  0.00  0.00    +0.000 C 
ATOM     10  O   UNL     1      -2.980   9.676  17.724  0.00  0.00    +0.000 OA
ATOM     11  H   UNL     1      -2.506  12.786  17.291  0.00  0.00    +0.000 HD
ENDBRANCH   6   7
BRANCH   6  12
ATOM     12  C   UNL     1      -3.933  12.847  19.775  0.00  0.00    +0.000 C 
BRANCH  12  13
ATOM     13  C   UNL     1      -4.071  12.898  21.302  0.00  0.00    +0.000 C 
BRANCH  13  14
ATOM     14  C   UNL     1      -5.514  12.812  21.785  0.00  0.00    +0.000 C 
BRANCH  14  15
ATOM     15  O   UNL     1      -6.136  11.634  21.266  0.00  0.00    +0.000 OA
ATOM     16  H   UNL     1      -7.094  11.805  21.222  0.00  0.00    +0.000 HD
ENDBRANCH  14  15
ENDBRANCH  13  14
ENDBRANCH  12  13
ENDBRANCH   6  12
ENDBRANCH   5   6
ENDBRANCH   4   5
ENDBRANCH   3   4
ENDBRANCH   2   3
ENDBRANCH   1   2
BRANCH   1  17
ATOM     17  C   UNL     1       1.879   9.377  17.672  0.00  0.00    +0.000 C 
BRANCH  17  18
ATOM     18  C   UNL     1       2.234   7.935  18.015  0.00  0.00    +0.000 C 
BRANCH  18  19
ATOM     19  C   UNL     1       2.151   7.697  19.515  0.00  0.00    +0.000 C 
BRANCH  19  20
ATOM     20  C   UNL     1       2.619   6.287  19.850  0.00  0.00    +0.000 C 
BRANCH  20  21
ATOM     21  C   UNL     1       1.564   5.564  20.672  0.00  0.00    +0.000 C 
BRANCH  21  22
ATOM     22  C   UNL     1       2.154   4.312  21.303  0.00  0.00    +0.000 C 
BRANCH  22  23
ATOM     23  C   UNL     1       1.281   3.107  20.992  0.00  0.00    +0.000 C 
BRANCH  23  24
ATOM     24  C   UNL     1       0.937   3.071  19.511  0.00  0.00    +0.000 C 
BRANCH  24  25
ATOM     25  C   UNL     1       1.572   1.857  18.852  0.00  0.00    +0.000 C 
BRANCH  25  26
ATOM     26  C   UNL     1       2.732   2.284  17.964  0.00  0.00    +0.000 C 
BRANCH  26  27
ATOM     27  C   UNL     1       3.982   2.524  18.799  0.00  0.00    +0.000 C 
BRANCH  27  28
ATOM     28  C   UNL     1       4.751   3.732  18.279  0.00  0.00    +0.000 C 
BRANCH  28  29
ATOM     29  C   UNL     1       4.081   4.299  17.035  0.00  0.00    +0.000 C 
BRANCH  29  31
ATOM     30  C   UNL     1       5.292   6.494  17.105  0.00  0.00    +0.000 C 
ATOM     31  C   UNL     1       5.020   5.244  16.289  0.00  0.00    +0.000 C 
ENDBRANCH  29  31
ENDBRANCH  28  29
ENDBRANCH  27  28
ENDBRANCH  26  27
ENDBRANCH  25  26
ENDBRANCH  24  25
ENDBRANCH  23  24
ENDBRANCH  22  23
ENDBRANCH  21  22
ENDBRANCH  20  21
ENDBRANCH  19  20
ENDBRANCH  18  19
ENDBRANCH  17  18
ENDBRANCH   1  17
TORSDOF 24
ENDMDL
MODEL 3
REMARK VINA RESULT:      -5.1      2.125      2.885
REMARK  Name = 
REMARK  26 active torsions:
REMARK  status: ('A' for Active; 'I' for Inactive)
REMARK    1  A    between atoms: C_1  and  C_2
REMARK    2  A    between atoms: C_2  and  C_3
REMARK    3  A    between atoms: C_3  and  C_4
REMARK    4  A    between atoms: C_4  and  C_5
REMARK    5  A    between atoms: C_5  and  C_6
REMARK    6  A    between atoms: C_6  and  C_7
REMARK    7  A    between atoms: C_7  and  C_8
REMARK    8  A    between atoms: C_8  and  C_9
REMARK    9  A    between atoms: C_9  and  C_10
REMARK   10  A    between atoms: C_10  and  C_11
REMARK   11  A    between atoms: C_11  and  C_12
REMARK   12  A    between atoms: C_12  and  C_13
REMARK   13  A    between atoms: C_13  and  C_14
REMARK   14  A    between atoms: C_14  and  C_15
REMARK   15  A    between atoms: C_15  and  C_16
REMARK   16  A    between atoms: C_16  and  C_17
REMARK   17  A    between atoms: C_17  and  C_18
REMARK   18  A    between atoms: C_18  and  O_19
REMARK   19  A    between atoms: O_19  and  C_20
REMARK   20  A    between atoms: C_20  and  C_21
REMARK   21  A    between atoms: C_21  and  C_22
REMARK   22  A    between atoms: C_21  and  N_26
REMARK   23  A    between atoms: C_22  and  C_23
REMARK   24  A    between atoms: C_23  and  C_24
REMARK   25  A    between atoms: C_24  and  O_25
REMARK   26  A    between atoms: C_27  and  C_28
REMARK                            x       y       z     vdW  Elec       q    Type
REMARK                         _______ _______ _______ _____ _____    ______ ____
ROOT
ATOM      1  C   UNL     1       2.185   8.090  17.864  0.00  0.00    +0.000 C 
ENDROOT
BRANCH   1   2
ATOM      2  C   UNL     1       1.850   9.087  18.964  0.00  0.00    +0.000 C 
BRANCH   2   3
ATOM      3  C   UNL     1       1.050  10.252  18.393  0.00  0.00    +0.000 C 
BRANCH   3   4
ATOM      4  O   UNL     1       1.028  11.301  19.353  0.00  0.00    +0.000 OA
BRANCH   4   5
ATOM      5  C   UNL     1       1.019  12.589  18.729  0.00  0.00    +0.000 C 
BRANCH   5   6
ATOM      6  C   UNL     1      -0.412  13.148  18.720  0.00  0.00    +0.000 C 
BRANCH   6   7
ATOM      7  N   UNL     1      -1.148  12.679  17.548  0.00  0.00    +0.000 N 
ATOM      8  C   UNL     1      -2.069  11.664  17.637  0.00  0.00    +0.000 C 
ATOM      9  C   UNL     1      -2.708  11.296  16.321  0.00  0.00    +0.000 C 
ATOM     10  O   UNL     1      -2.356  11.095  18.683  0.00  0.00    +0.000 OA
ATOM     11  H   UNL     1      -0.876  13.015  16.633  0.00  0.00    +0.000 HD
ENDBRANCH   6   7
BRANCH   6  12
ATOM     12  C   UNL     1      -0.423  14.688  18.771  0.00  0.00    +0.000 C 
BRANCH  12  13
ATOM     13  C   UNL     1       0.543  15.285  19.803  0.00  0.00    +0.000 C 
BRANCH  13  14
ATOM     14  C   UNL     1       1.576  16.226  19.194  0.00  0.00    +0.000 C 
BRANCH  14  15
ATOM     15  O   UNL     1       1.180  17.585  19.393  0.00  0.00    +0.000 OA
ATOM     16  H   UNL     1       1.455  18.087  18.604  0.00  0.00    +0.000 HD
ENDBRANCH  14  15
ENDBRANCH  13  14
ENDBRANCH  12  13
ENDBRANCH   6  12
ENDBRANCH   5   6
ENDBRANCH   4   5
ENDBRANCH   3   4
ENDBRANCH   2   3
ENDBRANCH   1   2
BRANCH   1  17
ATOM     17  C   UNL     1       3.068   6.957  18.378  0.00  0.00    +0.000 C 
BRANCH  17  18
ATOM     18  C   UNL     1       2.194   5.826  18.907  0.00  0.00    +0.000 C 
BRANCH  18  19
ATOM     19  C   UNL     1       2.594   5.448  20.325  0.00  0.00    +0.000 C 
BRANCH  19  20
ATOM     20  C   UNL     1       1.982   4.106  20.704  0.00  0.00    +0.000 C 
BRANCH  20  21
ATOM     21  C   UNL     1       0.826   3.773  19.775  0.00  0.00    +0.000 C 
BRANCH  21  22
ATOM     22  C   UNL     1       0.928   2.331  19.301  0.00  0.00    +0.000 C 
BRANCH  22  23
ATOM     23  C   UNL     1       2.383   1.954  19.078  0.00  0.00    +0.000 C 
BRANCH  23  24
ATOM     24  C   UNL     1       2.832   2.377  17.687  0.00  0.00    +0.000 C 
BRANCH  24  25
ATOM     25  C   UNL     1       4.212   3.009  17.748  0.00  0.00    +0.000 C 
BRANCH  25  26
ATOM     26  C   UNL     1       4.422   3.939  16.561  0.00  0.00    +0.000 C 
BRANCH  26  27
ATOM     27  C   UNL     1       5.635   4.829  16.789  0.00  0.00    +0.000 C 
BRANCH  27  28
ATOM     28  C   UNL     1       6.142   4.690  18.220  0.00  0.00    +0.000 C 
BRANCH  28  29
ATOM     29  C   UNL     1       7.056   5.853  18.580  0.00  0.00    +0.000 C 
BRANCH  29  31
ATOM     30  C   UNL     1       7.729   8.097  17.685  0.00  0.00    +0.000 C 
ATOM     31  C   UNL     1       7.447   6.648  17.337  0.00  0.00    +0.000 C 
ENDBRANCH  29  31
ENDBRANCH  28  29
ENDBRANCH  27  28
ENDBRANCH  26  27
ENDBRANCH  25  26
ENDBRANCH  24  25
ENDBRANCH  23  24
ENDBRANCH  22  23
ENDBRANCH  21  22
ENDBRANCH  20  21
ENDBRANCH  19  20
ENDBRANCH  18  19
ENDBRANCH  17  18
ENDBRANCH   1  17
TORSDOF 24
ENDMDL
MODEL 4
REMARK VINA RESULT:      -5.0      2.381      3.821
REMARK  Name = 
REMARK  26 active torsions:
REMARK  status: ('A' for Active; 'I' for Inactive)
REMARK    1  A    between atoms: C_1  and  C_2
REMARK    2  A    between atoms: C_2  and  C_3
REMARK    3  A    between atoms: C_3  and  C_4
REMARK    4  A    between atoms: C_4  and  C_5
REMARK    5  A    between atoms: C_5  and  C_6
REMARK    6  A    between atoms: C_6  and  C_7
REMARK    7  A    between atoms: C_7  and  C_8
REMARK    8  A    between atoms: C_8  and  C_9
REMARK    9  A    between atoms: C_9  and  C_10
REMARK   10  A    between atoms: C_10  and  C_11
REMARK   11  A    between atoms: C_11  and  C_12
REMARK   12  A    between atoms: C_12  and  C_13
REMARK   13  A    between atoms: C_13  and  C_14
REMARK   14  A    between atoms: C_14  and  C_15
REMARK   15  A    between atoms: C_15  and  C_16
REMARK   16  A    between atoms: C_16  and  C_17
REMARK   17  A    between atoms: C_17  and  C_18
REMARK   18  A    between atoms: C_18  and  O_19
REMARK   19  A    between atoms: O_19  and  C_20
REMARK   20  A    between atoms: C_20  and  C_21
REMARK   21  A    between atoms: C_21  and  C_22
REMARK   22  A    between atoms: C_21  and  N_26
REMARK   23  A    between atoms: C_22  and  C_23
REMARK   24  A    between atoms: C_23  and  C_24
REMARK   25  A    between atoms: C_24  and  O_25
REMARK   26  A    between atoms: C_27  and  C_28
REMARK                            x       y       z     vdW  Elec       q    Type
REMARK                         _______ _______ _______ _____ _____    ______ ____
ROOT
ATOM      1  C   UNL     1       1.649   6.243  19.809  0.00  0.00    +0.000 C 
ENDROOT
BRANCH   1   2
ATOM      2  C   UNL     1       2.909   6.959  19.345  0.00  0.00    +0.000 C 
BRANCH   2   3
ATOM      3  C   UNL     1       2.559   8.036  18.326  0.00  0.00    +0.000 C 
BRANCH   3   4
ATOM      4  O   UNL     1       1.543   8.867  18.875  0.00  0.00    +0.000 OA
BRANCH   4   5
ATOM      5  C   UNL     1       0.802   9.543  17.854  0.00  0.00    +0.000 C 
BRANCH   5   6
ATOM      6  C   UNL     1      -0.435  10.213  18.473  0.00  0.00    +0.000 C 
BRANCH   6   7
ATOM      7  N   UNL     1      -1.275  10.812  17.439  0.00  0.00    +0.000 N 
ATOM      8  C   UNL     1      -2.538  10.339  17.178  0.00  0.00    +0.000 C 
ATOM      9  C   UNL     1      -3.247  11.062  16.059  0.00  0.00    +0.000 C 
ATOM     10  O   UNL     1      -3.058   9.411  17.787  0.00  0.00    +0.000 OA
ATOM     11  H   UNL     1      -0.870  11.497  16.815  0.00  0.00    +0.000 HD
ENDBRANCH   6   7
BRANCH   6  12
ATOM     12  C   UNL     1      -0.044  11.274  19.519  0.00  0.00    +0.000 C 
BRANCH  12  13
ATOM     13  C   UNL     1      -1.014  11.372  20.703  0.00  0.00    +0.000 C 
BRANCH  13  14
ATOM     14  C   UNL     1      -1.872  12.631  20.683  0.00  0.00    +0.000 C 
BRANCH  14  15
ATOM     15  O   UNL     1      -2.933  12.517  21.634  0.00  0.00    +0.000 OA
ATOM     16  H   UNL     1      -2.625  11.926  22.346  0.00  0.00    +0.000 HD
ENDBRANCH  14  15
ENDBRANCH  13  14
ENDBRANCH  12  13
ENDBRANCH   6  12
ENDBRANCH   5   6
ENDBRANCH   4   5
ENDBRANCH   3   4
ENDBRANCH   2   3
ENDBRANCH   1   2
BRANCH   1  17
ATOM     17  C   UNL     1       1.964   5.125  20.797  0.00  0.00    +0.000 C 
BRANCH  17  18
ATOM     18  C   UNL     1       1.239   3.851  20.379  0.00  0.00    +0.000 C 
BRANCH  18  19
ATOM     19  C   UNL     1       1.171   3.736  18.864  0.00  0.00    +0.000 C 
BRANCH  19  20
ATOM     20  C   UNL     1       1.519   2.319  18.429  0.00  0.00    +0.000 C 
BRANCH  20  21
ATOM     21  C   UNL     1       2.744   2.330  17.529  0.00  0.00    +0.000 C 
BRANCH  21  22
ATOM     22  C   UNL     1       3.312   3.737  17.428  0.00  0.00    +0.000 C 
BRANCH  22  23
ATOM     23  C   UNL     1       4.617   3.833  18.201  0.00  0.00    +0.000 C 
BRANCH  23  24
ATOM     24  C   UNL     1       5.596   4.743  17.476  0.00  0.00    +0.000 C 
BRANCH  24  25
ATOM     25  C   UNL     1       4.844   5.766  16.639  0.00  0.00    +0.000 C 
BRANCH  25  26
ATOM     26  C   UNL     1       5.361   5.761  15.208  0.00  0.00    +0.000 C 
BRANCH  26  27
ATOM     27  C   UNL     1       6.630   4.928  15.102  0.00  0.00    +0.000 C 
BRANCH  27  28
ATOM     28  C   UNL     1       6.385   3.681  14.260  0.00  0.00    +0.000 C 
BRANCH  28  29
ATOM     29  C   UNL     1       5.129   3.844  13.413  0.00  0.00    +0.000 C 
BRANCH  29  31
ATOM     30  C   UNL     1       6.828   3.007  11.769  0.00  0.00    +0.000 C 
ATOM     31  C   UNL     1       5.374   3.389  11.977  0.00  0.00    +0.000 C 
ENDBRANCH  29  31
ENDBRANCH  28  29
ENDBRANCH  27  28
ENDBRANCH  26  27
ENDBRANCH  25  26
ENDBRANCH  24  25
ENDBRANCH  23  24
ENDBRANCH  22  23
ENDBRANCH  21  22
ENDBRANCH  20  21
ENDBRANCH  19  20
ENDBRANCH  18  19
ENDBRANCH  17  18
ENDBRANCH   1  17
TORSDOF 24
ENDMDL
MODEL 5
REMARK VINA RESULT:      -5.0      4.460      9.004
REMARK  Name = 
REMARK  26 active torsions:
REMARK  status: ('A' for Active; 'I' for Inactive)
REMARK    1  A    between atoms: C_1  and  C_2
REMARK    2  A    between atoms: C_2  and  C_3
REMARK    3  A    between atoms: C_3  and  C_4
REMARK    4  A    between atoms: C_4  and  C_5
REMARK    5  A    between atoms: C_5  and  C_6
REMARK    6  A    between atoms: C_6  and  C_7
REMARK    7  A    between atoms: C_7  and  C_8
REMARK    8  A    between atoms: C_8  and  C_9
REMARK    9  A    between atoms: C_9  and  C_10
REMARK   10  A    between atoms: C_10  and  C_11
REMARK   11  A    between atoms: C_11  and  C_12
REMARK   12  A    between atoms: C_12  and  C_13
REMARK   13  A    between atoms: C_13  and  C_14
REMARK   14  A    between atoms: C_14  and  C_15
REMARK   15  A    between atoms: C_15  and  C_16
REMARK   16  A    between atoms: C_16  and  C_17
REMARK   17  A    between atoms: C_17  and  C_18
REMARK   18  A    between atoms: C_18  and  O_19
REMARK   19  A    between atoms: O_19  and  C_20
REMARK   20  A    between atoms: C_20  and  C_21
REMARK   21  A    between atoms: C_21  and  C_22
REMARK   22  A    between atoms: C_21  and  N_26
REMARK   23  A    between atoms: C_22  and  C_23
REMARK   24  A    between atoms: C_23  and  C_24
REMARK   25  A    between atoms: C_24  and  O_25
REMARK   26  A    between atoms: C_27  and  C_28
REMARK                            x       y       z     vdW  Elec       q    Type
REMARK                         _______ _______ _______ _____ _____    ______ ____
ROOT
ATOM      1  C   UNL     1       7.423   6.131  17.147  0.00  0.00    +0.000 C 
ENDROOT
BRANCH   1   2
ATOM      2  C   UNL     1       7.404   4.628  16.908  0.00  0.00    +0.000 C 
BRANCH   2   3
ATOM      3  C   UNL     1       6.512   4.295  15.718  0.00  0.00    +0.000 C 
BRANCH   3   4
ATOM      4  O   UNL     1       5.387   3.561  16.186  0.00  0.00    +0.000 OA
BRANCH   4   5
ATOM      5  C   UNL     1       4.302   4.424  16.541  0.00  0.00    +0.000 C 
BRANCH   5   6
ATOM      6  C   UNL     1       3.930   4.205  18.016  0.00  0.00    +0.000 C 
BRANCH   6   7
ATOM      7  N   UNL     1       2.549   3.749  18.144  0.00  0.00    +0.000 N 
ATOM      8  C   UNL     1       2.189   2.801  19.071  0.00  0.00    +0.000 C 
ATOM      9  C   UNL     1       0.726   2.434  19.039  0.00  0.00    +0.000 C 
ATOM     10  O   UNL     1       2.973   2.288  19.860  0.00  0.00    +0.000 OA
ATOM     11  H   UNL     1       1.872   4.034  17.448  0.00  0.00    +0.000 HD
ENDBRANCH   6   7
BRANCH   6  12
ATOM     12  C   UNL     1       4.147   5.481  18.853  0.00  0.00    +0.000 C 
BRANCH  12  13
ATOM     13  C   UNL     1       3.164   6.614  18.531  0.00  0.00    +0.000 C 
BRANCH  13  14
ATOM     14  C   UNL     1       2.266   6.991  19.703  0.00  0.00    +0.000 C 
BRANCH  14  15
ATOM     15  O   UNL     1       2.224   5.922  20.652  0.00  0.00    +0.000 OA
ATOM     16  H   UNL     1       1.322   5.896  21.022  0.00  0.00    +0.000 HD
ENDBRANCH  14  15
ENDBRANCH  13  14
ENDBRANCH  12  13
ENDBRANCH   6  12
ENDBRANCH   5   6
ENDBRANCH   4   5
ENDBRANCH   3   4
ENDBRANCH   2   3
ENDBRANCH   1   2
BRANCH   1  17
ATOM     17  C   UNL     1       7.677   6.468  18.613  0.00  0.00    +0.000 C 
BRANCH  17  18
ATOM     18  C   UNL     1       8.532   7.726  18.710  0.00  0.00    +0.000 C 
BRANCH  18  19
ATOM     19  C   UNL     1       7.979   8.829  17.821  0.00  0.00    +0.000 C 
BRANCH  19  20
ATOM     20  C   UNL     1       8.720  10.134  18.080  0.00  0.00    +0.000 C 
BRANCH  20  21
ATOM     21  C   UNL     1       9.224  10.178  19.513  0.00  0.00    +0.000 C 
BRANCH  21  22
ATOM     22  C   UNL     1      10.466  11.050  19.609  0.00  0.00    +0.000 C 
BRANCH  22  23
ATOM     23  C   UNL     1      10.310  12.062  20.733  0.00  0.00    +0.000 C 
BRANCH  23  24
ATOM     24  C   UNL     1      10.068  13.452  20.164  0.00  0.00    +0.000 C 
BRANCH  24  25
ATOM     25  C   UNL     1      10.833  13.629  18.863  0.00  0.00    +0.000 C 
BRANCH  25  26
ATOM     26  C   UNL     1       9.885  14.026  17.740  0.00  0.00    +0.000 C 
BRANCH  26  27
ATOM     27  C   UNL     1       8.466  14.179  18.270  0.00  0.00    +0.000 C 
BRANCH  27  28
ATOM     28  C   UNL     1       7.861  15.500  17.811  0.00  0.00    +0.000 C 
BRANCH  28  29
ATOM     29  C   UNL     1       6.521  15.742  18.495  0.00  0.00    +0.000 C 
BRANCH  29  31
ATOM     30  C   UNL     1       4.287  14.664  18.867  0.00  0.00    +0.000 C 
ATOM     31  C   UNL     1       5.431  14.862  17.890  0.00  0.00    +0.000 C 
ENDBRANCH  29  31
ENDBRANCH  28  29
ENDBRANCH  27  28
ENDBRANCH  26  27
ENDBRANCH  25  26
ENDBRANCH  24  25
ENDBRANCH  23  24
ENDBRANCH  22  23
ENDBRANCH  21  22
ENDBRANCH  20  21
ENDBRANCH  19  20
ENDBRANCH  18  19
ENDBRANCH  17  18
ENDBRANCH   1  17
TORSDOF 24
ENDMDL
MODEL 6
REMARK VINA RESULT:      -4.9      3.791      9.442
REMARK  Name = 
REMARK  26 active torsions:
REMARK  status: ('A' for Active; 'I' for Inactive)
REMARK    1  A    between atoms: C_1  and  C_2
REMARK    2  A    between atoms: C_2  and  C_3
REMARK    3  A    between atoms: C_3  and  C_4
REMARK    4  A    between atoms: C_4  and  C_5
REMARK    5  A    between atoms: C_5  and  C_6
REMARK    6  A    between atoms: C_6  and  C_7
REMARK    7  A    between atoms: C_7  and  C_8
REMARK    8  A    between atoms: C_8  and  C_9
REMARK    9  A    between atoms: C_9  and  C_10
REMARK   10  A    between atoms: C_10  and  C_11
REMARK   11  A    between atoms: C_11  and  C_12
REMARK   12  A    between atoms: C_12  and  C_13
REMARK   13  A    between atoms: C_13  and  C_14
REMARK   14  A    between atoms: C_14  and  C_15
REMARK   15  A    between atoms: C_15  and  C_16
REMARK   16  A    between atoms: C_16  and  C_17
REMARK   17  A    between atoms: C_17  and  C_18
REMARK   18  A    between atoms: C_18  and  O_19
REMARK   19  A    between atoms: O_19  and  C_20
REMARK   20  A    between atoms: C_20  and  C_21
REMARK   21  A    between atoms: C_21  and  C_22
REMARK   22  A    between atoms: C_21  and  N_26
REMARK   23  A    between atoms: C_22  and  C_23
REMARK   24  A    between atoms: C_23  and  C_24
REMARK   25  A    between atoms: C_24  and  O_25
REMARK   26  A    between atoms: C_27  and  C_28
REMARK                            x       y       z     vdW  Elec       q    Type
REMARK                         _______ _______ _______ _____ _____    ______ ____
ROOT
ATOM      1  C   UNL     1       2.212   5.600  19.611  0.00  0.00    +0.000 C 
ENDROOT
BRANCH   1   2
ATOM      2  C   UNL     1       1.871   4.205  19.106  0.00  0.00    +0.000 C 
BRANCH   2   3
ATOM      3  C   UNL     1       1.884   4.179  17.582  0.00  0.00    +0.000 C 
BRANCH   3   4
ATOM      4  O   UNL     1       2.711   3.104  17.154  0.00  0.00    +0.000 OA
BRANCH   4   5
ATOM      5  C   UNL     1       3.915   3.022  17.924  0.00  0.00    +0.000 C 
BRANCH   5   6
ATOM      6  C   UNL     1       4.887   4.127  17.482  0.00  0.00    +0.000 C 
BRANCH   6   7
ATOM      7  N   UNL     1       5.643   3.715  16.303  0.00  0.00    +0.000 N 
ATOM      8  C   UNL     1       5.684   4.490  15.170  0.00  0.00    +0.000 C 
ATOM      9  C   UNL     1       6.491   3.892  14.044  0.00  0.00    +0.000 C 
ATOM     10  O   UNL     1       5.119   5.572  15.064  0.00  0.00    +0.000 OA
ATOM     11  H   UNL     1       6.031   2.781  16.271  0.00  0.00    +0.000 HD
ENDBRANCH   6   7
BRANCH   6  12
ATOM     12  C   UNL     1       5.851   4.525  18.617  0.00  0.00    +0.000 C 
BRANCH  12  13
ATOM     13  C   UNL     1       7.190   5.093  18.130  0.00  0.00    +0.000 C 
BRANCH  13  14
ATOM     14  C   UNL     1       7.847   6.038  19.129  0.00  0.00    +0.000 C 
BRANCH  14  15
ATOM     15  O   UNL     1       8.064   5.366  20.372  0.00  0.00    +0.000 OA
ATOM     16  H   UNL     1       9.026   5.261  20.483  0.00  0.00    +0.000 HD
ENDBRANCH  14  15
ENDBRANCH  13  14
ENDBRANCH  12  13
ENDBRANCH   6  12
ENDBRANCH   5   6
ENDBRANCH   4   5
ENDBRANCH   3   4
ENDBRANCH   2   3
ENDBRANCH   1   2
BRANCH   1  17
ATOM     17  C   UNL     1       2.415   6.584  18.464  0.00  0.00    +0.000 C 
BRANCH  17  18
ATOM     18  C   UNL     1       2.304   8.012  18.987  0.00  0.00    +0.000 C 
BRANCH  18  19
ATOM     19  C   UNL     1       1.647   8.919  17.958  0.00  0.00    +0.000 C 
BRANCH  19  20
ATOM     20  C   UNL     1       1.072  10.154  18.637  0.00  0.00    +0.000 C 
BRANCH  20  21
ATOM     21  C   UNL     1      -0.442  10.046  18.732  0.00  0.00    +0.000 C 
BRANCH  21  22
ATOM     22  C   UNL     1      -0.939  10.712  20.006  0.00  0.00    +0.000 C 
BRANCH  22  23
ATOM     23  C   UNL     1       0.047  10.480  21.139  0.00  0.00    +0.000 C 
BRANCH  23  24
ATOM     24  C   UNL     1      -0.603  10.790  22.478  0.00  0.00    +0.000 C 
BRANCH  24  25
ATOM     25  C   UNL     1      -1.547  11.974  22.345  0.00  0.00    +0.000 C 
BRANCH  25  26
ATOM     26  C   UNL     1      -0.885  13.241  22.867  0.00  0.00    +0.000 C 
BRANCH  26  27
ATOM     27  C   UNL     1      -1.169  14.413  21.938  0.00  0.00    +0.000 C 
BRANCH  27  28
ATOM     28  C   UNL     1      -0.032  14.594  20.939  0.00  0.00    +0.000 C 
BRANCH  28  29
ATOM     29  C   UNL     1      -0.513  14.309  19.522  0.00  0.00    +0.000 C 
BRANCH  29  31
ATOM     30  C   UNL     1       1.949  13.861  19.350  0.00  0.00    +0.000 C 
ATOM     31  C   UNL     1       0.598  13.683  18.683  0.00  0.00    +0.000 C 
ENDBRANCH  29  31
ENDBRANCH  28  29
ENDBRANCH  27  28
ENDBRANCH  26  27
ENDBRANCH  25  26
ENDBRANCH  24  25
ENDBRANCH  23  24
ENDBRANCH  22  23
ENDBRANCH  21  22
ENDBRANCH  20  21
ENDBRANCH  19  20
ENDBRANCH  18  19
ENDBRANCH  17  18
ENDBRANCH   1  17
TORSDOF 24
ENDMDL
MODEL 7
REMARK VINA RESULT:      -4.9      1.774      4.260
REMARK  Name = 
REMARK  26 active torsions:
REMARK  status: ('A' for Active; 'I' for Inactive)
REMARK    1  A    between atoms: C_1  and  C_2
REMARK    2  A    between atoms: C_2  and  C_3
REMARK    3  A    between atoms: C_3  and  C_4
REMARK    4  A    between atoms: C_4  and  C_5
REMARK    5  A    between atoms: C_5  and  C_6
REMARK    6  A    between atoms: C_6  and  C_7
REMARK    7  A    between atoms: C_7  and  C_8
REMARK    8  A    between atoms: C_8  and  C_9
REMARK    9  A    between atoms: C_9  and  C_10
REMARK   10  A    between atoms: C_10  and  C_11
REMARK   11  A    between atoms: C_11  and  C_12
REMARK   12  A    between atoms: C_12  and  C_13
REMARK   13  A    between atoms: C_13  and  C_14
REMARK   14  A    between atoms: C_14  and  C_15
REMARK   15  A    between atoms: C_15  and  C_16
REMARK   16  A    between atoms: C_16  and  C_17
REMARK   17  A    between atoms: C_17  and  C_18
REMARK   18  A    between atoms: C_18  and  O_19
REMARK   19  A    between atoms: O_19  and  C_20
REMARK   20  A    between atoms: C_20  and  C_21
REMARK   21  A    between atoms: C_21  and  C_22
REMARK   22  A    between atoms: C_21  and  N_26
REMARK   23  A    between atoms: C_22  and  C_23
REMARK   24  A    between atoms: C_23  and  C_24
REMARK   25  A    between atoms: C_24  and  O_25
REMARK   26  A    between atoms: C_27  and  C_28
REMARK                            x       y       z     vdW  Elec       q    Type
REMARK                         _______ _______ _______ _____ _____    ______ ____
ROOT
ATOM      1  C   UNL     1       2.756   7.306  18.251  0.00  0.00    +0.000 C 
ENDROOT
BRANCH   1   2
ATOM      2  C   UNL     1       1.612   8.199  17.796  0.00  0.00    +0.000 C 
BRANCH   2   3
ATOM      3  C   UNL     1       2.022   9.664  17.878  0.00  0.00    +0.000 C 
BRANCH   3   4
ATOM      4  O   UNL     1       1.543  10.201  19.105  0.00  0.00    +0.000 OA
BRANCH   4   5
ATOM      5  C   UNL     1       0.698  11.337  18.893  0.00  0.00    +0.000 C 
BRANCH   5   6
ATOM      6  C   UNL     1      -0.654  11.111  19.586  0.00  0.00    +0.000 C 
BRANCH   6   7
ATOM      7  N   UNL     1      -0.506  10.235  20.746  0.00  0.00    +0.000 N 
ATOM      8  C   UNL     1      -0.300  10.742  22.006  0.00  0.00    +0.000 C 
ATOM      9  C   UNL     1      -0.143   9.688  23.074  0.00  0.00    +0.000 C 
ATOM     10  O   UNL     1      -0.242  11.939  22.257  0.00  0.00    +0.000 OA
ATOM     11  H   UNL     1      -0.419   9.238  20.598  0.00  0.00    +0.000 HD
ENDBRANCH   6   7
BRANCH   6  12
ATOM     12  C   UNL     1      -1.702  10.532  18.615  0.00  0.00    +0.000 C 
BRANCH  12  13
ATOM     13  C   UNL     1      -2.157  11.515  17.528  0.00  0.00    +0.000 C 
BRANCH  13  14
ATOM     14  C   UNL     1      -2.604  10.832  16.241  0.00  0.00    +0.000 C 
BRANCH  14  15
ATOM     15  O   UNL     1      -3.200   9.567  16.538  0.00  0.00    +0.000 OA
ATOM     16  H   UNL     1      -2.705   8.888  16.045  0.00  0.00    +0.000 HD
ENDBRANCH  14  15
ENDBRANCH  13  14
ENDBRANCH  12  13
ENDBRANCH   6  12
ENDBRANCH   5   6
ENDBRANCH   4   5
ENDBRANCH   3   4
ENDBRANCH   2   3
ENDBRANCH   1   2
BRANCH   1  17
ATOM     17  C   UNL     1       4.002   7.501  17.394  0.00  0.00    +0.000 C 
BRANCH  17  18
ATOM     18  C   UNL     1       5.145   6.658  17.949  0.00  0.00    +0.000 C 
BRANCH  18  19
ATOM     19  C   UNL     1       6.430   6.906  17.174  0.00  0.00    +0.000 C 
BRANCH  19  20
ATOM     20  C   UNL     1       6.407   6.138  15.859  0.00  0.00    +0.000 C 
BRANCH  20  21
ATOM     21  C   UNL     1       6.920   4.722  16.067  0.00  0.00    +0.000 C 
BRANCH  21  22
ATOM     22  C   UNL     1       5.849   3.712  15.687  0.00  0.00    +0.000 C 
BRANCH  22  23
ATOM     23  C   UNL     1       5.014   3.349  16.905  0.00  0.00    +0.000 C 
BRANCH  23  24
ATOM     24  C   UNL     1       3.545   3.644  16.647  0.00  0.00    +0.000 C 
BRANCH  24  25
ATOM     25  C   UNL     1       2.790   3.749  17.962  0.00  0.00    +0.000 C 
BRANCH  25  26
ATOM     26  C   UNL     1       1.295   3.576  17.729  0.00  0.00    +0.000 C 
BRANCH  26  27
ATOM     27  C   UNL     1       0.691   2.673  18.795  0.00  0.00    +0.000 C 
BRANCH  27  28
ATOM     28  C   UNL     1       1.756   2.231  19.792  0.00  0.00    +0.000 C 
BRANCH  28  29
ATOM     29  C   UNL     1       1.395   2.689  21.199  0.00  0.00    +0.000 C 
BRANCH  29  31
ATOM     30  C   UNL     1       1.843   5.147  20.986  0.00  0.00    +0.000 C 
ATOM     31  C   UNL     1       2.281   3.851  21.641  0.00  0.00    +0.000 C 
ENDBRANCH  29  31
ENDBRANCH  28  29
ENDBRANCH  27  28
ENDBRANCH  26  27
ENDBRANCH  25  26
ENDBRANCH  24  25
ENDBRANCH  23  24
ENDBRANCH  22  23
ENDBRANCH  21  22
ENDBRANCH  20  21
ENDBRANCH  19  20
ENDBRANCH  18  19
ENDBRANCH  17  18
ENDBRANCH   1  17
TORSDOF 24
ENDMDL
MODEL 8
REMARK VINA RESULT:      -4.8      2.135      3.004
REMARK  Name = 
REMARK  26 active torsions:
REMARK  status: ('A' for Active; 'I' for Inactive)
REMARK    1  A    between atoms: C_1  and  C_2
REMARK    2  A    between atoms: C_2  and  C_3
REMARK    3  A    between atoms: C_3  and  C_4
REMARK    4  A    between atoms: C_4  and  C_5
REMARK    5  A    between atoms: C_5  and  C_6
REMARK    6  A    between atoms: C_6  and  C_7
REMARK    7  A    between atoms: C_7  and  C_8
REMARK    8  A    between atoms: C_8  and  C_9
REMARK    9  A    between atoms: C_9  and  C_10
REMARK   10  A    between atoms: C_10  and  C_11
REMARK   11  A    between atoms: C_11  and  C_12
REMARK   12  A    between atoms: C_12  and  C_13
REMARK   13  A    between atoms: C_13  and  C_14
REMARK   14  A    between atoms: C_14  and  C_15
REMARK   15  A    between atoms: C_15  and  C_16
REMARK   16  A    between atoms: C_16  and  C_17
REMARK   17  A    between atoms: C_17  and  C_18
REMARK   18  A    between atoms: C_18  and  O_19
REMARK   19  A    between atoms: O_19  and  C_20
REMARK   20  A    between atoms: C_20  and  C_21
REMARK   21  A    between atoms: C_21  and  C_22
REMARK   22  A    between atoms: C_21  and  N_26
REMARK   23  A    between atoms: C_22  and  C_23
REMARK   24  A    between atoms: C_23  and  C_24
REMARK   25  A    between atoms: C_24  and  O_25
REMARK   26  A    between atoms: C_27  and  C_28
REMARK                            x       y       z     vdW  Elec       q    Type
REMARK                         _______ _______ _______ _____ _____    ______ ____
ROOT
ATOM      1  C   UNL     1       2.046   9.718  17.877  0.00  0.00    +0.000 C 
ENDROOT
BRANCH   1   2
ATOM      2  C   UNL     1       0.546   9.580  18.091  0.00  0.00    +0.000 C 
BRANCH   2   3
ATOM      3  C   UNL     1       0.062  10.607  19.107  0.00  0.00    +0.000 C 
BRANCH   3   4
ATOM      4  O   UNL     1      -1.321  10.850  18.882  0.00  0.00    +0.000 OA
BRANCH   4   5
ATOM      5  C   UNL     1      -1.628  12.248  18.933  0.00  0.00    +0.000 C 
BRANCH   5   6
ATOM      6  C   UNL     1      -1.121  12.840  20.257  0.00  0.00    +0.000 C 
BRANCH   6   7
ATOM      7  N   UNL     1      -2.081  12.613  21.333  0.00  0.00    +0.000 N 
ATOM      8  C   UNL     1      -1.680  12.186  22.575  0.00  0.00    +0.000 C 
ATOM      9  C   UNL     1      -2.813  11.979  23.550  0.00  0.00    +0.000 C 
ATOM     10  O   UNL     1      -0.511  11.983  22.881  0.00  0.00    +0.000 OA
ATOM     11  H   UNL     1      -3.070  12.639  21.120  0.00  0.00    +0.000 HD
ENDBRANCH   6   7
BRANCH   6  12
ATOM     12  C   UNL     1      -0.816  14.345  20.127  0.00  0.00    +0.000 C 
BRANCH  12  13
ATOM     13  C   UNL     1       0.051  14.705  18.914  0.00  0.00    +0.000 C 
BRANCH  13  14
ATOM     14  C   UNL     1      -0.174  16.125  18.407  0.00  0.00    +0.000 C 
BRANCH  14  15
ATOM     15  O   UNL     1       1.043  16.870  18.480  0.00  0.00    +0.000 OA
ATOM     16  H   UNL     1       0.987  17.587  17.822  0.00  0.00    +0.000 HD
ENDBRANCH  14  15
ENDBRANCH  13  14
ENDBRANCH  12  13
ENDBRANCH   6  12
ENDBRANCH   5   6
ENDBRANCH   4   5
ENDBRANCH   3   4
ENDBRANCH   2   3
ENDBRANCH   1   2
BRANCH   1  17
ATOM     17  C   UNL     1       2.703   8.371  17.592  0.00  0.00    +0.000 C 
BRANCH  17  18
ATOM     18  C   UNL     1       1.954   7.268  18.329  0.00  0.00    +0.000 C 
BRANCH  18  19
ATOM     19  C   UNL     1       2.429   7.156  19.770  0.00  0.00    +0.000 C 
BRANCH  19  20
ATOM     20  C   UNL     1       1.441   6.336  20.587  0.00  0.00    +0.000 C 
BRANCH  20  21
ATOM     21  C   UNL     1       1.933   4.904  20.728  0.00  0.00    +0.000 C 
BRANCH  21  22
ATOM     22  C   UNL     1       0.903   3.935  20.170  0.00  0.00    +0.000 C 
BRANCH  22  23
ATOM     23  C   UNL     1       1.325   3.458  18.790  0.00  0.00    +0.000 C 
BRANCH  23  24
ATOM     24  C   UNL     1       1.842   2.029  18.859  0.00  0.00    +0.000 C 
BRANCH  24  25
ATOM     25  C   UNL     1       3.277   1.962  18.362  0.00  0.00    +0.000 C 
BRANCH  25  26
ATOM     26  C   UNL     1       4.218   2.595  19.376  0.00  0.00    +0.000 C 
BRANCH  26  27
ATOM     27  C   UNL     1       4.981   3.752  18.747  0.00  0.00    +0.000 C 
BRANCH  27  28
ATOM     28  C   UNL     1       4.712   3.820  17.248  0.00  0.00    +0.000 C 
BRANCH  28  29
ATOM     29  C   UNL     1       4.458   5.258  16.814  0.00  0.00    +0.000 C 
BRANCH  29  31
ATOM     30  C   UNL     1       5.777   4.492  14.823  0.00  0.00    +0.000 C 
ATOM     31  C   UNL     1       5.424   5.673  15.707  0.00  0.00    +0.000 C 
ENDBRANCH  29  31
ENDBRANCH  28  29
ENDBRANCH  27  28
ENDBRANCH  26  27
ENDBRANCH  25  26
ENDBRANCH  24  25
ENDBRANCH  23  24
ENDBRANCH  22  23
ENDBRANCH  21  22
ENDBRANCH  20  21
ENDBRANCH  19  20
ENDBRANCH  18  19
ENDBRANCH  17  18
ENDBRANCH   1  17
TORSDOF 24
ENDMDL
MODEL 9
REMARK VINA RESULT:      -4.8      3.102      4.139
REMARK  Name = 
REMARK  26 active torsions:
REMARK  status: ('A' for Active; 'I' for Inactive)
REMARK    1  A    between atoms: C_1  and  C_2
REMARK    2  A    between atoms: C_2  and  C_3
REMARK    3  A    between atoms: C_3  and  C_4
REMARK    4  A    between atoms: C_4  and  C_5
REMARK    5  A    between atoms: C_5  and  C_6
REMARK    6  A    between atoms: C_6  and  C_7
REMARK    7  A    between atoms: C_7  and  C_8
REMARK    8  A    between atoms: C_8  and  C_9
REMARK    9  A    between atoms: C_9  and  C_10
REMARK   10  A    between atoms: C_10  and  C_11
REMARK   11  A    between atoms: C_11  and  C_12
REMARK   12  A    between atoms: C_12  and  C_13
REMARK   13  A    between atoms: C_13  and  C_14
REMARK   14  A    between atoms: C_14  and  C_15
REMARK   15  A    between atoms: C_15  and  C_16
REMARK   16  A    between atoms: C_16  and  C_17
REMARK   17  A    between atoms: C_17  and  C_18
REMARK   18  A    between atoms: C_18  and  O_19
REMARK   19  A    between atoms: O_19  and  C_20
REMARK   20  A    between atoms: C_20  and  C_21
REMARK   21  A    between atoms: C_21  and  C_22
REMARK   22  A    between atoms: C_21  and  N_26
REMARK   23  A    between atoms: C_22  and  C_23
REMARK   24  A    between atoms: C_23  and  C_24
REMARK   25  A    between atoms: C_24  and  O_25
REMARK   26  A    between atoms: C_27  and  C_28
REMARK                            x       y       z     vdW  Elec       q    Type
REMARK                         _______ _______ _______ _____ _____    ______ ____
ROOT
ATOM      1  C   UNL     1       1.250   9.301  20.805  0.00  0.00    +0.000 C 
ENDROOT
BRANCH   1   2
ATOM      2  C   UNL     1       0.862   9.498  19.347  0.00  0.00    +0.000 C 
BRANCH   2   3
ATOM      3  C   UNL     1      -0.461  10.246  19.250  0.00  0.00    +0.000 C 
BRANCH   3   4
ATOM      4  O   UNL     1      -0.904  10.210  17.899  0.00  0.00    +0.000 OA
BRANCH   4   5
ATOM      5  C   UNL     1      -2.246   9.721  17.794  0.00  0.00    +0.000 C 
BRANCH   5   6
ATOM      6  C   UNL     1      -3.186  10.873  17.408  0.00  0.00    +0.000 C 
BRANCH   6   7
ATOM      7  N   UNL     1      -4.579  10.518  17.664  0.00  0.00    +0.000 N 
ATOM      8  C   UNL     1      -5.430  11.374  18.320  0.00  0.00    +0.000 C 
ATOM      9  C   UNL     1      -6.822  10.826  18.519  0.00  0.00    +0.000 C 
ATOM     10  O   UNL     1      -5.103  12.486  18.719  0.00  0.00    +0.000 OA
ATOM     11  H   UNL     1      -4.886   9.572  17.476  0.00  0.00    +0.000 HD
ENDBRANCH   6   7
BRANCH   6  12
ATOM     12  C   UNL     1      -3.006  11.285  15.934  0.00  0.00    +0.000 C 
BRANCH  12  13
ATOM     13  C   UNL     1      -2.884  10.103  14.965  0.00  0.00    +0.000 C 
BRANCH  13  14
ATOM     14  C   UNL     1      -4.012  10.037  13.942  0.00  0.00    +0.000 C 
BRANCH  14  15
ATOM     15  O   UNL     1      -3.473   9.874  12.628  0.00  0.00    +0.000 OA
ATOM     16  H   UNL     1      -2.519  10.068  12.677  0.00  0.00    +0.000 HD
ENDBRANCH  14  15
ENDBRANCH  13  14
ENDBRANCH  12  13
ENDBRANCH   6  12
ENDBRANCH   5   6
ENDBRANCH   4   5
ENDBRANCH   3   4
ENDBRANCH   2   3
ENDBRANCH   1   2
BRANCH   1  17
ATOM     17  C   UNL     1       0.530   8.108  21.426  0.00  0.00    +0.000 C 
BRANCH  17  18
ATOM     18  C   UNL     1       0.724   6.877  20.549  0.00  0.00    +0.000 C 
BRANCH  18  19
ATOM     19  C   UNL     1       2.167   6.397  20.596  0.00  0.00    +0.000 C 
BRANCH  19  20
ATOM     20  C   UNL     1       2.213   4.893  20.831  0.00  0.00    +0.000 C 
BRANCH  20  21
ATOM     21  C   UNL     1       0.941   4.240  20.314  0.00  0.00    +0.000 C 
BRANCH  21  22
ATOM     22  C   UNL     1       1.202   3.559  18.980  0.00  0.00    +0.000 C 
BRANCH  22  23
ATOM     23  C   UNL     1       2.196   2.422  19.157  0.00  0.00    +0.000 C 
BRANCH  23  24
ATOM     24  C   UNL     1       3.042   2.259  17.904  0.00  0.00    +0.000 C 
BRANCH  24  25
ATOM     25  C   UNL     1       3.603   3.603  17.468  0.00  0.00    +0.000 C 
BRANCH  25  26
ATOM     26  C   UNL     1       4.722   4.038  18.403  0.00  0.00    +0.000 C 
BRANCH  26  27
ATOM     27  C   UNL     1       5.013   5.523  18.232  0.00  0.00    +0.000 C 
BRANCH  27  28
ATOM     28  C   UNL     1       5.474   5.819  16.810  0.00  0.00    +0.000 C 
BRANCH  28  29
ATOM     29  C   UNL     1       6.986   5.994  16.763  0.00  0.00    +0.000 C 
BRANCH  29  31
ATOM     30  C   UNL     1       7.900   8.162  17.632  0.00  0.00    +0.000 C 
ATOM     31  C   UNL     1       7.489   6.747  17.992  0.00  0.00    +0.000 C 
ENDBRANCH  29  31
ENDBRANCH  28  29
ENDBRANCH  27  28
ENDBRANCH  26  27
ENDBRANCH  25  26
ENDBRANCH  24  25
ENDBRANCH  23  24
ENDBRANCH  22  23
ENDBRANCH  21  22
ENDBRANCH  20  21
ENDBRANCH  19  20
ENDBRANCH  18  19
ENDBRANCH  17  18
ENDBRANCH   1  17
TORSDOF 24
ENDMDL
