MODEL 1
REMARK VINA RESULT:      -7.6      0.000      0.000
REMARK  Name = 
REMARK  5 active torsions:
REMARK  status: ('A' for Active; 'I' for Inactive)
REMARK    1  A    between atoms: C_2  and  C_3
REMARK    2  A    between atoms: C_3  and  C_4
REMARK    3  A    between atoms: N_6  and  N_7
REMARK    4  A    between atoms: N_11  and  C_12
REMARK    5  A    between atoms: C_23  and  C_24
REMARK                            x       y       z     vdW  Elec       q    Type
REMARK                         _______ _______ _______ _____ _____    ______ ____
ROOT
ATOM      1  N   UNL     1       3.581   2.912  18.423  0.00  0.00    +0.000 NA
ATOM      2  C   UNL     1       4.186   3.977  18.001  0.00  0.00    +0.000 C 
ATOM      3  C   UNL     1       3.284   5.163  17.700  0.00  0.00    +0.000 C 
ATOM      4  O   UNL     1       2.307   4.957  16.992  0.00  0.00    +0.000 OA
ATOM      5  N   UNL     1       3.694   6.357  18.284  0.00  0.00    +0.000 N 
ATOM      6  C   UNL     1       5.047   6.672  18.185  0.00  0.00    +0.000 C 
ATOM      7  O   UNL     1       5.563   7.736  17.871  0.00  0.00    +0.000 OA
ATOM      8  C   UNL     1       5.988   5.520  18.487  0.00  0.00    +0.000 C 
ATOM      9  O   UNL     1       6.917   5.673  19.270  0.00  0.00    +0.000 OA
ATOM     10  C   UNL     1       5.646   4.219  17.859  0.00  0.00    +0.000 C 
ENDROOT
BRANCH  10  11
ATOM     11  C   UNL     1       5.984   4.277  16.410  0.00  0.00    +0.000 A 
ATOM     12  N   UNL     1       5.324   3.626  15.480  0.00  0.00    +0.000 NA
ATOM     13  C   UNL     1       5.895   3.863  14.236  0.00  0.00    +0.000 A 
ATOM     14  C   UNL     1       5.460   3.330  13.007  0.00  0.00    +0.000 A 
ATOM     15  C   UNL     1       6.143   3.652  11.828  0.00  0.00    +0.000 A 
ATOM     16  C   UNL     1       7.248   4.497  11.862  0.00  0.00    +0.000 A 
ATOM     17  C   UNL     1       7.696   5.043  13.068  0.00  0.00    +0.000 A 
ATOM     18  C   UNL     1       7.005   4.710  14.245  0.00  0.00    +0.000 A 
ATOM     19  S   UNL     1       7.315   5.211  15.862  0.00  0.00    +0.000 S 
ENDBRANCH  10  11
BRANCH   5  20
ATOM     20  C   UNL     1       2.719   7.384  18.590  0.00  0.00    +0.000 A 
ATOM     21  C   UNL     1       2.162   7.512  19.878  0.00  0.00    +0.000 A 
ATOM     22  C   UNL     1       1.229   8.517  20.181  0.00  0.00    +0.000 A 
ATOM     23  C   UNL     1       0.849   9.429  19.207  0.00  0.00    +0.000 A 
ATOM     24 CL   UNL     1      -0.321  10.635  19.558  0.00  0.00    +0.000 Cl
ATOM     25  C   UNL     1       1.426   9.369  17.947  0.00  0.00    +0.000 A 
ATOM     26  C   UNL     1       2.365   8.371  17.653  0.00  0.00    +0.000 A 
ENDBRANCH   5  20
BRANCH   1  29
ATOM     27  C   UNL     1       4.610   1.718  20.177  0.00  0.00    +0.000 C 
ATOM     28  O   UNL     1       5.263   0.755  20.577  0.00  0.00    +0.000 OA
ATOM     29  N   UNL     1       4.246   1.814  18.847  0.00  0.00    +0.000 N 
ATOM     30  H   UNL     1       4.600   1.088  18.233  0.00  0.00    +0.000 HD
BRANCH  27  31
ATOM     31  C   UNL     1       4.135   2.824  21.092  0.00  0.00    +0.000 C 
BRANCH  31  33
ATOM     32  N   UNL     1       1.515   2.346  21.893  0.00  0.00    +0.000 NA
ATOM     33  C   UNL     1       2.702   2.563  21.531  0.00  0.00    +0.000 C 
ENDBRANCH  31  33
ENDBRANCH  27  31
ENDBRANCH   1  29
TORSDOF 5
ENDMDL
MODEL 2
REMARK VINA RESULT:      -7.2      0.938      1.524
REMARK  Name = 
REMARK  5 active torsions:
REMARK  status: ('A' for Active; 'I' for Inactive)
REMARK    1  A    between atoms: C_2  and  C_3
REMARK    2  A    between atoms: C_3  and  C_4
REMARK    3  A    between atoms: N_6  and  N_7
REMARK    4  A    between atoms: N_11  and  C_12
REMARK    5  A    between atoms: C_23  and  C_24
REMARK                            x       y       z     vdW  Elec       q    Type
REMARK                         _______ _______ _______ _____ _____    ______ ____
ROOT
ATOM      1  N   UNL     1       4.195   3.262  18.943  0.00  0.00    +0.000 NA
ATOM      2  C   UNL     1       4.661   4.282  18.296  0.00  0.00    +0.000 C 
ATOM      3  C   UNL     1       3.636   5.340  17.918  0.00  0.00    +0.000 C 
ATOM      4  O   UNL     1       2.614   4.954  17.366  0.00  0.00    +0.000 OA
ATOM      5  N   UNL     1       4.000   6.638  18.260  0.00  0.00    +0.000 N 
ATOM      6  C   UNL     1       5.303   7.024  17.960  0.00  0.00    +0.000 C 
ATOM      7  O   UNL     1       5.693   8.054  17.429  0.00  0.00    +0.000 OA
ATOM      8  C   UNL     1       6.365   6.003  18.329  0.00  0.00    +0.000 C 
ATOM      9  O   UNL     1       7.352   6.345  18.969  0.00  0.00    +0.000 OA
ATOM     10  C   UNL     1       6.074   4.597  17.954  0.00  0.00    +0.000 C 
ENDROOT
BRANCH  10  11
ATOM     11  C   UNL     1       6.258   4.439  16.484  0.00  0.00    +0.000 A 
ATOM     12  N   UNL     1       7.133   5.122  15.782  0.00  0.00    +0.000 NA
ATOM     13  C   UNL     1       7.047   4.769  14.442  0.00  0.00    +0.000 A 
ATOM     14  C   UNL     1       7.825   5.296  13.392  0.00  0.00    +0.000 A 
ATOM     15  C   UNL     1       7.619   4.849  12.081  0.00  0.00    +0.000 A 
ATOM     16  C   UNL     1       6.652   3.886  11.809  0.00  0.00    +0.000 A 
ATOM     17  C   UNL     1       5.871   3.344  12.833  0.00  0.00    +0.000 A 
ATOM     18  C   UNL     1       6.084   3.802  14.143  0.00  0.00    +0.000 A 
ATOM     19  S   UNL     1       5.288   3.338  15.597  0.00  0.00    +0.000 S 
ENDBRANCH  10  11
BRANCH   5  20
ATOM     20  C   UNL     1       2.976   7.633  18.510  0.00  0.00    +0.000 A 
ATOM     21  C   UNL     1       2.576   8.546  17.514  0.00  0.00    +0.000 A 
ATOM     22  C   UNL     1       1.573   9.500  17.749  0.00  0.00    +0.000 A 
ATOM     23  C   UNL     1       0.934   9.547  18.980  0.00  0.00    +0.000 A 
ATOM     24 CL   UNL     1      -0.265  10.737  19.289  0.00  0.00    +0.000 Cl
ATOM     25  C   UNL     1       1.261   8.622  19.961  0.00  0.00    +0.000 A 
ATOM     26  C   UNL     1       2.255   7.665  19.717  0.00  0.00    +0.000 A 
ENDBRANCH   5  20
BRANCH   1  29
ATOM     27  C   UNL     1       4.715   1.790  20.712  0.00  0.00    +0.000 C 
ATOM     28  O   UNL     1       5.455   0.951  21.222  0.00  0.00    +0.000 OA
ATOM     29  N   UNL     1       4.991   2.296  19.455  0.00  0.00    +0.000 N 
ATOM     30  H   UNL     1       5.854   1.982  19.027  0.00  0.00    +0.000 HD
BRANCH  27  31
ATOM     31  C   UNL     1       3.458   2.295  21.385  0.00  0.00    +0.000 C 
BRANCH  31  33
ATOM     32  N   UNL     1       1.296   2.109  19.645  0.00  0.00    +0.000 NA
ATOM     33  C   UNL     1       2.276   2.193  20.434  0.00  0.00    +0.000 C 
ENDBRANCH  31  33
ENDBRANCH  27  31
ENDBRANCH   1  29
TORSDOF 5
ENDMDL
MODEL 3
REMARK VINA RESULT:      -7.2      7.083     11.716
REMARK  Name = 
REMARK  5 active torsions:
REMARK  status: ('A' for Active; 'I' for Inactive)
REMARK    1  A    between atoms: C_2  and  C_3
REMARK    2  A    between atoms: C_3  and  C_4
REMARK    3  A    between atoms: N_6  and  N_7
REMARK    4  A    between atoms: N_11  and  C_12
REMARK    5  A    between atoms: C_23  and  C_24
REMARK                            x       y       z     vdW  Elec       q    Type
REMARK                         _______ _______ _______ _____ _____    ______ ____
ROOT
ATOM      1  N   UNL     1      -0.422  13.667  18.598  0.00  0.00    +0.000 NA
ATOM      2  C   UNL     1      -0.848  12.900  19.551  0.00  0.00    +0.000 C 
ATOM      3  C   UNL     1      -0.635  11.410  19.334  0.00  0.00    +0.000 C 
ATOM      4  O   UNL     1      -0.996  10.945  18.260  0.00  0.00    +0.000 OA
ATOM      5  N   UNL     1      -0.042  10.754  20.407  0.00  0.00    +0.000 N 
ATOM      6  C   UNL     1      -0.539  11.046  21.674  0.00  0.00    +0.000 C 
ATOM      7  O   UNL     1      -0.835  10.274  22.575  0.00  0.00    +0.000 OA
ATOM      8  C   UNL     1      -0.759  12.524  21.941  0.00  0.00    +0.000 C 
ATOM      9  O   UNL     1      -0.321  13.037  22.964  0.00  0.00    +0.000 OA
ATOM     10  C   UNL     1      -1.433  13.288  20.861  0.00  0.00    +0.000 C 
ENDROOT
BRANCH  10  11
ATOM     11  C   UNL     1      -2.883  12.947  20.860  0.00  0.00    +0.000 A 
ATOM     12  N   UNL     1      -3.540  12.561  19.790  0.00  0.00    +0.000 NA
ATOM     13  C   UNL     1      -4.875  12.341  20.105  0.00  0.00    +0.000 A 
ATOM     14  C   UNL     1      -5.882  11.925  19.212  0.00  0.00    +0.000 A 
ATOM     15  C   UNL     1      -7.193  11.753  19.673  0.00  0.00    +0.000 A 
ATOM     16  C   UNL     1      -7.508  11.990  21.008  0.00  0.00    +0.000 A 
ATOM     17  C   UNL     1      -6.526  12.399  21.914  0.00  0.00    +0.000 A 
ATOM     18  C   UNL     1      -5.215  12.571  21.440  0.00  0.00    +0.000 A 
ATOM     19  S   UNL     1      -3.808  13.067  22.299  0.00  0.00    +0.000 S 
ENDBRANCH  10  11
BRANCH   5  20
ATOM     20  C   UNL     1       0.734   9.551  20.179  0.00  0.00    +0.000 A 
ATOM     21  C   UNL     1       0.777   8.511  21.129  0.00  0.00    +0.000 A 
ATOM     22  C   UNL     1       1.514   7.337  20.904  0.00  0.00    +0.000 A 
ATOM     23  C   UNL     1       2.208   7.171  19.713  0.00  0.00    +0.000 A 
ATOM     24 CL   UNL     1       3.145   5.756  19.447  0.00  0.00    +0.000 Cl
ATOM     25  C   UNL     1       2.135   8.148  18.732  0.00  0.00    +0.000 A 
ATOM     26  C   UNL     1       1.389   9.313  18.958  0.00  0.00    +0.000 A 
ENDBRANCH   5  20
BRANCH   1  29
ATOM     27  C   UNL     1       0.715  15.667  19.118  0.00  0.00    +0.000 C 
ATOM     28  O   UNL     1       0.719  16.888  19.261  0.00  0.00    +0.000 OA
ATOM     29  N   UNL     1      -0.427  15.016  18.689  0.00  0.00    +0.000 N 
ATOM     30  H   UNL     1      -1.251  15.593  18.566  0.00  0.00    +0.000 HD
BRANCH  27  31
ATOM     31  C   UNL     1       1.936  14.808  19.358  0.00  0.00    +0.000 C 
BRANCH  31  33
ATOM     32  N   UNL     1       2.482  14.654  22.080  0.00  0.00    +0.000 NA
ATOM     33  C   UNL     1       2.235  14.724  20.846  0.00  0.00    +0.000 C 
ENDBRANCH  31  33
ENDBRANCH  27  31
ENDBRANCH   1  29
TORSDOF 5
ENDMDL
MODEL 4
REMARK VINA RESULT:      -7.2      6.018     10.670
REMARK  Name = 
REMARK  5 active torsions:
REMARK  status: ('A' for Active; 'I' for Inactive)
REMARK    1  A    between atoms: C_2  and  C_3
REMARK    2  A    between atoms: C_3  and  C_4
REMARK    3  A    between atoms: N_6  and  N_7
REMARK    4  A    between atoms: N_11  and  C_12
REMARK    5  A    between atoms: C_23  and  C_24
REMARK                            x       y       z     vdW  Elec       q    Type
REMARK                         _______ _______ _______ _____ _____    ______ ____
ROOT
ATOM      1  N   UNL     1       1.820  12.672  19.948  0.00  0.00    +0.000 NA
ATOM      2  C   UNL     1       0.928  11.776  20.227  0.00  0.00    +0.000 C 
ATOM      3  C   UNL     1       1.059  10.466  19.467  0.00  0.00    +0.000 C 
ATOM      4  O   UNL     1       1.181  10.536  18.251  0.00  0.00    +0.000 OA
ATOM      5  N   UNL     1       1.023   9.331  20.270  0.00  0.00    +0.000 N 
ATOM      6  C   UNL     1       0.035   9.287  21.250  0.00  0.00    +0.000 C 
ATOM      7  O   UNL     1      -0.720   8.367  21.533  0.00  0.00    +0.000 OA
ATOM      8  C   UNL     1      -0.125  10.570  22.044  0.00  0.00    +0.000 C 
ATOM      9  O   UNL     1      -0.152  10.538  23.268  0.00  0.00    +0.000 OA
ATOM     10  C   UNL     1      -0.147  11.827  21.254  0.00  0.00    +0.000 C 
ENDROOT
BRANCH  10  11
ATOM     11  C   UNL     1      -1.463  11.943  20.565  0.00  0.00    +0.000 A 
ATOM     12  N   UNL     1      -1.691  11.504  19.349  0.00  0.00    +0.000 NA
ATOM     13  C   UNL     1      -3.001  11.780  18.981  0.00  0.00    +0.000 A 
ATOM     14  C   UNL     1      -3.602  11.462  17.747  0.00  0.00    +0.000 A 
ATOM     15  C   UNL     1      -4.937  11.815  17.513  0.00  0.00    +0.000 A 
ATOM     16  C   UNL     1      -5.674  12.475  18.491  0.00  0.00    +0.000 A 
ATOM     17  C   UNL     1      -5.102  12.797  19.724  0.00  0.00    +0.000 A 
ATOM     18  C   UNL     1      -3.762  12.442  19.947  0.00  0.00    +0.000 A 
ATOM     19  S   UNL     1      -2.788  12.705  21.343  0.00  0.00    +0.000 S 
ENDBRANCH  10  11
BRANCH   5  20
ATOM     20  C   UNL     1       1.685   8.118  19.836  0.00  0.00    +0.000 A 
ATOM     21  C   UNL     1       1.670   6.948  20.622  0.00  0.00    +0.000 A 
ATOM     22  C   UNL     1       2.297   5.766  20.196  0.00  0.00    +0.000 A 
ATOM     23  C   UNL     1       2.935   5.723  18.964  0.00  0.00    +0.000 A 
ATOM     24 CL   UNL     1       3.738   4.293  18.454  0.00  0.00    +0.000 Cl
ATOM     25  C   UNL     1       2.913   6.837  18.139  0.00  0.00    +0.000 A 
ATOM     26  C   UNL     1       2.277   8.011  18.565  0.00  0.00    +0.000 A 
ENDBRANCH   5  20
BRANCH   1  29
ATOM     27  C   UNL     1       2.521  14.923  20.009  0.00  0.00    +0.000 C 
ATOM     28  O   UNL     1       2.670  15.981  20.619  0.00  0.00    +0.000 OA
ATOM     29  N   UNL     1       1.917  13.841  20.620  0.00  0.00    +0.000 N 
ATOM     30  H   UNL     1       1.672  13.959  21.597  0.00  0.00    +0.000 HD
BRANCH  27  31
ATOM     31  C   UNL     1       2.942  14.740  18.568  0.00  0.00    +0.000 C 
BRANCH  31  33
ATOM     32  N   UNL     1       2.951  17.191  17.252  0.00  0.00    +0.000 NA
ATOM     33  C   UNL     1       2.946  16.080  17.848  0.00  0.00    +0.000 C 
ENDBRANCH  31  33
ENDBRANCH  27  31
ENDBRANCH   1  29
TORSDOF 5
ENDMDL
MODEL 5
REMARK VINA RESULT:      -7.1      8.225     10.371
REMARK  Name = 
REMARK  5 active torsions:
REMARK  status: ('A' for Active; 'I' for Inactive)
REMARK    1  A    between atoms: C_2  and  C_3
REMARK    2  A    between atoms: C_3  and  C_4
REMARK    3  A    between atoms: N_6  and  N_7
REMARK    4  A    between atoms: N_11  and  C_12
REMARK    5  A    between atoms: C_23  and  C_24
REMARK                            x       y       z     vdW  Elec       q    Type
REMARK                         _______ _______ _______ _____ _____    ______ ____
ROOT
ATOM      1  N   UNL     1      -1.114  12.900  21.989  0.00  0.00    +0.000 NA
ATOM      2  C   UNL     1      -0.588  12.431  20.903  0.00  0.00    +0.000 C 
ATOM      3  C   UNL     1       0.223  13.426  20.088  0.00  0.00    +0.000 C 
ATOM      4  O   UNL     1      -0.301  14.503  19.840  0.00  0.00    +0.000 OA
ATOM      5  N   UNL     1       1.487  12.973  19.724  0.00  0.00    +0.000 N 
ATOM      6  C   UNL     1       1.568  11.676  19.224  0.00  0.00    +0.000 C 
ATOM      7  O   UNL     1       2.167  11.275  18.236  0.00  0.00    +0.000 OA
ATOM      8  C   UNL     1       0.782  10.644  20.012  0.00  0.00    +0.000 C 
ATOM      9  O   UNL     1       1.315   9.597  20.359  0.00  0.00    +0.000 OA
ATOM     10  C   UNL     1      -0.598  11.033  20.398  0.00  0.00    +0.000 C 
ENDROOT
BRANCH  10  11
ATOM     11  C   UNL     1      -1.474  10.963  19.195  0.00  0.00    +0.000 A 
ATOM     12  N   UNL     1      -1.217  10.214  18.148  0.00  0.00    +0.000 NA
ATOM     13  C   UNL     1      -2.205  10.385  17.186  0.00  0.00    +0.000 A 
ATOM     14  C   UNL     1      -2.261   9.750  15.930  0.00  0.00    +0.000 A 
ATOM     15  C   UNL     1      -3.318  10.029  15.056  0.00  0.00    +0.000 A 
ATOM     16  C   UNL     1      -4.315  10.929  15.420  0.00  0.00    +0.000 A 
ATOM     17  C   UNL     1      -4.285  11.569  16.662  0.00  0.00    +0.000 A 
ATOM     18  C   UNL     1      -3.218  11.284  17.530  0.00  0.00    +0.000 A 
ATOM     19  S   UNL     1      -2.903  11.908  19.103  0.00  0.00    +0.000 S 
ENDBRANCH  10  11
BRANCH   5  20
ATOM     20  C   UNL     1       2.554  13.923  19.485  0.00  0.00    +0.000 A 
ATOM     21  C   UNL     1       3.474  14.269  20.495  0.00  0.00    +0.000 A 
ATOM     22  C   UNL     1       4.519  15.177  20.261  0.00  0.00    +0.000 A 
ATOM     23  C   UNL     1       4.678  15.744  19.004  0.00  0.00    +0.000 A 
ATOM     24 CL   UNL     1       5.928  16.887  18.721  0.00  0.00    +0.000 Cl
ATOM     25  C   UNL     1       3.827  15.378  17.972  0.00  0.00    +0.000 A 
ATOM     26  C   UNL     1       2.793  14.462  18.208  0.00  0.00    +0.000 A 
ENDBRANCH   5  20
BRANCH   1  29
ATOM     27  C   UNL     1      -3.064  12.426  23.229  0.00  0.00    +0.000 C 
ATOM     28  O   UNL     1      -3.656  11.765  24.080  0.00  0.00    +0.000 OA
ATOM     29  N   UNL     1      -1.761  12.120  22.884  0.00  0.00    +0.000 N 
ATOM     30  H   UNL     1      -1.322  11.374  23.413  0.00  0.00    +0.000 HD
BRANCH  27  31
ATOM     31  C   UNL     1      -3.710  13.574  22.486  0.00  0.00    +0.000 C 
BRANCH  31  33
ATOM     32  N   UNL     1      -6.166  12.781  21.447  0.00  0.00    +0.000 NA
ATOM     33  C   UNL     1      -5.053  13.141  21.918  0.00  0.00    +0.000 C 
ENDBRANCH  31  33
ENDBRANCH  27  31
ENDBRANCH   1  29
TORSDOF 5
ENDMDL
MODEL 6
REMARK VINA RESULT:      -7.1      5.815     10.445
REMARK  Name = 
REMARK  5 active torsions:
REMARK  status: ('A' for Active; 'I' for Inactive)
REMARK    1  A    between atoms: C_2  and  C_3
REMARK    2  A    between atoms: C_3  and  C_4
REMARK    3  A    between atoms: N_6  and  N_7
REMARK    4  A    between atoms: N_11  and  C_12
REMARK    5  A    between atoms: C_23  and  C_24
REMARK                            x       y       z     vdW  Elec       q    Type
REMARK                         _______ _______ _______ _____ _____    ______ ____
ROOT
ATOM      1  N   UNL     1       1.959  12.444  19.727  0.00  0.00    +0.000 NA
ATOM      2  C   UNL     1       1.042  11.592  20.061  0.00  0.00    +0.000 C 
ATOM      3  C   UNL     1       1.120  10.243  19.363  0.00  0.00    +0.000 C 
ATOM      4  O   UNL     1       1.227  10.250  18.144  0.00  0.00    +0.000 OA
ATOM      5  N   UNL     1       1.060   9.150  20.221  0.00  0.00    +0.000 N 
ATOM      6  C   UNL     1       0.086   9.185  21.215  0.00  0.00    +0.000 C 
ATOM      7  O   UNL     1      -0.694   8.305  21.552  0.00  0.00    +0.000 OA
ATOM      8  C   UNL     1      -0.022  10.510  21.948  0.00  0.00    +0.000 C 
ATOM      9  O   UNL     1      -0.032  10.538  23.172  0.00  0.00    +0.000 OA
ATOM     10  C   UNL     1      -0.015  11.727  21.097  0.00  0.00    +0.000 C 
ENDROOT
BRANCH  10  11
ATOM     11  C   UNL     1      -1.336  11.852  20.421  0.00  0.00    +0.000 A 
ATOM     12  N   UNL     1      -1.573  11.434  19.199  0.00  0.00    +0.000 NA
ATOM     13  C   UNL     1      -2.886  11.715  18.846  0.00  0.00    +0.000 A 
ATOM     14  C   UNL     1      -3.497  11.417  17.611  0.00  0.00    +0.000 A 
ATOM     15  C   UNL     1      -4.834  11.771  17.394  0.00  0.00    +0.000 A 
ATOM     16  C   UNL     1      -5.565  12.412  18.389  0.00  0.00    +0.000 A 
ATOM     17  C   UNL     1      -4.984  12.714  19.623  0.00  0.00    +0.000 A 
ATOM     18  C   UNL     1      -3.641  12.358  19.830  0.00  0.00    +0.000 A 
ATOM     19  S   UNL     1      -2.658  12.597  21.222  0.00  0.00    +0.000 S 
ENDBRANCH  10  11
BRANCH   5  20
ATOM     20  C   UNL     1       1.677   7.896  19.838  0.00  0.00    +0.000 A 
ATOM     21  C   UNL     1       2.411   7.771  18.641  0.00  0.00    +0.000 A 
ATOM     22  C   UNL     1       3.023   6.562  18.275  0.00  0.00    +0.000 A 
ATOM     23  C   UNL     1       2.932   5.457  19.110  0.00  0.00    +0.000 A 
ATOM     24 CL   UNL     1       3.644   3.963  18.651  0.00  0.00    +0.000 Cl
ATOM     25  C   UNL     1       2.271   5.565  20.324  0.00  0.00    +0.000 A 
ATOM     26  C   UNL     1       1.671   6.777  20.690  0.00  0.00    +0.000 A 
ENDBRANCH   5  20
BRANCH   1  29
ATOM     27  C   UNL     1       2.715  14.677  19.662  0.00  0.00    +0.000 C 
ATOM     28  O   UNL     1       2.906  15.758  20.217  0.00  0.00    +0.000 OA
ATOM     29  N   UNL     1       2.102  13.640  20.340  0.00  0.00    +0.000 N 
ATOM     30  H   UNL     1       1.887  13.810  21.316  0.00  0.00    +0.000 HD
BRANCH  27  31
ATOM     31  C   UNL     1       3.091  14.416  18.220  0.00  0.00    +0.000 C 
BRANCH  31  33
ATOM     32  N   UNL     1       5.802  14.900  17.834  0.00  0.00    +0.000 NA
ATOM     33  C   UNL     1       4.573  14.680  18.010  0.00  0.00    +0.000 C 
ENDBRANCH  31  33
ENDBRANCH  27  31
ENDBRANCH   1  29
TORSDOF 5
ENDMDL
MODEL 7
REMARK VINA RESULT:      -7.1      7.100     11.886
REMARK  Name = 
REMARK  5 active torsions:
REMARK  status: ('A' for Active; 'I' for Inactive)
REMARK    1  A    between atoms: C_2  and  C_3
REMARK    2  A    between atoms: C_3  and  C_4
REMARK    3  A    between atoms: N_6  and  N_7
REMARK    4  A    between atoms: N_11  and  C_12
REMARK    5  A    between atoms: C_23  and  C_24
REMARK                            x       y       z     vdW  Elec       q    Type
REMARK                         _______ _______ _______ _____ _____    ______ ____
ROOT
ATOM      1  N   UNL     1      -0.499  13.665  18.560  0.00  0.00    +0.000 NA
ATOM      2  C   UNL     1      -0.906  12.907  19.528  0.00  0.00    +0.000 C 
ATOM      3  C   UNL     1      -0.709  11.415  19.315  0.00  0.00    +0.000 C 
ATOM      4  O   UNL     1      -1.100  10.946  18.254  0.00  0.00    +0.000 OA
ATOM      5  N   UNL     1      -0.094  10.761  20.377  0.00  0.00    +0.000 N 
ATOM      6  C   UNL     1      -0.557  11.064  21.654  0.00  0.00    +0.000 C 
ATOM      7  O   UNL     1      -0.836  10.299  22.567  0.00  0.00    +0.000 OA
ATOM      8  C   UNL     1      -0.759  12.545  21.918  0.00  0.00    +0.000 C 
ATOM      9  O   UNL     1      -0.292  13.060  22.926  0.00  0.00    +0.000 OA
ATOM     10  C   UNL     1      -1.455  13.307  20.850  0.00  0.00    +0.000 C 
ENDROOT
BRANCH  10  11
ATOM     11  C   UNL     1      -2.907  12.977  20.887  0.00  0.00    +0.000 A 
ATOM     12  N   UNL     1      -3.598  12.608  19.833  0.00  0.00    +0.000 NA
ATOM     13  C   UNL     1      -4.924  12.395  20.185  0.00  0.00    +0.000 A 
ATOM     14  C   UNL     1      -5.961  11.995  19.317  0.00  0.00    +0.000 A 
ATOM     15  C   UNL     1      -7.258  11.828  19.814  0.00  0.00    +0.000 A 
ATOM     16  C   UNL     1      -7.533  12.052  21.160  0.00  0.00    +0.000 A 
ATOM     17  C   UNL     1      -6.522  12.444  22.042  0.00  0.00    +0.000 A 
ATOM     18  C   UNL     1      -5.224  12.612  21.532  0.00  0.00    +0.000 A 
ATOM     19  S   UNL     1      -3.789  13.087  22.355  0.00  0.00    +0.000 S 
ENDBRANCH  10  11
BRANCH   5  20
ATOM     20  C   UNL     1       0.667   9.551  20.137  0.00  0.00    +0.000 A 
ATOM     21  C   UNL     1       1.382   9.355  18.938  0.00  0.00    +0.000 A 
ATOM     22  C   UNL     1       2.133   8.191  18.710  0.00  0.00    +0.000 A 
ATOM     23  C   UNL     1       2.202   7.206  19.686  0.00  0.00    +0.000 A 
ATOM     24 CL   UNL     1       3.086   5.762  19.399  0.00  0.00    +0.000 Cl
ATOM     25  C   UNL     1       1.562   7.397  20.901  0.00  0.00    +0.000 A 
ATOM     26  C   UNL     1       0.822   8.565  21.128  0.00  0.00    +0.000 A 
ENDBRANCH   5  20
BRANCH   1  29
ATOM     27  C   UNL     1       0.686  15.664  18.965  0.00  0.00    +0.000 C 
ATOM     28  O   UNL     1       0.706  16.887  19.100  0.00  0.00    +0.000 OA
ATOM     29  N   UNL     1      -0.491  15.015  18.643  0.00  0.00    +0.000 N 
ATOM     30  H   UNL     1      -1.322  15.594  18.591  0.00  0.00    +0.000 HD
BRANCH  27  31
ATOM     31  C   UNL     1       1.921  14.803  19.101  0.00  0.00    +0.000 C 
BRANCH  31  33
ATOM     32  N   UNL     1       3.859  15.609  17.277  0.00  0.00    +0.000 NA
ATOM     33  C   UNL     1       2.980  15.243  18.103  0.00  0.00    +0.000 C 
ENDBRANCH  31  33
ENDBRANCH  27  31
ENDBRANCH   1  29
TORSDOF 5
ENDMDL
MODEL 8
REMARK VINA RESULT:      -7.0      8.216     10.500
REMARK  Name = 
REMARK  5 active torsions:
REMARK  status: ('A' for Active; 'I' for Inactive)
REMARK    1  A    between atoms: C_2  and  C_3
REMARK    2  A    between atoms: C_3  and  C_4
REMARK    3  A    between atoms: N_6  and  N_7
REMARK    4  A    between atoms: N_11  and  C_12
REMARK    5  A    between atoms: C_23  and  C_24
REMARK                            x       y       z     vdW  Elec       q    Type
REMARK                         _______ _______ _______ _____ _____    ______ ____
ROOT
ATOM      1  N   UNL     1      -1.138  12.905  21.965  0.00  0.00    +0.000 NA
ATOM      2  C   UNL     1      -0.613  12.411  20.889  0.00  0.00    +0.000 C 
ATOM      3  C   UNL     1       0.229  13.377  20.071  0.00  0.00    +0.000 C 
ATOM      4  O   UNL     1      -0.268  14.463  19.805  0.00  0.00    +0.000 OA
ATOM      5  N   UNL     1       1.485  12.890  19.724  0.00  0.00    +0.000 N 
ATOM      6  C   UNL     1       1.540  11.586  19.240  0.00  0.00    +0.000 C 
ATOM      7  O   UNL     1       2.139  11.159  18.262  0.00  0.00    +0.000 OA
ATOM      8  C   UNL     1       0.722  10.582  20.032  0.00  0.00    +0.000 C 
ATOM      9  O   UNL     1       1.227   9.527  20.396  0.00  0.00    +0.000 OA
ATOM     10  C   UNL     1      -0.652  11.007  20.400  0.00  0.00    +0.000 C 
ENDROOT
BRANCH  10  11
ATOM     11  C   UNL     1      -1.518  10.945  19.190  0.00  0.00    +0.000 A 
ATOM     12  N   UNL     1      -1.251  10.204  18.139  0.00  0.00    +0.000 NA
ATOM     13  C   UNL     1      -2.231  10.379  17.171  0.00  0.00    +0.000 A 
ATOM     14  C   UNL     1      -2.276   9.753  15.910  0.00  0.00    +0.000 A 
ATOM     15  C   UNL     1      -3.327  10.036  15.029  0.00  0.00    +0.000 A 
ATOM     16  C   UNL     1      -4.329  10.931  15.391  0.00  0.00    +0.000 A 
ATOM     17  C   UNL     1      -4.309  11.563  16.638  0.00  0.00    +0.000 A 
ATOM     18  C   UNL     1      -3.249  11.273  17.513  0.00  0.00    +0.000 A 
ATOM     19  S   UNL     1      -2.948  11.887  19.092  0.00  0.00    +0.000 S 
ENDBRANCH  10  11
BRANCH   5  20
ATOM     20  C   UNL     1       2.576  13.812  19.485  0.00  0.00    +0.000 A 
ATOM     21  C   UNL     1       2.793  14.382  18.214  0.00  0.00    +0.000 A 
ATOM     22  C   UNL     1       3.840  15.290  17.983  0.00  0.00    +0.000 A 
ATOM     23  C   UNL     1       4.680  15.661  19.024  0.00  0.00    +0.000 A 
ATOM     24 CL   UNL     1       5.987  16.738  18.740  0.00  0.00    +0.000 Cl
ATOM     25  C   UNL     1       4.454  15.166  20.300  0.00  0.00    +0.000 A 
ATOM     26  C   UNL     1       3.401  14.270  20.527  0.00  0.00    +0.000 A 
ENDBRANCH   5  20
BRANCH   1  29
ATOM     27  C   UNL     1      -3.104  12.503  23.206  0.00  0.00    +0.000 C 
ATOM     28  O   UNL     1      -3.718  11.865  24.060  0.00  0.00    +0.000 OA
ATOM     29  N   UNL     1      -1.812  12.150  22.862  0.00  0.00    +0.000 N 
ATOM     30  H   UNL     1      -1.400  11.391  23.393  0.00  0.00    +0.000 HD
BRANCH  27  31
ATOM     31  C   UNL     1      -3.710  13.670  22.459  0.00  0.00    +0.000 C 
BRANCH  31  33
ATOM     32  N   UNL     1      -6.015  14.541  23.748  0.00  0.00    +0.000 NA
ATOM     33  C   UNL     1      -4.970  14.146  23.163  0.00  0.00    +0.000 C 
ENDBRANCH  31  33
ENDBRANCH  27  31
ENDBRANCH   1  29
TORSDOF 5
ENDMDL
MODEL 9
REMARK VINA RESULT:      -7.0      7.722     12.661
REMARK  Name = 
REMARK  5 active torsions:
REMARK  status: ('A' for Active; 'I' for Inactive)
REMARK    1  A    between atoms: C_2  and  C_3
REMARK    2  A    between atoms: C_3  and  C_4
REMARK    3  A    between atoms: N_6  and  N_7
REMARK    4  A    between atoms: N_11  and  C_12
REMARK    5  A    between atoms: C_23  and  C_24
REMARK                            x       y       z     vdW  Elec       q    Type
REMARK                         _______ _______ _______ _____ _____    ______ ____
ROOT
ATOM      1  N   UNL     1      -1.285  14.163  19.325  0.00  0.00    +0.000 NA
ATOM      2  C   UNL     1      -1.489  13.401  20.352  0.00  0.00    +0.000 C 
ATOM      3  C   UNL     1      -1.257  11.916  20.120  0.00  0.00    +0.000 C 
ATOM      4  O   UNL     1      -1.794  11.414  19.142  0.00  0.00    +0.000 OA
ATOM      5  N   UNL     1      -0.443  11.308  21.069  0.00  0.00    +0.000 N 
ATOM      6  C   UNL     1      -0.703  11.608  22.404  0.00  0.00    +0.000 C 
ATOM      7  O   UNL     1      -0.789  10.845  23.356  0.00  0.00    +0.000 OA
ATOM      8  C   UNL     1      -0.931  13.082  22.687  0.00  0.00    +0.000 C 
ATOM      9  O   UNL     1      -0.330  13.634  23.600  0.00  0.00    +0.000 OA
ATOM     10  C   UNL     1      -1.830  13.794  21.745  0.00  0.00    +0.000 C 
ENDROOT
BRANCH  10  11
ATOM     11  C   UNL     1      -3.238  13.396  22.024  0.00  0.00    +0.000 A 
ATOM     12  N   UNL     1      -4.079  12.992  21.100  0.00  0.00    +0.000 NA
ATOM     13  C   UNL     1      -5.316  12.718  21.669  0.00  0.00    +0.000 A 
ATOM     14  C   UNL     1      -6.463  12.267  20.986  0.00  0.00    +0.000 A 
ATOM     15  C   UNL     1      -7.650  12.041  21.694  0.00  0.00    +0.000 A 
ATOM     16  C   UNL     1      -7.703  12.256  23.068  0.00  0.00    +0.000 A 
ATOM     17  C   UNL     1      -6.578  12.698  23.769  0.00  0.00    +0.000 A 
ATOM     18  C   UNL     1      -5.394  12.925  23.048  0.00  0.00    +0.000 A 
ATOM     19  S   UNL     1      -3.864  13.470  23.620  0.00  0.00    +0.000 S 
ENDBRANCH  10  11
BRANCH   5  20
ATOM     20  C   UNL     1       0.326  10.132  20.715  0.00  0.00    +0.000 A 
ATOM     21  C   UNL     1       0.389   9.009  21.564  0.00  0.00    +0.000 A 
ATOM     22  C   UNL     1       1.120   7.862  21.215  0.00  0.00    +0.000 A 
ATOM     23  C   UNL     1       1.788   7.806  20.000  0.00  0.00    +0.000 A 
ATOM     24 CL   UNL     1       2.717   6.423  19.584  0.00  0.00    +0.000 Cl
ATOM     25  C   UNL     1       1.694   8.870  19.115  0.00  0.00    +0.000 A 
ATOM     26  C   UNL     1       0.954  10.008  19.463  0.00  0.00    +0.000 A 
ENDBRANCH   5  20
BRANCH   1  29
ATOM     27  C   UNL     1      -0.173  16.238  19.183  0.00  0.00    +0.000 C 
ATOM     28  O   UNL     1      -0.176  17.463  19.296  0.00  0.00    +0.000 OA
ATOM     29  N   UNL     1      -1.330  15.512  19.397  0.00  0.00    +0.000 N 
ATOM     30  H   UNL     1      -2.139  16.041  19.705  0.00  0.00    +0.000 HD
BRANCH  27  31
ATOM     31  C   UNL     1       1.055  15.454  18.777  0.00  0.00    +0.000 C 
BRANCH  31  33
ATOM     32  N   UNL     1       3.175  17.184  18.280  0.00  0.00    +0.000 NA
ATOM     33  C   UNL     1       2.214  16.399  18.505  0.00  0.00    +0.000 C 
ENDBRANCH  31  33
ENDBRANCH  27  31
ENDBRANCH   1  29
TORSDOF 5
ENDMDL
