MODEL 1
REMARK VINA RESULT:      -7.5      0.000      0.000
REMARK  Name = 
REMARK  4 active torsions:
REMARK  status: ('A' for Active; 'I' for Inactive)
REMARK    1  A    between atoms: N_7  and  C_8
REMARK    2  A    between atoms: C_8  and  C_9
REMARK    3  A    between atoms: N_16  and  C_17
REMARK    4  A    between atoms: C_17  and  C_18
REMARK                            x       y       z     vdW  Elec       q    Type
REMARK                         _______ _______ _______ _____ _____    ______ ____
ROOT
ATOM      1  O   UNL     1       0.641   4.346  20.472  0.00  0.00    +0.000 OA
ATOM      2  C   UNL     1       1.451   3.999  19.614  0.00  0.00    +0.000 C 
ATOM      3  C   UNL     1       1.067   2.975  18.505  0.00  0.00    +0.000 C 
ATOM      4  O   UNL     1       2.052   2.475  17.598  0.00  0.00    +0.000 OA
ATOM      5  C   UNL     1       3.036   3.473  17.351  0.00  0.00    +0.000 C 
ATOM      6  C   UNL     1       4.223   3.013  16.520  0.00  0.00    +0.000 C 
ATOM      7  N   UNL     1       5.365   3.862  16.937  0.00  0.00    +0.000 NA
ATOM      8  C   UNL     1       4.982   4.496  18.221  0.00  0.00    +0.000 C 
ATOM      9  C   UNL     1       3.685   3.844  18.675  0.00  0.00    +0.000 C 
ATOM     10  N   UNL     1       2.712   4.582  19.472  0.00  0.00    +0.000 N 
ENDROOT
BRANCH   7  11
ATOM     11  C   UNL     1       5.710   4.859  15.912  0.00  0.00    +0.000 C 
BRANCH  11  12
ATOM     12  C   UNL     1       6.451   4.250  14.717  0.00  0.00    +0.000 C 
ATOM     13  C   UNL     1       5.559   3.762  13.594  0.00  0.00    +0.000 C 
ATOM     14  C   UNL     1       6.508   3.750  12.411  0.00  0.00    +0.000 C 
ATOM     15  O   UNL     1       7.531   4.723  12.672  0.00  0.00    +0.000 OA
ATOM     16  C   UNL     1       7.326   5.254  13.989  0.00  0.00    +0.000 C 
ENDBRANCH  11  12
ENDBRANCH   7  11
BRANCH  10  17
ATOM     17  C   UNL     1       3.034   5.811  20.182  0.00  0.00    +0.000 C 
BRANCH  17  18
ATOM     18  C   UNL     1       2.494   7.069  19.560  0.00  0.00    +0.000 A 
ATOM     19  C   UNL     1       2.693   7.339  18.195  0.00  0.00    +0.000 A 
ATOM     20  C   UNL     1       2.131   8.474  17.605  0.00  0.00    +0.000 A 
ATOM     21  C   UNL     1       1.361   9.348  18.371  0.00  0.00    +0.000 A 
ATOM     22  C   UNL     1       1.155   9.077  19.718  0.00  0.00    +0.000 A 
ATOM     23  F   UNL     1       0.399   9.905  20.449  0.00  0.00    +0.000 F 
ATOM     24  C   UNL     1       1.710   7.951  20.315  0.00  0.00    +0.000 A 
ENDBRANCH  17  18
ENDBRANCH  10  17
TORSDOF 4
ENDMDL
MODEL 2
REMARK VINA RESULT:      -7.5      2.023      2.632
REMARK  Name = 
REMARK  4 active torsions:
REMARK  status: ('A' for Active; 'I' for Inactive)
REMARK    1  A    between atoms: N_7  and  C_8
REMARK    2  A    between atoms: C_8  and  C_9
REMARK    3  A    between atoms: N_16  and  C_17
REMARK    4  A    between atoms: C_17  and  C_18
REMARK                            x       y       z     vdW  Elec       q    Type
REMARK                         _______ _______ _______ _____ _____    ______ ____
ROOT
ATOM      1  O   UNL     1       0.475   4.208  20.349  0.00  0.00    +0.000 OA
ATOM      2  C   UNL     1       1.424   4.003  19.594  0.00  0.00    +0.000 C 
ATOM      3  C   UNL     1       1.308   3.010  18.399  0.00  0.00    +0.000 C 
ATOM      4  O   UNL     1       2.454   2.675  17.613  0.00  0.00    +0.000 OA
ATOM      5  C   UNL     1       3.339   3.787  17.546  0.00  0.00    +0.000 C 
ATOM      6  C   UNL     1       4.669   3.509  16.864  0.00  0.00    +0.000 C 
ATOM      7  N   UNL     1       5.642   4.450  17.470  0.00  0.00    +0.000 NA
ATOM      8  C   UNL     1       5.025   4.961  18.717  0.00  0.00    +0.000 C 
ATOM      9  C   UNL     1       3.764   4.146  18.961  0.00  0.00    +0.000 C 
ATOM     10  N   UNL     1       2.617   4.726  19.651  0.00  0.00    +0.000 N 
ENDROOT
BRANCH   7  11
ATOM     11  C   UNL     1       5.999   5.538  16.547  0.00  0.00    +0.000 C 
BRANCH  11  12
ATOM     12  C   UNL     1       7.222   6.335  17.013  0.00  0.00    +0.000 C 
ATOM     13  C   UNL     1       6.971   7.812  17.242  0.00  0.00    +0.000 C 
ATOM     14  C   UNL     1       8.106   8.191  18.172  0.00  0.00    +0.000 C 
ATOM     15  O   UNL     1       8.487   7.006  18.889  0.00  0.00    +0.000 OA
ATOM     16  C   UNL     1       7.727   5.903  18.377  0.00  0.00    +0.000 C 
ENDBRANCH  11  12
ENDBRANCH   7  11
BRANCH  10  17
ATOM     17  C   UNL     1       2.700   5.938  20.452  0.00  0.00    +0.000 C 
BRANCH  17  18
ATOM     18  C   UNL     1       2.242   7.193  19.762  0.00  0.00    +0.000 A 
ATOM     19  C   UNL     1       2.515   7.405  18.400  0.00  0.00    +0.000 A 
ATOM     20  C   UNL     1       2.029   8.540  17.744  0.00  0.00    +0.000 A 
ATOM     21  C   UNL     1       1.262   9.470  18.442  0.00  0.00    +0.000 A 
ATOM     22  C   UNL     1       0.983   9.257  19.787  0.00  0.00    +0.000 A 
ATOM     23  F   UNL     1       0.229  10.142  20.451  0.00  0.00    +0.000 F 
ATOM     24  C   UNL     1       1.462   8.133  20.448  0.00  0.00    +0.000 A 
ENDBRANCH  17  18
ENDBRANCH  10  17
TORSDOF 4
ENDMDL
MODEL 3
REMARK VINA RESULT:      -7.4      2.887      4.336
REMARK  Name = 
REMARK  4 active torsions:
REMARK  status: ('A' for Active; 'I' for Inactive)
REMARK    1  A    between atoms: N_7  and  C_8
REMARK    2  A    between atoms: C_8  and  C_9
REMARK    3  A    between atoms: N_16  and  C_17
REMARK    4  A    between atoms: C_17  and  C_18
REMARK                            x       y       z     vdW  Elec       q    Type
REMARK                         _______ _______ _______ _____ _____    ______ ____
ROOT
ATOM      1  O   UNL     1       5.943   5.510  19.866  0.00  0.00    +0.000 OA
ATOM      2  C   UNL     1       6.275   5.337  18.695  0.00  0.00    +0.000 C 
ATOM      3  C   UNL     1       7.578   4.566  18.327  0.00  0.00    +0.000 C 
ATOM      4  O   UNL     1       8.025   4.490  16.972  0.00  0.00    +0.000 OA
ATOM      5  C   UNL     1       6.908   4.481  16.091  0.00  0.00    +0.000 C 
ATOM      6  C   UNL     1       7.254   4.556  14.613  0.00  0.00    +0.000 C 
ATOM      7  N   UNL     1       6.096   5.209  13.956  0.00  0.00    +0.000 NA
ATOM      8  C   UNL     1       5.301   5.853  15.029  0.00  0.00    +0.000 C 
ATOM      9  C   UNL     1       6.117   5.762  16.309  0.00  0.00    +0.000 C 
ATOM     10  N   UNL     1       5.465   5.683  17.612  0.00  0.00    +0.000 N 
ENDROOT
BRANCH   7  11
ATOM     11  C   UNL     1       5.296   4.251  13.177  0.00  0.00    +0.000 C 
BRANCH  11  12
ATOM     12  C   UNL     1       6.123   3.070  12.658  0.00  0.00    +0.000 C 
ATOM     13  C   UNL     1       5.373   2.118  11.748  0.00  0.00    +0.000 C 
ATOM     14  C   UNL     1       6.500   1.439  10.994  0.00  0.00    +0.000 C 
ATOM     15  O   UNL     1       7.612   2.349  10.975  0.00  0.00    +0.000 OA
ATOM     16  C   UNL     1       7.271   3.497  11.763  0.00  0.00    +0.000 C 
ENDBRANCH  11  12
ENDBRANCH   7  11
BRANCH  10  17
ATOM     17  C   UNL     1       4.070   6.039  17.825  0.00  0.00    +0.000 C 
BRANCH  17  18
ATOM     18  C   UNL     1       3.142   4.878  18.051  0.00  0.00    +0.000 A 
ATOM     19  C   UNL     1       3.284   3.689  17.316  0.00  0.00    +0.000 A 
ATOM     20  C   UNL     1       2.464   2.587  17.576  0.00  0.00    +0.000 A 
ATOM     21  C   UNL     1       1.497   2.662  18.577  0.00  0.00    +0.000 A 
ATOM     22  C   UNL     1       1.361   3.833  19.312  0.00  0.00    +0.000 A 
ATOM     23  F   UNL     1       0.446   3.897  20.287  0.00  0.00    +0.000 F 
ATOM     24  C   UNL     1       2.171   4.935  19.060  0.00  0.00    +0.000 A 
ENDBRANCH  17  18
ENDBRANCH  10  17
TORSDOF 4
ENDMDL
MODEL 4
REMARK VINA RESULT:      -7.4      3.205      7.270
REMARK  Name = 
REMARK  4 active torsions:
REMARK  status: ('A' for Active; 'I' for Inactive)
REMARK    1  A    between atoms: N_7  and  C_8
REMARK    2  A    between atoms: C_8  and  C_9
REMARK    3  A    between atoms: N_16  and  C_17
REMARK    4  A    between atoms: C_17  and  C_18
REMARK                            x       y       z     vdW  Elec       q    Type
REMARK                         _______ _______ _______ _____ _____    ______ ____
ROOT
ATOM      1  O   UNL     1       7.905   6.936  16.444  0.00  0.00    +0.000 OA
ATOM      2  C   UNL     1       7.284   6.122  17.126  0.00  0.00    +0.000 C 
ATOM      3  C   UNL     1       7.614   5.909  18.634  0.00  0.00    +0.000 C 
ATOM      4  O   UNL     1       6.983   4.866  19.381  0.00  0.00    +0.000 OA
ATOM      5  C   UNL     1       5.664   4.649  18.892  0.00  0.00    +0.000 C 
ATOM      6  C   UNL     1       4.940   3.461  19.504  0.00  0.00    +0.000 C 
ATOM      7  N   UNL     1       3.984   2.992  18.473  0.00  0.00    +0.000 NA
ATOM      8  C   UNL     1       4.407   3.597  17.188  0.00  0.00    +0.000 C 
ATOM      9  C   UNL     1       5.756   4.258  17.425  0.00  0.00    +0.000 C 
ATOM     10  N   UNL     1       6.162   5.433  16.662  0.00  0.00    +0.000 N 
ENDROOT
BRANCH   7  11
ATOM     11  C   UNL     1       2.596   3.338  18.815  0.00  0.00    +0.000 C 
BRANCH  11  12
ATOM     12  C   UNL     1       2.497   4.555  19.741  0.00  0.00    +0.000 C 
ATOM     13  C   UNL     1       2.428   5.892  19.032  0.00  0.00    +0.000 C 
ATOM     14  C   UNL     1       1.805   6.784  20.088  0.00  0.00    +0.000 C 
ATOM     15  O   UNL     1       1.023   5.944  20.951  0.00  0.00    +0.000 OA
ATOM     16  C   UNL     1       1.216   4.580  20.553  0.00  0.00    +0.000 C 
ENDBRANCH  11  12
ENDBRANCH   7  11
BRANCH  10  17
ATOM     17  C   UNL     1       5.517   5.836  15.420  0.00  0.00    +0.000 C 
BRANCH  17  18
ATOM     18  C   UNL     1       6.001   5.122  14.189  0.00  0.00    +0.000 A 
ATOM     19  C   UNL     1       7.277   5.385  13.660  0.00  0.00    +0.000 A 
ATOM     20  C   UNL     1       7.751   4.671  12.555  0.00  0.00    +0.000 A 
ATOM     21  C   UNL     1       6.957   3.684  11.973  0.00  0.00    +0.000 A 
ATOM     22  C   UNL     1       5.701   3.416  12.501  0.00  0.00    +0.000 A 
ATOM     23  F   UNL     1       4.947   2.454  11.953  0.00  0.00    +0.000 F 
ATOM     24  C   UNL     1       5.219   4.121  13.598  0.00  0.00    +0.000 A 
ENDBRANCH  17  18
ENDBRANCH  10  17
TORSDOF 4
ENDMDL
MODEL 5
REMARK VINA RESULT:      -7.3      2.987      7.264
REMARK  Name = 
REMARK  4 active torsions:
REMARK  status: ('A' for Active; 'I' for Inactive)
REMARK    1  A    between atoms: N_7  and  C_8
REMARK    2  A    between atoms: C_8  and  C_9
REMARK    3  A    between atoms: N_16  and  C_17
REMARK    4  A    between atoms: C_17  and  C_18
REMARK                            x       y       z     vdW  Elec       q    Type
REMARK                         _______ _______ _______ _____ _____    ______ ____
ROOT
ATOM      1  O   UNL     1       4.934   2.538  19.716  0.00  0.00    +0.000 OA
ATOM      2  C   UNL     1       3.983   3.291  19.915  0.00  0.00    +0.000 C 
ATOM      3  C   UNL     1       2.700   2.798  20.650  0.00  0.00    +0.000 C 
ATOM      4  O   UNL     1       1.548   3.638  20.754  0.00  0.00    +0.000 OA
ATOM      5  C   UNL     1       1.947   5.002  20.832  0.00  0.00    +0.000 C 
ATOM      6  C   UNL     1       0.808   6.008  20.794  0.00  0.00    +0.000 C 
ATOM      7  N   UNL     1       1.377   7.244  20.205  0.00  0.00    +0.000 NA
ATOM      8  C   UNL     1       2.653   6.863  19.556  0.00  0.00    +0.000 C 
ATOM      9  C   UNL     1       2.731   5.344  19.575  0.00  0.00    +0.000 C 
ATOM     10  N   UNL     1       4.017   4.658  19.635  0.00  0.00    +0.000 N 
ENDROOT
BRANCH   7  11
ATOM     11  C   UNL     1       1.565   8.295  21.217  0.00  0.00    +0.000 C 
BRANCH  11  12
ATOM     12  C   UNL     1       0.250   8.962  21.635  0.00  0.00    +0.000 C 
ATOM     13  C   UNL     1       0.220   9.475  23.060  0.00  0.00    +0.000 C 
ATOM     14  C   UNL     1      -0.890  10.507  23.007  0.00  0.00    +0.000 C 
ATOM     15  O   UNL     1      -0.968  10.983  21.654  0.00  0.00    +0.000 OA
ATOM     16  C   UNL     1      -0.047  10.228  20.854  0.00  0.00    +0.000 C 
ENDBRANCH  11  12
ENDBRANCH   7  11
BRANCH  10  17
ATOM     17  C   UNL     1       5.281   5.310  19.324  0.00  0.00    +0.000 C 
BRANCH  17  18
ATOM     18  C   UNL     1       5.633   5.355  17.863  0.00  0.00    +0.000 A 
ATOM     19  C   UNL     1       6.511   4.410  17.305  0.00  0.00    +0.000 A 
ATOM     20  C   UNL     1       6.783   4.413  15.934  0.00  0.00    +0.000 A 
ATOM     21  C   UNL     1       6.177   5.357  15.107  0.00  0.00    +0.000 A 
ATOM     22  C   UNL     1       5.301   6.286  15.655  0.00  0.00    +0.000 A 
ATOM     23  F   UNL     1       4.704   7.179  14.857  0.00  0.00    +0.000 F 
ATOM     24  C   UNL     1       5.025   6.292  17.017  0.00  0.00    +0.000 A 
ENDBRANCH  17  18
ENDBRANCH  10  17
TORSDOF 4
ENDMDL
MODEL 6
REMARK VINA RESULT:      -7.1      3.340      7.353
REMARK  Name = 
REMARK  4 active torsions:
REMARK  status: ('A' for Active; 'I' for Inactive)
REMARK    1  A    between atoms: N_7  and  C_8
REMARK    2  A    between atoms: C_8  and  C_9
REMARK    3  A    between atoms: N_16  and  C_17
REMARK    4  A    between atoms: C_17  and  C_18
REMARK                            x       y       z     vdW  Elec       q    Type
REMARK                         _______ _______ _______ _____ _____    ______ ____
ROOT
ATOM      1  O   UNL     1       4.960   2.393  19.858  0.00  0.00    +0.000 OA
ATOM      2  C   UNL     1       4.014   3.154  20.055  0.00  0.00    +0.000 C 
ATOM      3  C   UNL     1       2.809   2.734  20.949  0.00  0.00    +0.000 C 
ATOM      4  O   UNL     1       1.654   3.568  21.060  0.00  0.00    +0.000 OA
ATOM      5  C   UNL     1       2.030   4.936  20.951  0.00  0.00    +0.000 C 
ATOM      6  C   UNL     1       0.873   5.919  20.901  0.00  0.00    +0.000 C 
ATOM      7  N   UNL     1       1.364   7.088  20.133  0.00  0.00    +0.000 NA
ATOM      8  C   UNL     1       2.588   6.650  19.420  0.00  0.00    +0.000 C 
ATOM      9  C   UNL     1       2.697   5.144  19.600  0.00  0.00    +0.000 C 
ATOM     10  N   UNL     1       3.997   4.482  19.624  0.00  0.00    +0.000 N 
ENDROOT
BRANCH   7  11
ATOM     11  C   UNL     1       1.618   8.248  21.001  0.00  0.00    +0.000 C 
BRANCH  11  12
ATOM     12  C   UNL     1       0.329   8.902  21.511  0.00  0.00    +0.000 C 
ATOM     13  C   UNL     1       0.391   9.404  22.940  0.00  0.00    +0.000 C 
ATOM     14  C   UNL     1      -0.726  10.429  22.969  0.00  0.00    +0.000 C 
ATOM     15  O   UNL     1      -0.897  10.915  21.628  0.00  0.00    +0.000 OA
ATOM     16  C   UNL     1      -0.027  10.173  20.763  0.00  0.00    +0.000 C 
ENDBRANCH  11  12
ENDBRANCH   7  11
BRANCH  10  17
ATOM     17  C   UNL     1       5.216   5.108  19.133  0.00  0.00    +0.000 C 
BRANCH  17  18
ATOM     18  C   UNL     1       5.313   5.233  17.638  0.00  0.00    +0.000 A 
ATOM     19  C   UNL     1       5.104   6.470  17.005  0.00  0.00    +0.000 A 
ATOM     20  C   UNL     1       5.263   6.598  15.622  0.00  0.00    +0.000 A 
ATOM     21  C   UNL     1       5.636   5.492  14.860  0.00  0.00    +0.000 A 
ATOM     22  C   UNL     1       5.853   4.271  15.486  0.00  0.00    +0.000 A 
ATOM     23  F   UNL     1       6.232   3.214  14.756  0.00  0.00    +0.000 F 
ATOM     24  C   UNL     1       5.698   4.133  16.860  0.00  0.00    +0.000 A 
ENDBRANCH  17  18
ENDBRANCH  10  17
TORSDOF 4
ENDMDL
MODEL 7
REMARK VINA RESULT:      -7.1      3.695      7.419
REMARK  Name = 
REMARK  4 active torsions:
REMARK  status: ('A' for Active; 'I' for Inactive)
REMARK    1  A    between atoms: N_7  and  C_8
REMARK    2  A    between atoms: C_8  and  C_9
REMARK    3  A    between atoms: N_16  and  C_17
REMARK    4  A    between atoms: C_17  and  C_18
REMARK                            x       y       z     vdW  Elec       q    Type
REMARK                         _______ _______ _______ _____ _____    ______ ____
ROOT
ATOM      1  O   UNL     1       7.932   6.588  16.548  0.00  0.00    +0.000 OA
ATOM      2  C   UNL     1       7.142   5.887  17.179  0.00  0.00    +0.000 C 
ATOM      3  C   UNL     1       7.323   5.637  18.706  0.00  0.00    +0.000 C 
ATOM      4  O   UNL     1       6.483   4.713  19.400  0.00  0.00    +0.000 OA
ATOM      5  C   UNL     1       5.186   4.701  18.815  0.00  0.00    +0.000 C 
ATOM      6  C   UNL     1       4.241   3.647  19.367  0.00  0.00    +0.000 C 
ATOM      7  N   UNL     1       3.301   3.325  18.266  0.00  0.00    +0.000 NA
ATOM      8  C   UNL     1       3.907   3.847  17.018  0.00  0.00    +0.000 C 
ATOM      9  C   UNL     1       5.322   4.289  17.357  0.00  0.00    +0.000 C 
ATOM     10  N   UNL     1       5.963   5.380  16.630  0.00  0.00    +0.000 N 
ENDROOT
BRANCH   7  11
ATOM     11  C   UNL     1       1.963   3.888  18.506  0.00  0.00    +0.000 C 
BRANCH  11  12
ATOM     12  C   UNL     1       1.436   3.589  19.914  0.00  0.00    +0.000 C 
ATOM     13  C   UNL     1       1.624   2.158  20.374  0.00  0.00    +0.000 C 
ATOM     14  C   UNL     1       1.544   2.292  21.883  0.00  0.00    +0.000 C 
ATOM     15  O   UNL     1       1.952   3.628  22.216  0.00  0.00    +0.000 OA
ATOM     16  C   UNL     1       2.174   4.352  20.998  0.00  0.00    +0.000 C 
ENDBRANCH  11  12
ENDBRANCH   7  11
BRANCH  10  17
ATOM     17  C   UNL     1       5.483   5.869  15.346  0.00  0.00    +0.000 C 
BRANCH  17  18
ATOM     18  C   UNL     1       6.003   5.128  14.145  0.00  0.00    +0.000 A 
ATOM     19  C   UNL     1       7.293   5.382  13.647  0.00  0.00    +0.000 A 
ATOM     20  C   UNL     1       7.799   4.644  12.574  0.00  0.00    +0.000 A 
ATOM     21  C   UNL     1       7.025   3.642  11.992  0.00  0.00    +0.000 A 
ATOM     22  C   UNL     1       5.754   3.383  12.490  0.00  0.00    +0.000 A 
ATOM     23  F   UNL     1       5.018   2.407  11.943  0.00  0.00    +0.000 F 
ATOM     24  C   UNL     1       5.240   4.112  13.556  0.00  0.00    +0.000 A 
ENDBRANCH  17  18
ENDBRANCH  10  17
TORSDOF 4
ENDMDL
MODEL 8
REMARK VINA RESULT:      -7.1      3.177      4.591
REMARK  Name = 
REMARK  4 active torsions:
REMARK  status: ('A' for Active; 'I' for Inactive)
REMARK    1  A    between atoms: N_7  and  C_8
REMARK    2  A    between atoms: C_8  and  C_9
REMARK    3  A    between atoms: N_16  and  C_17
REMARK    4  A    between atoms: C_17  and  C_18
REMARK                            x       y       z     vdW  Elec       q    Type
REMARK                         _______ _______ _______ _____ _____    ______ ____
ROOT
ATOM      1  O   UNL     1       5.957   5.539  19.916  0.00  0.00    +0.000 OA
ATOM      2  C   UNL     1       6.289   5.363  18.746  0.00  0.00    +0.000 C 
ATOM      3  C   UNL     1       7.580   4.571  18.379  0.00  0.00    +0.000 C 
ATOM      4  O   UNL     1       8.029   4.490  17.025  0.00  0.00    +0.000 OA
ATOM      5  C   UNL     1       6.914   4.502  16.142  0.00  0.00    +0.000 C 
ATOM      6  C   UNL     1       7.265   4.574  14.665  0.00  0.00    +0.000 C 
ATOM      7  N   UNL     1       6.119   5.246  14.006  0.00  0.00    +0.000 NA
ATOM      8  C   UNL     1       5.332   5.901  15.078  0.00  0.00    +0.000 C 
ATOM      9  C   UNL     1       6.144   5.795  16.360  0.00  0.00    +0.000 C 
ATOM     10  N   UNL     1       5.487   5.724  17.661  0.00  0.00    +0.000 N 
ENDROOT
BRANCH   7  11
ATOM     11  C   UNL     1       5.306   4.303  13.224  0.00  0.00    +0.000 C 
BRANCH  11  12
ATOM     12  C   UNL     1       6.121   3.125  12.678  0.00  0.00    +0.000 C 
ATOM     13  C   UNL     1       5.358   2.194  11.758  0.00  0.00    +0.000 C 
ATOM     14  C   UNL     1       6.475   1.520  10.984  0.00  0.00    +0.000 C 
ATOM     15  O   UNL     1       7.592   2.423  10.972  0.00  0.00    +0.000 OA
ATOM     16  C   UNL     1       7.265   3.561  11.782  0.00  0.00    +0.000 C 
ENDBRANCH  11  12
ENDBRANCH   7  11
BRANCH  10  17
ATOM     17  C   UNL     1       4.097   6.102  17.871  0.00  0.00    +0.000 C 
BRANCH  17  18
ATOM     18  C   UNL     1       3.182   4.976  18.266  0.00  0.00    +0.000 A 
ATOM     19  C   UNL     1       2.243   5.141  19.299  0.00  0.00    +0.000 A 
ATOM     20  C   UNL     1       1.348   4.117  19.618  0.00  0.00    +0.000 A 
ATOM     21  C   UNL     1       1.377   2.920  18.903  0.00  0.00    +0.000 A 
ATOM     22  C   UNL     1       2.297   2.759  17.875  0.00  0.00    +0.000 A 
ATOM     23  F   UNL     1       2.312   1.618  17.176  0.00  0.00    +0.000 F 
ATOM     24  C   UNL     1       3.193   3.772  17.551  0.00  0.00    +0.000 A 
ENDBRANCH  17  18
ENDBRANCH  10  17
TORSDOF 4
ENDMDL
MODEL 9
REMARK VINA RESULT:      -6.9      2.890      6.667
REMARK  Name = 
REMARK  4 active torsions:
REMARK  status: ('A' for Active; 'I' for Inactive)
REMARK    1  A    between atoms: N_7  and  C_8
REMARK    2  A    between atoms: C_8  and  C_9
REMARK    3  A    between atoms: N_16  and  C_17
REMARK    4  A    between atoms: C_17  and  C_18
REMARK                            x       y       z     vdW  Elec       q    Type
REMARK                         _______ _______ _______ _____ _____    ______ ____
ROOT
ATOM      1  O   UNL     1       5.015   2.424  19.837  0.00  0.00    +0.000 OA
ATOM      2  C   UNL     1       4.068   3.192  19.999  0.00  0.00    +0.000 C 
ATOM      3  C   UNL     1       2.808   2.766  20.810  0.00  0.00    +0.000 C 
ATOM      4  O   UNL     1       1.659   3.613  20.875  0.00  0.00    +0.000 OA
ATOM      5  C   UNL     1       2.058   4.978  20.824  0.00  0.00    +0.000 C 
ATOM      6  C   UNL     1       0.917   5.978  20.733  0.00  0.00    +0.000 C 
ATOM      7  N   UNL     1       1.467   7.159  20.024  0.00  0.00    +0.000 NA
ATOM      8  C   UNL     1       2.724   6.722  19.373  0.00  0.00    +0.000 C 
ATOM      9  C   UNL     1       2.805   5.210  19.520  0.00  0.00    +0.000 C 
ATOM     10  N   UNL     1       4.093   4.530  19.602  0.00  0.00    +0.000 N 
ENDROOT
BRANCH   7  11
ATOM     11  C   UNL     1       1.683   8.293  20.936  0.00  0.00    +0.000 C 
BRANCH  11  12
ATOM     12  C   UNL     1       1.059   9.595  20.424  0.00  0.00    +0.000 C 
ATOM     13  C   UNL     1       0.988   9.718  18.915  0.00  0.00    +0.000 C 
ATOM     14  C   UNL     1      -0.105  10.752  18.728  0.00  0.00    +0.000 C 
ATOM     15  O   UNL     1      -0.964  10.681  19.877  0.00  0.00    +0.000 OA
ATOM     16  C   UNL     1      -0.402   9.742  20.805  0.00  0.00    +0.000 C 
ENDBRANCH  11  12
ENDBRANCH   7  11
BRANCH  10  17
ATOM     17  C   UNL     1       5.346   5.152  19.199  0.00  0.00    +0.000 C 
BRANCH  17  18
ATOM     18  C   UNL     1       5.592   5.192  17.716  0.00  0.00    +0.000 A 
ATOM     19  C   UNL     1       6.272   4.145  17.071  0.00  0.00    +0.000 A 
ATOM     20  C   UNL     1       6.439   4.152  15.684  0.00  0.00    +0.000 A 
ATOM     21  C   UNL     1       5.924   5.203  14.927  0.00  0.00    +0.000 A 
ATOM     22  C   UNL     1       5.243   6.234  15.562  0.00  0.00    +0.000 A 
ATOM     23  F   UNL     1       4.731   7.233  14.832  0.00  0.00    +0.000 F 
ATOM     24  C   UNL     1       5.072   6.237  16.941  0.00  0.00    +0.000 A 
ENDBRANCH  17  18
ENDBRANCH  10  17
TORSDOF 4
ENDMDL
