MODEL 1
REMARK VINA RESULT:      -8.0      0.000      0.000
REMARK  Name = 
REMARK  11 active torsions:
REMARK  status: ('A' for Active; 'I' for Inactive)
REMARK    1  A    between atoms: C_1  and  C_2
REMARK    2  A    between atoms: C_2  and  C_3
REMARK    3  A    between atoms: C_3  and  C_4
REMARK    4  A    between atoms: C_3  and  N_16
REMARK    5  A    between atoms: N_6  and  C_7
REMARK    6  A    between atoms: C_7  and  C_8
REMARK    7  A    between atoms: C_8  and  N_9
REMARK    8  A    between atoms: N_12  and  C_13
REMARK    9  A    between atoms: C_17  and  C_18
REMARK   10  A    between atoms: N_22  and  C_23
REMARK   11  A    between atoms: C_32  and  C_33
REMARK                            x       y       z     vdW  Elec       q    Type
REMARK                         _______ _______ _______ _____ _____    ______ ____
ROOT
ATOM      1  N   UNL     1       3.320   5.188  18.993  0.00  0.00    +0.000 N 
ATOM      2  C   UNL     1       2.559   5.433  20.152  0.00  0.00    +0.000 A 
ATOM      3  C   UNL     1       2.374   4.490  21.292  0.00  0.00    +0.000 C 
ATOM      4  C   UNL     1       2.056   6.720  20.038  0.00  0.00    +0.000 A 
ATOM      5  C   UNL     1       1.284   7.526  20.945  0.00  0.00    +0.000 A 
ATOM      6  N   UNL     1       0.918   8.732  20.618  0.00  0.00    +0.000 NA
ATOM      7  N   UNL     1       1.244   9.249  19.340  0.00  0.00    +0.000 N 
ATOM      8  C   UNL     1       2.037   8.566  18.384  0.00  0.00    +0.000 A 
ATOM      9  O   UNL     1       2.399   9.022  17.306  0.00  0.00    +0.000 OA
ATOM     10  C   UNL     1       2.438   7.237  18.803  0.00  0.00    +0.000 A 
ATOM     11  C   UNL     1       3.242   6.307  18.170  0.00  0.00    +0.000 A 
ATOM     12  C   UNL     1       3.948   6.479  16.863  0.00  0.00    +0.000 C 
ENDROOT
BRANCH   7  13
ATOM     13  C   UNL     1       0.756  10.573  19.083  0.00  0.00    +0.000 A 
ATOM     14  C   UNL     1      -0.543  10.788  18.593  0.00  0.00    +0.000 A 
ATOM     15  C   UNL     1      -0.997  12.064  18.249  0.00  0.00    +0.000 A 
ATOM     16  C   UNL     1      -0.155  13.158  18.403  0.00  0.00    +0.000 A 
ATOM     17  C   UNL     1       1.123  12.977  18.926  0.00  0.00    +0.000 A 
ATOM     18  C   UNL     1       1.571  11.695  19.280  0.00  0.00    +0.000 A 
ENDBRANCH   7  13
BRANCH   1  19
ATOM     19  C   UNL     1       4.123   3.963  18.765  0.00  0.00    +0.000 C 
BRANCH  19  20
ATOM     20  C   UNL     1       5.564   4.347  18.419  0.00  0.00    +0.000 C 
ATOM     21  O   UNL     1       6.318   4.904  19.212  0.00  0.00    +0.000 OA
ATOM     22  N   UNL     1       5.951   4.037  17.124  0.00  0.00    +0.000 N 
ATOM     23  H   UNL     1       5.333   3.519  16.515  0.00  0.00    +0.000 HD
BRANCH  22  24
ATOM     24  C   UNL     1       7.311   4.300  16.689  0.00  0.00    +0.000 C 
BRANCH  24  25
ATOM     25  C   UNL     1       7.412   5.476  15.698  0.00  0.00    +0.000 C 
BRANCH  25  26
ATOM     26  N   UNL     1       6.864   5.188  14.365  0.00  0.00    +0.000 NA
ATOM     27  C   UNL     1       6.190   3.873  14.334  0.00  0.00    +0.000 C 
ATOM     28  C   UNL     1       5.607   3.538  12.938  0.00  0.00    +0.000 C 
ATOM     29  N   UNL     1       6.560   3.646  11.814  0.00  0.00    +0.000 NA
ATOM     30  C   UNL     1       7.491   2.522  11.775  0.00  0.00    +0.000 C 
ATOM     31  C   UNL     1       7.271   4.935  11.908  0.00  0.00    +0.000 C 
ATOM     32  C   UNL     1       7.879   5.241  13.295  0.00  0.00    +0.000 C 
ENDBRANCH  25  26
ENDBRANCH  24  25
ENDBRANCH  22  24
ENDBRANCH  19  20
BRANCH  19  34
ATOM     33  C   UNL     1       2.128   2.530  17.976  0.00  0.00    +0.000 C 
ATOM     34  C   UNL     1       3.564   2.968  17.727  0.00  0.00    +0.000 C 
ENDBRANCH  19  34
ENDBRANCH   1  19
TORSDOF 7
ENDMDL
MODEL 2
REMARK VINA RESULT:      -7.7      3.526     10.494
REMARK  Name = 
REMARK  11 active torsions:
REMARK  status: ('A' for Active; 'I' for Inactive)
REMARK    1  A    between atoms: C_1  and  C_2
REMARK    2  A    between atoms: C_2  and  C_3
REMARK    3  A    between atoms: C_3  and  C_4
REMARK    4  A    between atoms: C_3  and  N_16
REMARK    5  A    between atoms: N_6  and  C_7
REMARK    6  A    between atoms: C_7  and  C_8
REMARK    7  A    between atoms: C_8  and  N_9
REMARK    8  A    between atoms: N_12  and  C_13
REMARK    9  A    between atoms: C_17  and  C_18
REMARK   10  A    between atoms: N_22  and  C_23
REMARK   11  A    between atoms: C_32  and  C_33
REMARK                            x       y       z     vdW  Elec       q    Type
REMARK                         _______ _______ _______ _____ _____    ______ ____
ROOT
ATOM      1  N   UNL     1       0.849  10.726  20.200  0.00  0.00    +0.000 N 
ATOM      2  C   UNL     1       0.609   9.749  21.186  0.00  0.00    +0.000 A 
ATOM      3  C   UNL     1      -0.092   9.970  22.483  0.00  0.00    +0.000 C 
ATOM      4  C   UNL     1       1.116   8.553  20.699  0.00  0.00    +0.000 A 
ATOM      5  C   UNL     1       1.085   7.218  21.232  0.00  0.00    +0.000 A 
ATOM      6  N   UNL     1       1.636   6.231  20.586  0.00  0.00    +0.000 NA
ATOM      7  N   UNL     1       2.310   6.473  19.364  0.00  0.00    +0.000 N 
ATOM      8  C   UNL     1       2.365   7.735  18.721  0.00  0.00    +0.000 A 
ATOM      9  O   UNL     1       2.871   7.953  17.627  0.00  0.00    +0.000 OA
ATOM     10  C   UNL     1       1.719   8.797  19.468  0.00  0.00    +0.000 A 
ATOM     11  C   UNL     1       1.530  10.128  19.144  0.00  0.00    +0.000 A 
ATOM     12  C   UNL     1       1.933  10.803  17.873  0.00  0.00    +0.000 C 
ENDROOT
BRANCH   7  13
ATOM     13  C   UNL     1       2.906   5.313  18.765  0.00  0.00    +0.000 A 
ATOM     14  C   UNL     1       4.253   4.986  18.995  0.00  0.00    +0.000 A 
ATOM     15  C   UNL     1       4.870   3.915  18.343  0.00  0.00    +0.000 A 
ATOM     16  C   UNL     1       4.140   3.140  17.452  0.00  0.00    +0.000 A 
ATOM     17  C   UNL     1       2.792   3.419  17.237  0.00  0.00    +0.000 A 
ATOM     18  C   UNL     1       2.174   4.488  17.902  0.00  0.00    +0.000 A 
ENDBRANCH   7  13
BRANCH   1  19
ATOM     19  C   UNL     1       0.366  12.124  20.276  0.00  0.00    +0.000 C 
BRANCH  19  20
ATOM     20  C   UNL     1      -0.549  12.421  19.085  0.00  0.00    +0.000 C 
ATOM     21  O   UNL     1      -0.418  13.409  18.368  0.00  0.00    +0.000 OA
ATOM     22  N   UNL     1      -1.562  11.494  18.887  0.00  0.00    +0.000 N 
ATOM     23  H   UNL     1      -1.606  10.656  19.450  0.00  0.00    +0.000 HD
BRANCH  22  24
ATOM     24  C   UNL     1      -2.464  11.632  17.758  0.00  0.00    +0.000 C 
BRANCH  24  25
ATOM     25  C   UNL     1      -3.808  10.909  17.966  0.00  0.00    +0.000 C 
BRANCH  25  26
ATOM     26  N   UNL     1      -4.933  11.806  18.270  0.00  0.00    +0.000 NA
ATOM     27  C   UNL     1      -4.751  12.470  19.577  0.00  0.00    +0.000 C 
ATOM     28  C   UNL     1      -5.926  13.417  19.930  0.00  0.00    +0.000 C 
ATOM     29  N   UNL     1      -7.271  12.810  19.852  0.00  0.00    +0.000 NA
ATOM     30  C   UNL     1      -7.542  11.933  20.988  0.00  0.00    +0.000 C 
ATOM     31  C   UNL     1      -7.402  12.092  18.571  0.00  0.00    +0.000 C 
ATOM     32  C   UNL     1      -6.241  11.124  18.247  0.00  0.00    +0.000 C 
ENDBRANCH  25  26
ENDBRANCH  24  25
ENDBRANCH  22  24
ENDBRANCH  19  20
BRANCH  19  34
ATOM     33  C   UNL     1       1.182  14.254  21.481  0.00  0.00    +0.000 C 
ATOM     34  C   UNL     1       1.452  13.212  20.406  0.00  0.00    +0.000 C 
ENDBRANCH  19  34
ENDBRANCH   1  19
TORSDOF 7
ENDMDL
MODEL 3
REMARK VINA RESULT:      -7.5      3.643      4.964
REMARK  Name = 
REMARK  11 active torsions:
REMARK  status: ('A' for Active; 'I' for Inactive)
REMARK    1  A    between atoms: C_1  and  C_2
REMARK    2  A    between atoms: C_2  and  C_3
REMARK    3  A    between atoms: C_3  and  C_4
REMARK    4  A    between atoms: C_3  and  N_16
REMARK    5  A    between atoms: N_6  and  C_7
REMARK    6  A    between atoms: C_7  and  C_8
REMARK    7  A    between atoms: C_8  and  N_9
REMARK    8  A    between atoms: N_12  and  C_13
REMARK    9  A    between atoms: C_17  and  C_18
REMARK   10  A    between atoms: N_22  and  C_23
REMARK   11  A    between atoms: C_32  and  C_33
REMARK                            x       y       z     vdW  Elec       q    Type
REMARK                         _______ _______ _______ _____ _____    ______ ____
ROOT
ATOM      1  N   UNL     1       4.322   5.725  18.208  0.00  0.00    +0.000 N 
ATOM      2  C   UNL     1       3.588   5.575  19.401  0.00  0.00    +0.000 A 
ATOM      3  C   UNL     1       3.728   4.458  20.378  0.00  0.00    +0.000 C 
ATOM      4  C   UNL     1       2.751   6.676  19.499  0.00  0.00    +0.000 A 
ATOM      5  C   UNL     1       1.842   7.093  20.533  0.00  0.00    +0.000 A 
ATOM      6  N   UNL     1       1.147   8.186  20.406  0.00  0.00    +0.000 NA
ATOM      7  N   UNL     1       1.250   8.958  19.223  0.00  0.00    +0.000 N 
ATOM      8  C   UNL     1       2.143   8.671  18.160  0.00  0.00    +0.000 A 
ATOM      9  O   UNL     1       2.310   9.365  17.165  0.00  0.00    +0.000 OA
ATOM     10  C   UNL     1       2.911   7.456  18.358  0.00  0.00    +0.000 A 
ATOM     11  C   UNL     1       3.900   6.889  17.575  0.00  0.00    +0.000 A 
ATOM     12  C   UNL     1       4.459   7.442  16.304  0.00  0.00    +0.000 C 
ENDROOT
BRANCH   7  13
ATOM     13  C   UNL     1       0.409  10.121  19.186  0.00  0.00    +0.000 A 
ATOM     14  C   UNL     1       0.642  11.215  20.035  0.00  0.00    +0.000 A 
ATOM     15  C   UNL     1      -0.225  12.310  20.075  0.00  0.00    +0.000 A 
ATOM     16  C   UNL     1      -1.341  12.335  19.251  0.00  0.00    +0.000 A 
ATOM     17  C   UNL     1      -1.572  11.280  18.370  0.00  0.00    +0.000 A 
ATOM     18  C   UNL     1      -0.694  10.187  18.325  0.00  0.00    +0.000 A 
ENDBRANCH   7  13
BRANCH   1  19
ATOM     19  C   UNL     1       5.411   4.817  17.779  0.00  0.00    +0.000 C 
BRANCH  19  20
ATOM     20  C   UNL     1       6.673   5.629  17.479  0.00  0.00    +0.000 C 
ATOM     21  O   UNL     1       7.357   5.458  16.473  0.00  0.00    +0.000 OA
ATOM     22  N   UNL     1       7.004   6.566  18.447  0.00  0.00    +0.000 N 
ATOM     23  H   UNL     1       6.388   6.732  19.230  0.00  0.00    +0.000 HD
BRANCH  22  24
ATOM     24  C   UNL     1       8.149   7.438  18.253  0.00  0.00    +0.000 C 
BRANCH  24  25
ATOM     25  C   UNL     1       7.757   8.857  17.796  0.00  0.00    +0.000 C 
BRANCH  25  26
ATOM     26  N   UNL     1       8.788   9.875  18.043  0.00  0.00    +0.000 NA
ATOM     27  C   UNL     1       9.183   9.904  19.467  0.00  0.00    +0.000 C 
ATOM     28  C   UNL     1      10.265  10.974  19.761  0.00  0.00    +0.000 C 
ATOM     29  N   UNL     1       9.945  12.339  19.295  0.00  0.00    +0.000 NA
ATOM     30  C   UNL     1       8.962  12.994  20.153  0.00  0.00    +0.000 C 
ATOM     31  C   UNL     1       9.485  12.275  17.895  0.00  0.00    +0.000 C 
ATOM     32  C   UNL     1       8.380  11.229  17.623  0.00  0.00    +0.000 C 
ENDBRANCH  25  26
ENDBRANCH  24  25
ENDBRANCH  22  24
ENDBRANCH  19  20
BRANCH  19  34
ATOM     33  C   UNL     1       3.693   3.259  16.650  0.00  0.00    +0.000 C 
ATOM     34  C   UNL     1       5.085   3.872  16.604  0.00  0.00    +0.000 C 
ENDBRANCH  19  34
ENDBRANCH   1  19
TORSDOF 7
ENDMDL
MODEL 4
REMARK VINA RESULT:      -7.5      3.499     10.500
REMARK  Name = 
REMARK  11 active torsions:
REMARK  status: ('A' for Active; 'I' for Inactive)
REMARK    1  A    between atoms: C_1  and  C_2
REMARK    2  A    between atoms: C_2  and  C_3
REMARK    3  A    between atoms: C_3  and  C_4
REMARK    4  A    between atoms: C_3  and  N_16
REMARK    5  A    between atoms: N_6  and  C_7
REMARK    6  A    between atoms: C_7  and  C_8
REMARK    7  A    between atoms: C_8  and  N_9
REMARK    8  A    between atoms: N_12  and  C_13
REMARK    9  A    between atoms: C_17  and  C_18
REMARK   10  A    between atoms: N_22  and  C_23
REMARK   11  A    between atoms: C_32  and  C_33
REMARK                            x       y       z     vdW  Elec       q    Type
REMARK                         _______ _______ _______ _____ _____    ______ ____
ROOT
ATOM      1  N   UNL     1       0.333  10.158  20.298  0.00  0.00    +0.000 N 
ATOM      2  C   UNL     1       0.263   9.061  21.178  0.00  0.00    +0.000 A 
ATOM      3  C   UNL     1      -0.543   8.994  22.430  0.00  0.00    +0.000 C 
ATOM      4  C   UNL     1       1.053   8.058  20.634  0.00  0.00    +0.000 A 
ATOM      5  C   UNL     1       1.293   6.703  21.051  0.00  0.00    +0.000 A 
ATOM      6  N   UNL     1       2.087   5.928  20.370  0.00  0.00    +0.000 NA
ATOM      7  N   UNL     1       2.758   6.431  19.228  0.00  0.00    +0.000 N 
ATOM      8  C   UNL     1       2.565   7.731  18.699  0.00  0.00    +0.000 A 
ATOM      9  O   UNL     1       3.071   8.162  17.669  0.00  0.00    +0.000 OA
ATOM     10  C   UNL     1       1.655   8.548  19.479  0.00  0.00    +0.000 A 
ATOM     11  C   UNL     1       1.191   9.830  19.253  0.00  0.00    +0.000 A 
ATOM     12  C   UNL     1       1.504  10.699  18.078  0.00  0.00    +0.000 C 
ENDROOT
BRANCH   7  13
ATOM     13  C   UNL     1       3.634   5.494  18.583  0.00  0.00    +0.000 A 
ATOM     14  C   UNL     1       5.002   5.443  18.894  0.00  0.00    +0.000 A 
ATOM     15  C   UNL     1       5.881   4.603  18.206  0.00  0.00    +0.000 A 
ATOM     16  C   UNL     1       5.399   3.783  17.194  0.00  0.00    +0.000 A 
ATOM     17  C   UNL     1       4.038   3.785  16.894  0.00  0.00    +0.000 A 
ATOM     18  C   UNL     1       3.158   4.623  17.594  0.00  0.00    +0.000 A 
ENDBRANCH   7  13
BRANCH   1  19
ATOM     19  C   UNL     1      -0.455  11.403  20.453  0.00  0.00    +0.000 C 
BRANCH  19  20
ATOM     20  C   UNL     1      -1.218  11.695  19.158  0.00  0.00    +0.000 C 
ATOM     21  O   UNL     1      -1.068  12.728  18.510  0.00  0.00    +0.000 OA
ATOM     22  N   UNL     1      -2.117  10.710  18.779  0.00  0.00    +0.000 N 
ATOM     23  H   UNL     1      -2.171   9.842  19.293  0.00  0.00    +0.000 HD
BRANCH  22  24
ATOM     24  C   UNL     1      -2.862  10.843  17.540  0.00  0.00    +0.000 C 
BRANCH  24  25
ATOM     25  C   UNL     1      -4.085  11.771  17.667  0.00  0.00    +0.000 C 
BRANCH  25  26
ATOM     26  N   UNL     1      -4.883  11.553  18.882  0.00  0.00    +0.000 NA
ATOM     27  C   UNL     1      -6.282  11.209  18.550  0.00  0.00    +0.000 C 
ATOM     28  C   UNL     1      -7.152  10.980  19.812  0.00  0.00    +0.000 C 
ATOM     29  N   UNL     1      -7.120  12.072  20.807  0.00  0.00    +0.000 NA
ATOM     30  C   UNL     1      -7.911  13.222  20.383  0.00  0.00    +0.000 C 
ATOM     31  C   UNL     1      -5.717  12.446  21.067  0.00  0.00    +0.000 C 
ATOM     32  C   UNL     1      -4.870  12.707  19.801  0.00  0.00    +0.000 C 
ENDBRANCH  25  26
ENDBRANCH  24  25
ENDBRANCH  22  24
ENDBRANCH  19  20
BRANCH  19  34
ATOM     33  C   UNL     1      -0.324  13.427  22.047  0.00  0.00    +0.000 C 
ATOM     34  C   UNL     1       0.328  12.651  20.912  0.00  0.00    +0.000 C 
ENDBRANCH  19  34
ENDBRANCH   1  19
TORSDOF 7
ENDMDL
MODEL 5
REMARK VINA RESULT:      -7.4      3.655      9.389
REMARK  Name = 
REMARK  11 active torsions:
REMARK  status: ('A' for Active; 'I' for Inactive)
REMARK    1  A    between atoms: C_1  and  C_2
REMARK    2  A    between atoms: C_2  and  C_3
REMARK    3  A    between atoms: C_3  and  C_4
REMARK    4  A    between atoms: C_3  and  N_16
REMARK    5  A    between atoms: N_6  and  C_7
REMARK    6  A    between atoms: C_7  and  C_8
REMARK    7  A    between atoms: C_8  and  N_9
REMARK    8  A    between atoms: N_12  and  C_13
REMARK    9  A    between atoms: C_17  and  C_18
REMARK   10  A    between atoms: N_22  and  C_23
REMARK   11  A    between atoms: C_32  and  C_33
REMARK                            x       y       z     vdW  Elec       q    Type
REMARK                         _______ _______ _______ _____ _____    ______ ____
ROOT
ATOM      1  N   UNL     1      -0.415  11.352  20.916  0.00  0.00    +0.000 N 
ATOM      2  C   UNL     1      -0.174  10.252  21.762  0.00  0.00    +0.000 A 
ATOM      3  C   UNL     1      -0.651  10.110  23.168  0.00  0.00    +0.000 C 
ATOM      4  C   UNL     1       0.552   9.329  21.026  0.00  0.00    +0.000 A 
ATOM      5  C   UNL     1       1.008   8.002  21.343  0.00  0.00    +0.000 A 
ATOM      6  N   UNL     1       1.685   7.306  20.477  0.00  0.00    +0.000 NA
ATOM      7  N   UNL     1       2.018   7.869  19.220  0.00  0.00    +0.000 N 
ATOM      8  C   UNL     1       1.586   9.146  18.781  0.00  0.00    +0.000 A 
ATOM      9  O   UNL     1       1.792   9.622  17.671  0.00  0.00    +0.000 OA
ATOM     10  C   UNL     1       0.816   9.873  19.772  0.00  0.00    +0.000 A 
ATOM     11  C   UNL     1       0.196  11.106  19.691  0.00  0.00    +0.000 A 
ATOM     12  C   UNL     1       0.141  12.000  18.494  0.00  0.00    +0.000 C 
ENDROOT
BRANCH   7  13
ATOM     13  C   UNL     1       2.797   7.019  18.366  0.00  0.00    +0.000 A 
ATOM     14  C   UNL     1       2.508   5.651  18.241  0.00  0.00    +0.000 A 
ATOM     15  C   UNL     1       3.316   4.795  17.488  0.00  0.00    +0.000 A 
ATOM     16  C   UNL     1       4.430   5.301  16.831  0.00  0.00    +0.000 A 
ATOM     17  C   UNL     1       4.715   6.663  16.906  0.00  0.00    +0.000 A 
ATOM     18  C   UNL     1       3.895   7.520  17.654  0.00  0.00    +0.000 A 
ENDBRANCH   7  13
BRANCH   1  19
ATOM     19  C   UNL     1      -1.255  12.516  21.280  0.00  0.00    +0.000 C 
BRANCH  19  20
ATOM     20  C   UNL     1      -0.434  13.506  22.111  0.00  0.00    +0.000 C 
ATOM     21  O   UNL     1      -0.339  13.438  23.334  0.00  0.00    +0.000 OA
ATOM     22  N   UNL     1       0.182  14.508  21.377  0.00  0.00    +0.000 N 
ATOM     23  H   UNL     1       0.143  14.502  20.368  0.00  0.00    +0.000 HD
BRANCH  22  24
ATOM     24  C   UNL     1       1.035  15.477  22.043  0.00  0.00    +0.000 C 
BRANCH  24  25
ATOM     25  C   UNL     1       2.517  15.357  21.639  0.00  0.00    +0.000 C 
BRANCH  25  26
ATOM     26  N   UNL     1       2.753  15.430  20.190  0.00  0.00    +0.000 NA
ATOM     27  C   UNL     1       3.143  14.114  19.642  0.00  0.00    +0.000 C 
ATOM     28  C   UNL     1       3.408  14.161  18.116  0.00  0.00    +0.000 C 
ATOM     29  N   UNL     1       4.362  15.198  17.673  0.00  0.00    +0.000 NA
ATOM     30  C   UNL     1       5.744  14.835  17.973  0.00  0.00    +0.000 C 
ATOM     31  C   UNL     1       3.995  16.486  18.289  0.00  0.00    +0.000 C 
ATOM     32  C   UNL     1       3.769  16.433  19.817  0.00  0.00    +0.000 C 
ENDBRANCH  25  26
ENDBRANCH  24  25
ENDBRANCH  22  24
ENDBRANCH  19  20
BRANCH  19  34
ATOM     33  C   UNL     1      -3.525  13.389  22.140  0.00  0.00    +0.000 C 
ATOM     34  C   UNL     1      -2.591  12.198  21.984  0.00  0.00    +0.000 C 
ENDBRANCH  19  34
ENDBRANCH   1  19
TORSDOF 7
ENDMDL
MODEL 6
REMARK VINA RESULT:      -7.4      3.684     11.054
REMARK  Name = 
REMARK  11 active torsions:
REMARK  status: ('A' for Active; 'I' for Inactive)
REMARK    1  A    between atoms: C_1  and  C_2
REMARK    2  A    between atoms: C_2  and  C_3
REMARK    3  A    between atoms: C_3  and  C_4
REMARK    4  A    between atoms: C_3  and  N_16
REMARK    5  A    between atoms: N_6  and  C_7
REMARK    6  A    between atoms: C_7  and  C_8
REMARK    7  A    between atoms: C_8  and  N_9
REMARK    8  A    between atoms: N_12  and  C_13
REMARK    9  A    between atoms: C_17  and  C_18
REMARK   10  A    between atoms: N_22  and  C_23
REMARK   11  A    between atoms: C_32  and  C_33
REMARK                            x       y       z     vdW  Elec       q    Type
REMARK                         _______ _______ _______ _____ _____    ______ ____
ROOT
ATOM      1  N   UNL     1       0.736  10.781  20.373  0.00  0.00    +0.000 N 
ATOM      2  C   UNL     1       0.533   9.799  21.361  0.00  0.00    +0.000 A 
ATOM      3  C   UNL     1      -0.141  10.006  22.675  0.00  0.00    +0.000 C 
ATOM      4  C   UNL     1       1.046   8.612  20.860  0.00  0.00    +0.000 A 
ATOM      5  C   UNL     1       1.047   7.275  21.390  0.00  0.00    +0.000 A 
ATOM      6  N   UNL     1       1.597   6.297  20.729  0.00  0.00    +0.000 NA
ATOM      7  N   UNL     1       2.239   6.552  19.492  0.00  0.00    +0.000 N 
ATOM      8  C   UNL     1       2.261   7.816  18.852  0.00  0.00    +0.000 A 
ATOM      9  O   UNL     1       2.739   8.045  17.747  0.00  0.00    +0.000 OA
ATOM     10  C   UNL     1       1.617   8.867  19.616  0.00  0.00    +0.000 A 
ATOM     11  C   UNL     1       1.402  10.195  19.301  0.00  0.00    +0.000 A 
ATOM     12  C   UNL     1       1.766  10.880  18.022  0.00  0.00    +0.000 C 
ENDROOT
BRANCH   7  13
ATOM     13  C   UNL     1       2.839   5.402  18.876  0.00  0.00    +0.000 A 
ATOM     14  C   UNL     1       4.185   5.074  19.103  0.00  0.00    +0.000 A 
ATOM     15  C   UNL     1       4.806   4.015  18.436  0.00  0.00    +0.000 A 
ATOM     16  C   UNL     1       4.078   3.251  17.532  0.00  0.00    +0.000 A 
ATOM     17  C   UNL     1       2.730   3.531  17.320  0.00  0.00    +0.000 A 
ATOM     18  C   UNL     1       2.109   4.589  18.000  0.00  0.00    +0.000 A 
ENDBRANCH   7  13
BRANCH   1  19
ATOM     19  C   UNL     1       0.235  12.172  20.464  0.00  0.00    +0.000 C 
BRANCH  19  20
ATOM     20  C   UNL     1      -0.928  12.367  19.488  0.00  0.00    +0.000 C 
ATOM     21  O   UNL     1      -0.825  12.999  18.439  0.00  0.00    +0.000 OA
ATOM     22  N   UNL     1      -2.125  11.794  19.890  0.00  0.00    +0.000 N 
ATOM     23  H   UNL     1      -2.165  11.224  20.724  0.00  0.00    +0.000 HD
BRANCH  22  24
ATOM     24  C   UNL     1      -3.290  11.861  19.026  0.00  0.00    +0.000 C 
BRANCH  24  25
ATOM     25  C   UNL     1      -4.458  12.650  19.647  0.00  0.00    +0.000 C 
BRANCH  25  26
ATOM     26  N   UNL     1      -4.239  13.049  21.045  0.00  0.00    +0.000 NA
ATOM     27  C   UNL     1      -5.354  12.608  21.910  0.00  0.00    +0.000 C 
ATOM     28  C   UNL     1      -5.155  13.021  23.390  0.00  0.00    +0.000 C 
ATOM     29  N   UNL     1      -4.877  14.455  23.613  0.00  0.00    +0.000 NA
ATOM     30  C   UNL     1      -6.077  15.274  23.471  0.00  0.00    +0.000 C 
ATOM     31  C   UNL     1      -3.813  14.888  22.689  0.00  0.00    +0.000 C 
ATOM     32  C   UNL     1      -4.040  14.502  21.210  0.00  0.00    +0.000 C 
ENDBRANCH  25  26
ENDBRANCH  24  25
ENDBRANCH  22  24
ENDBRANCH  19  20
BRANCH  19  34
ATOM     33  C   UNL     1       1.100  14.491  21.193  0.00  0.00    +0.000 C 
ATOM     34  C   UNL     1       1.286  13.287  20.281  0.00  0.00    +0.000 C 
ENDBRANCH  19  34
ENDBRANCH   1  19
TORSDOF 7
ENDMDL
MODEL 7
REMARK VINA RESULT:      -7.4      4.636      8.077
REMARK  Name = 
REMARK  11 active torsions:
REMARK  status: ('A' for Active; 'I' for Inactive)
REMARK    1  A    between atoms: C_1  and  C_2
REMARK    2  A    between atoms: C_2  and  C_3
REMARK    3  A    between atoms: C_3  and  C_4
REMARK    4  A    between atoms: C_3  and  N_16
REMARK    5  A    between atoms: N_6  and  C_7
REMARK    6  A    between atoms: C_7  and  C_8
REMARK    7  A    between atoms: C_8  and  N_9
REMARK    8  A    between atoms: N_12  and  C_13
REMARK    9  A    between atoms: C_17  and  C_18
REMARK   10  A    between atoms: N_22  and  C_23
REMARK   11  A    between atoms: C_32  and  C_33
REMARK                            x       y       z     vdW  Elec       q    Type
REMARK                         _______ _______ _______ _____ _____    ______ ____
ROOT
ATOM      1  N   UNL     1      -1.108  11.690  19.366  0.00  0.00    +0.000 N 
ATOM      2  C   UNL     1      -2.301  11.629  18.621  0.00  0.00    +0.000 A 
ATOM      3  C   UNL     1      -2.432  11.142  17.218  0.00  0.00    +0.000 C 
ATOM      4  C   UNL     1      -3.319  12.070  19.454  0.00  0.00    +0.000 A 
ATOM      5  C   UNL     1      -4.742  12.149  19.262  0.00  0.00    +0.000 A 
ATOM      6  N   UNL     1      -5.517  12.604  20.203  0.00  0.00    +0.000 NA
ATOM      7  N   UNL     1      -4.956  13.068  21.419  0.00  0.00    +0.000 N 
ATOM      8  C   UNL     1      -3.577  12.997  21.738  0.00  0.00    +0.000 A 
ATOM      9  O   UNL     1      -3.079  13.316  22.811  0.00  0.00    +0.000 OA
ATOM     10  C   UNL     1      -2.758  12.462  20.666  0.00  0.00    +0.000 A 
ATOM     11  C   UNL     1      -1.402  12.201  20.626  0.00  0.00    +0.000 A 
ATOM     12  C   UNL     1      -0.424  12.382  21.742  0.00  0.00    +0.000 C 
ENDROOT
BRANCH   7  13
ATOM     13  C   UNL     1      -5.907  13.579  22.365  0.00  0.00    +0.000 A 
ATOM     14  C   UNL     1      -6.626  12.719  23.212  0.00  0.00    +0.000 A 
ATOM     15  C   UNL     1      -7.621  13.195  24.069  0.00  0.00    +0.000 A 
ATOM     16  C   UNL     1      -7.908  14.553  24.101  0.00  0.00    +0.000 A 
ATOM     17  C   UNL     1      -7.182  15.432  23.301  0.00  0.00    +0.000 A 
ATOM     18  C   UNL     1      -6.176  14.951  22.450  0.00  0.00    +0.000 A 
ENDBRANCH   7  13
BRANCH   1  19
ATOM     19  C   UNL     1       0.204  11.202  18.881  0.00  0.00    +0.000 C 
BRANCH  19  20
ATOM     20  C   UNL     1       0.512   9.839  19.506  0.00  0.00    +0.000 C 
ATOM     21  O   UNL     1      -0.155   9.353  20.416  0.00  0.00    +0.000 OA
ATOM     22  N   UNL     1       1.624   9.198  18.982  0.00  0.00    +0.000 N 
ATOM     23  H   UNL     1       2.114   9.590  18.190  0.00  0.00    +0.000 HD
BRANCH  22  24
ATOM     24  C   UNL     1       1.989   7.874  19.452  0.00  0.00    +0.000 C 
BRANCH  24  25
ATOM     25  C   UNL     1       2.811   7.073  18.424  0.00  0.00    +0.000 C 
BRANCH  25  26
ATOM     26  N   UNL     1       2.348   5.691  18.228  0.00  0.00    +0.000 NA
ATOM     27  C   UNL     1       1.987   5.059  19.514  0.00  0.00    +0.000 C 
ATOM     28  C   UNL     1       1.502   3.597  19.340  0.00  0.00    +0.000 C 
ATOM     29  N   UNL     1       2.412   2.717  18.580  0.00  0.00    +0.000 NA
ATOM     30  C   UNL     1       3.571   2.314  19.371  0.00  0.00    +0.000 C 
ATOM     31  C   UNL     1       2.816   3.399  17.336  0.00  0.00    +0.000 C 
ATOM     32  C   UNL     1       3.331   4.843  17.527  0.00  0.00    +0.000 C 
ENDBRANCH  25  26
ENDBRANCH  24  25
ENDBRANCH  22  24
ENDBRANCH  19  20
BRANCH  19  34
ATOM     33  C   UNL     1       1.196  13.547  18.466  0.00  0.00    +0.000 C 
ATOM     34  C   UNL     1       1.397  12.163  19.066  0.00  0.00    +0.000 C 
ENDBRANCH  19  34
ENDBRANCH   1  19
TORSDOF 7
ENDMDL
MODEL 8
REMARK VINA RESULT:      -7.3      3.556      9.529
REMARK  Name = 
REMARK  11 active torsions:
REMARK  status: ('A' for Active; 'I' for Inactive)
REMARK    1  A    between atoms: C_1  and  C_2
REMARK    2  A    between atoms: C_2  and  C_3
REMARK    3  A    between atoms: C_3  and  C_4
REMARK    4  A    between atoms: C_3  and  N_16
REMARK    5  A    between atoms: N_6  and  C_7
REMARK    6  A    between atoms: C_7  and  C_8
REMARK    7  A    between atoms: C_8  and  N_9
REMARK    8  A    between atoms: N_12  and  C_13
REMARK    9  A    between atoms: C_17  and  C_18
REMARK   10  A    between atoms: N_22  and  C_23
REMARK   11  A    between atoms: C_32  and  C_33
REMARK                            x       y       z     vdW  Elec       q    Type
REMARK                         _______ _______ _______ _____ _____    ______ ____
ROOT
ATOM      1  N   UNL     1      -0.281  11.164  20.809  0.00  0.00    +0.000 N 
ATOM      2  C   UNL     1       0.034  10.106  21.684  0.00  0.00    +0.000 A 
ATOM      3  C   UNL     1      -0.359  10.011  23.119  0.00  0.00    +0.000 C 
ATOM      4  C   UNL     1       0.741   9.169  20.944  0.00  0.00    +0.000 A 
ATOM      5  C   UNL     1       1.245   7.867  21.288  0.00  0.00    +0.000 A 
ATOM      6  N   UNL     1       1.890   7.151  20.413  0.00  0.00    +0.000 NA
ATOM      7  N   UNL     1       2.138   7.669  19.118  0.00  0.00    +0.000 N 
ATOM      8  C   UNL     1       1.651   8.916  18.653  0.00  0.00    +0.000 A 
ATOM      9  O   UNL     1       1.783   9.351  17.515  0.00  0.00    +0.000 OA
ATOM     10  C   UNL     1       0.921   9.667  19.657  0.00  0.00    +0.000 A 
ATOM     11  C   UNL     1       0.267  10.881  19.562  0.00  0.00    +0.000 A 
ATOM     12  C   UNL     1       0.123  11.724  18.336  0.00  0.00    +0.000 C 
ENDROOT
BRANCH   7  13
ATOM     13  C   UNL     1       2.889   6.802  18.255  0.00  0.00    +0.000 A 
ATOM     14  C   UNL     1       2.557   5.444  18.120  0.00  0.00    +0.000 A 
ATOM     15  C   UNL     1       3.337   4.569  17.359  0.00  0.00    +0.000 A 
ATOM     16  C   UNL     1       4.464   5.047  16.703  0.00  0.00    +0.000 A 
ATOM     17  C   UNL     1       4.791   6.398  16.787  0.00  0.00    +0.000 A 
ATOM     18  C   UNL     1       3.999   7.275  17.544  0.00  0.00    +0.000 A 
ENDBRANCH   7  13
BRANCH   1  19
ATOM     19  C   UNL     1      -1.127  12.323  21.174  0.00  0.00    +0.000 C 
BRANCH  19  20
ATOM     20  C   UNL     1      -0.248  13.560  21.380  0.00  0.00    +0.000 C 
ATOM     21  O   UNL     1       0.669  13.602  22.196  0.00  0.00    +0.000 OA
ATOM     22  N   UNL     1      -0.581  14.647  20.587  0.00  0.00    +0.000 N 
ATOM     23  H   UNL     1      -1.296  14.563  19.877  0.00  0.00    +0.000 HD
BRANCH  22  24
ATOM     24  C   UNL     1       0.212  15.862  20.648  0.00  0.00    +0.000 C 
BRANCH  24  25
ATOM     25  C   UNL     1       0.897  16.205  19.311  0.00  0.00    +0.000 C 
BRANCH  25  26
ATOM     26  N   UNL     1       2.196  15.545  19.114  0.00  0.00    +0.000 NA
ATOM     27  C   UNL     1       3.055  15.686  20.308  0.00  0.00    +0.000 C 
ATOM     28  C   UNL     1       4.437  15.006  20.128  0.00  0.00    +0.000 C 
ATOM     29  N   UNL     1       5.182  15.404  18.916  0.00  0.00    +0.000 NA
ATOM     30  C   UNL     1       5.773  16.732  19.049  0.00  0.00    +0.000 C 
ATOM     31  C   UNL     1       4.284  15.325  17.750  0.00  0.00    +0.000 C 
ATOM     32  C   UNL     1       2.923  16.038  17.929  0.00  0.00    +0.000 C 
ENDBRANCH  25  26
ENDBRANCH  24  25
ENDBRANCH  22  24
ENDBRANCH  19  20
BRANCH  19  34
ATOM     33  C   UNL     1      -3.460  12.719  22.201  0.00  0.00    +0.000 C 
ATOM     34  C   UNL     1      -2.070  12.125  22.378  0.00  0.00    +0.000 C 
ENDBRANCH  19  34
ENDBRANCH   1  19
TORSDOF 7
ENDMDL
MODEL 9
REMARK VINA RESULT:      -7.3      4.583      8.044
REMARK  Name = 
REMARK  11 active torsions:
REMARK  status: ('A' for Active; 'I' for Inactive)
REMARK    1  A    between atoms: C_1  and  C_2
REMARK    2  A    between atoms: C_2  and  C_3
REMARK    3  A    between atoms: C_3  and  C_4
REMARK    4  A    between atoms: C_3  and  N_16
REMARK    5  A    between atoms: N_6  and  C_7
REMARK    6  A    between atoms: C_7  and  C_8
REMARK    7  A    between atoms: C_8  and  N_9
REMARK    8  A    between atoms: N_12  and  C_13
REMARK    9  A    between atoms: C_17  and  C_18
REMARK   10  A    between atoms: N_22  and  C_23
REMARK   11  A    between atoms: C_32  and  C_33
REMARK                            x       y       z     vdW  Elec       q    Type
REMARK                         _______ _______ _______ _____ _____    ______ ____
ROOT
ATOM      1  N   UNL     1      -1.085  11.745  19.305  0.00  0.00    +0.000 N 
ATOM      2  C   UNL     1      -2.257  11.683  18.527  0.00  0.00    +0.000 A 
ATOM      3  C   UNL     1      -2.344  11.227  17.110  0.00  0.00    +0.000 C 
ATOM      4  C   UNL     1      -3.303  12.090  19.342  0.00  0.00    +0.000 A 
ATOM      5  C   UNL     1      -4.721  12.152  19.114  0.00  0.00    +0.000 A 
ATOM      6  N   UNL     1      -5.528  12.575  20.044  0.00  0.00    +0.000 NA
ATOM      7  N   UNL     1      -5.006  13.018  21.285  0.00  0.00    +0.000 N 
ATOM      8  C   UNL     1      -3.635  12.961  21.639  0.00  0.00    +0.000 A 
ATOM      9  O   UNL     1      -3.170  13.262  22.731  0.00  0.00    +0.000 OA
ATOM     10  C   UNL     1      -2.781  12.463  20.578  0.00  0.00    +0.000 A 
ATOM     11  C   UNL     1      -1.419  12.223  20.568  0.00  0.00    +0.000 A 
ATOM     12  C   UNL     1      -0.474  12.392  21.713  0.00  0.00    +0.000 C 
ENDROOT
BRANCH   7  13
ATOM     13  C   UNL     1      -5.989  13.494  22.216  0.00  0.00    +0.000 A 
ATOM     14  C   UNL     1      -6.300  14.860  22.313  0.00  0.00    +0.000 A 
ATOM     15  C   UNL     1      -7.184  15.346  23.280  0.00  0.00    +0.000 A 
ATOM     16  C   UNL     1      -7.787  14.463  24.166  0.00  0.00    +0.000 A 
ATOM     17  C   UNL     1      -7.527  13.098  24.064  0.00  0.00    +0.000 A 
ATOM     18  C   UNL     1      -6.647  12.613  23.085  0.00  0.00    +0.000 A 
ENDBRANCH   7  13
BRANCH   1  19
ATOM     19  C   UNL     1       0.247  11.288  18.844  0.00  0.00    +0.000 C 
BRANCH  19  20
ATOM     20  C   UNL     1       0.530   9.887  19.391  0.00  0.00    +0.000 C 
ATOM     21  O   UNL     1      -0.212   9.314  20.186  0.00  0.00    +0.000 OA
ATOM     22  N   UNL     1       1.709   9.314  18.939  0.00  0.00    +0.000 N 
ATOM     23  H   UNL     1       2.266   9.778  18.235  0.00  0.00    +0.000 HD
BRANCH  22  24
ATOM     24  C   UNL     1       2.064   7.965  19.342  0.00  0.00    +0.000 C 
BRANCH  24  25
ATOM     25  C   UNL     1       2.654   7.126  18.192  0.00  0.00    +0.000 C 
BRANCH  25  26
ATOM     26  N   UNL     1       3.315   5.887  18.628  0.00  0.00    +0.000 NA
ATOM     27  C   UNL     1       3.893   5.155  17.481  0.00  0.00    +0.000 C 
ATOM     28  C   UNL     1       4.590   3.839  17.909  0.00  0.00    +0.000 C 
ATOM     29  N   UNL     1       3.768   2.928  18.730  0.00  0.00    +0.000 NA
ATOM     30  C   UNL     1       2.769   2.223  17.933  0.00  0.00    +0.000 C 
ATOM     31  C   UNL     1       3.145   3.695  19.825  0.00  0.00    +0.000 C 
ATOM     32  C   UNL     1       2.421   4.987  19.381  0.00  0.00    +0.000 C 
ENDBRANCH  25  26
ENDBRANCH  24  25
ENDBRANCH  22  24
ENDBRANCH  19  20
BRANCH  19  34
ATOM     33  C   UNL     1       1.282  13.633  18.564  0.00  0.00    +0.000 C 
ATOM     34  C   UNL     1       1.430  12.233  19.140  0.00  0.00    +0.000 C 
ENDBRANCH  19  34
ENDBRANCH   1  19
TORSDOF 7
ENDMDL
