MODEL 1
REMARK VINA RESULT:      -7.4      0.000      0.000
REMARK  Name = 
REMARK  6 active torsions:
REMARK  status: ('A' for Active; 'I' for Inactive)
REMARK    1  A    between atoms: C_1  and  C_2
REMARK    2  A    between atoms: C_4  and  C_5
REMARK    3  A    between atoms: C_7  and  N_8
REMARK    4  A    between atoms: C_9  and  C_11
REMARK    5  A    between atoms: C_11  and  S_12
REMARK    6  A    between atoms: S_12  and  C_13
REMARK                            x       y       z     vdW  Elec       q    Type
REMARK                         _______ _______ _______ _____ _____    ______ ____
ROOT
ATOM      1  N   UNL     1       5.686   4.483  16.079  0.00  0.00    +0.000 N 
ATOM      2  C   UNL     1       6.478   4.462  17.213  0.00  0.00    +0.000 C 
ATOM      3  O   UNL     1       7.709   4.492  17.227  0.00  0.00    +0.000 OA
ATOM      4  H   UNL     1       4.689   4.597  16.234  0.00  0.00    +0.000 HD
ENDROOT
BRANCH   1  11
ATOM      5  C   UNL     1       8.780   6.008  12.569  0.00  0.00    +0.000 C 
ATOM      6  C   UNL     1       7.635   5.138  12.998  0.00  0.00    +0.000 A 
ATOM      7  C   UNL     1       7.056   4.228  12.107  0.00  0.00    +0.000 A 
ATOM      8  C   UNL     1       6.001   3.407  12.517  0.00  0.00    +0.000 A 
ATOM      9  C   UNL     1       5.352   2.437  11.574  0.00  0.00    +0.000 C 
ATOM     10  C   UNL     1       5.540   3.485  13.835  0.00  0.00    +0.000 A 
ATOM     11  C   UNL     1       6.112   4.377  14.742  0.00  0.00    +0.000 A 
ATOM     12  C   UNL     1       7.142   5.220  14.311  0.00  0.00    +0.000 A 
ENDBRANCH   1  11
BRANCH   2  13
ATOM     13  C   UNL     1       5.718   4.525  18.530  0.00  0.00    +0.000 C 
BRANCH  13  14
ATOM     14  S   UNL     1       4.303   5.674  18.459  0.00  0.00    +0.000 S 
BRANCH  14  15
ATOM     15  C   UNL     1       2.931   4.672  19.006  0.00  0.00    +0.000 A 
ATOM     16  C   UNL     1       2.255   4.825  20.222  0.00  0.00    +0.000 A 
ATOM     17  C   UNL     1       1.189   3.981  20.551  0.00  0.00    +0.000 A 
ATOM     18  C   UNL     1       0.784   2.982  19.670  0.00  0.00    +0.000 A 
ATOM     19  C   UNL     1       1.443   2.826  18.455  0.00  0.00    +0.000 A 
ATOM     20  C   UNL     1       2.508   3.665  18.126  0.00  0.00    +0.000 A 
ENDBRANCH  14  15
ENDBRANCH  13  14
ENDBRANCH   2  13
TORSDOF 4
ENDMDL
MODEL 2
REMARK VINA RESULT:      -7.4      0.174      1.984
REMARK  Name = 
REMARK  6 active torsions:
REMARK  status: ('A' for Active; 'I' for Inactive)
REMARK    1  A    between atoms: C_1  and  C_2
REMARK    2  A    between atoms: C_4  and  C_5
REMARK    3  A    between atoms: C_7  and  N_8
REMARK    4  A    between atoms: C_9  and  C_11
REMARK    5  A    between atoms: C_11  and  S_12
REMARK    6  A    between atoms: S_12  and  C_13
REMARK                            x       y       z     vdW  Elec       q    Type
REMARK                         _______ _______ _______ _____ _____    ______ ____
ROOT
ATOM      1  N   UNL     1       5.765   4.633  16.012  0.00  0.00    +0.000 N 
ATOM      2  C   UNL     1       6.495   4.454  17.173  0.00  0.00    +0.000 C 
ATOM      3  O   UNL     1       7.716   4.309  17.237  0.00  0.00    +0.000 OA
ATOM      4  H   UNL     1       4.788   4.880  16.133  0.00  0.00    +0.000 HD
ENDROOT
BRANCH   1  11
ATOM      5  C   UNL     1       5.404   2.379  11.652  0.00  0.00    +0.000 C 
ATOM      6  C   UNL     1       6.065   3.400  12.532  0.00  0.00    +0.000 A 
ATOM      7  C   UNL     1       7.070   4.233  12.029  0.00  0.00    +0.000 A 
ATOM      8  C   UNL     1       7.669   5.195  12.849  0.00  0.00    +0.000 A 
ATOM      9  C   UNL     1       8.762   6.087  12.337  0.00  0.00    +0.000 C 
ATOM     10  C   UNL     1       7.241   5.334  14.173  0.00  0.00    +0.000 A 
ATOM     11  C   UNL     1       6.233   4.522  14.689  0.00  0.00    +0.000 A 
ATOM     12  C   UNL     1       5.665   3.538  13.872  0.00  0.00    +0.000 A 
ENDBRANCH   1  11
BRANCH   2  13
ATOM     13  C   UNL     1       5.693   4.569  18.461  0.00  0.00    +0.000 C 
BRANCH  13  14
ATOM     14  S   UNL     1       4.235   5.651  18.274  0.00  0.00    +0.000 S 
BRANCH  14  15
ATOM     15  C   UNL     1       2.905   4.669  18.945  0.00  0.00    +0.000 A 
ATOM     16  C   UNL     1       2.437   4.736  20.262  0.00  0.00    +0.000 A 
ATOM     17  C   UNL     1       1.384   3.918  20.683  0.00  0.00    +0.000 A 
ATOM     18  C   UNL     1       0.784   3.029  19.794  0.00  0.00    +0.000 A 
ATOM     19  C   UNL     1       1.236   2.959  18.481  0.00  0.00    +0.000 A 
ATOM     20  C   UNL     1       2.288   3.773  18.060  0.00  0.00    +0.000 A 
ENDBRANCH  14  15
ENDBRANCH  13  14
ENDBRANCH   2  13
TORSDOF 4
ENDMDL
MODEL 3
REMARK VINA RESULT:      -7.3      0.292      1.123
REMARK  Name = 
REMARK  6 active torsions:
REMARK  status: ('A' for Active; 'I' for Inactive)
REMARK    1  A    between atoms: C_1  and  C_2
REMARK    2  A    between atoms: C_4  and  C_5
REMARK    3  A    between atoms: C_7  and  N_8
REMARK    4  A    between atoms: C_9  and  C_11
REMARK    5  A    between atoms: C_11  and  S_12
REMARK    6  A    between atoms: S_12  and  C_13
REMARK                            x       y       z     vdW  Elec       q    Type
REMARK                         _______ _______ _______ _____ _____    ______ ____
ROOT
ATOM      1  N   UNL     1       5.641   4.811  16.021  0.00  0.00    +0.000 N 
ATOM      2  C   UNL     1       6.323   4.593  17.205  0.00  0.00    +0.000 C 
ATOM      3  O   UNL     1       7.517   4.309  17.302  0.00  0.00    +0.000 OA
ATOM      4  H   UNL     1       4.698   5.176  16.111  0.00  0.00    +0.000 HD
ENDROOT
BRANCH   1  11
ATOM      5  C   UNL     1       8.900   6.002  12.532  0.00  0.00    +0.000 C 
ATOM      6  C   UNL     1       7.720   5.189  12.980  0.00  0.00    +0.000 A 
ATOM      7  C   UNL     1       7.156   4.224  12.138  0.00  0.00    +0.000 A 
ATOM      8  C   UNL     1       6.069   3.457  12.568  0.00  0.00    +0.000 A 
ATOM      9  C   UNL     1       5.435   2.430  11.676  0.00  0.00    +0.000 C 
ATOM     10  C   UNL     1       5.559   3.646  13.856  0.00  0.00    +0.000 A 
ATOM     11  C   UNL     1       6.115   4.594  14.714  0.00  0.00    +0.000 A 
ATOM     12  C   UNL     1       7.180   5.382  14.262  0.00  0.00    +0.000 A 
ENDBRANCH   1  11
BRANCH   2  13
ATOM     13  C   UNL     1       5.516   4.853  18.469  0.00  0.00    +0.000 C 
BRANCH  13  14
ATOM     14  S   UNL     1       3.970   5.761  18.130  0.00  0.00    +0.000 S 
BRANCH  14  15
ATOM     15  C   UNL     1       2.708   4.684  18.787  0.00  0.00    +0.000 A 
ATOM     16  C   UNL     1       2.015   3.713  18.056  0.00  0.00    +0.000 A 
ATOM     17  C   UNL     1       1.042   2.920  18.674  0.00  0.00    +0.000 A 
ATOM     18  C   UNL     1       0.754   3.086  20.026  0.00  0.00    +0.000 A 
ATOM     19  C   UNL     1       1.441   4.043  20.764  0.00  0.00    +0.000 A 
ATOM     20  C   UNL     1       2.410   4.836  20.149  0.00  0.00    +0.000 A 
ENDBRANCH  14  15
ENDBRANCH  13  14
ENDBRANCH   2  13
TORSDOF 4
ENDMDL
MODEL 4
REMARK VINA RESULT:      -7.2      1.554      7.200
REMARK  Name = 
REMARK  6 active torsions:
REMARK  status: ('A' for Active; 'I' for Inactive)
REMARK    1  A    between atoms: C_1  and  C_2
REMARK    2  A    between atoms: C_4  and  C_5
REMARK    3  A    between atoms: C_7  and  N_8
REMARK    4  A    between atoms: C_9  and  C_11
REMARK    5  A    between atoms: C_11  and  S_12
REMARK    6  A    between atoms: S_12  and  C_13
REMARK                            x       y       z     vdW  Elec       q    Type
REMARK                         _______ _______ _______ _____ _____    ______ ____
ROOT
ATOM      1  N   UNL     1       4.786   4.666  18.029  0.00  0.00    +0.000 N 
ATOM      2  C   UNL     1       6.133   4.646  18.343  0.00  0.00    +0.000 C 
ATOM      3  O   UNL     1       6.603   4.649  19.481  0.00  0.00    +0.000 OA
ATOM      4  H   UNL     1       4.553   4.516  17.052  0.00  0.00    +0.000 HD
ENDROOT
BRANCH   1  11
ATOM      5  C   UNL     1       1.664   7.823  20.152  0.00  0.00    +0.000 C 
ATOM      6  C   UNL     1       2.170   6.420  19.978  0.00  0.00    +0.000 A 
ATOM      7  C   UNL     1       1.554   5.351  20.638  0.00  0.00    +0.000 A 
ATOM      8  C   UNL     1       2.017   4.045  20.457  0.00  0.00    +0.000 A 
ATOM      9  C   UNL     1       1.386   2.885  21.170  0.00  0.00    +0.000 C 
ATOM     10  C   UNL     1       3.091   3.808  19.592  0.00  0.00    +0.000 A 
ATOM     11  C   UNL     1       3.709   4.859  18.915  0.00  0.00    +0.000 A 
ATOM     12  C   UNL     1       3.262   6.167  19.131  0.00  0.00    +0.000 A 
ENDBRANCH   1  11
BRANCH   2  13
ATOM     13  C   UNL     1       7.068   4.489  17.153  0.00  0.00    +0.000 C 
BRANCH  13  14
ATOM     14  S   UNL     1       6.863   5.826  15.929  0.00  0.00    +0.000 S 
BRANCH  14  15
ATOM     15  C   UNL     1       6.635   4.947  14.393  0.00  0.00    +0.000 A 
ATOM     16  C   UNL     1       7.526   4.963  13.314  0.00  0.00    +0.000 A 
ATOM     17  C   UNL     1       7.247   4.234  12.153  0.00  0.00    +0.000 A 
ATOM     18  C   UNL     1       6.081   3.478  12.060  0.00  0.00    +0.000 A 
ATOM     19  C   UNL     1       5.192   3.448  13.128  0.00  0.00    +0.000 A 
ATOM     20  C   UNL     1       5.467   4.176  14.286  0.00  0.00    +0.000 A 
ENDBRANCH  14  15
ENDBRANCH  13  14
ENDBRANCH   2  13
TORSDOF 4
ENDMDL
MODEL 5
REMARK VINA RESULT:      -7.2      1.598      7.479
REMARK  Name = 
REMARK  6 active torsions:
REMARK  status: ('A' for Active; 'I' for Inactive)
REMARK    1  A    between atoms: C_1  and  C_2
REMARK    2  A    between atoms: C_4  and  C_5
REMARK    3  A    between atoms: C_7  and  N_8
REMARK    4  A    between atoms: C_9  and  C_11
REMARK    5  A    between atoms: C_11  and  S_12
REMARK    6  A    between atoms: S_12  and  C_13
REMARK                            x       y       z     vdW  Elec       q    Type
REMARK                         _______ _______ _______ _____ _____    ______ ____
ROOT
ATOM      1  N   UNL     1       4.728   4.865  18.107  0.00  0.00    +0.000 N 
ATOM      2  C   UNL     1       6.064   4.732  18.438  0.00  0.00    +0.000 C 
ATOM      3  O   UNL     1       6.515   4.651  19.581  0.00  0.00    +0.000 OA
ATOM      4  H   UNL     1       4.502   4.776  17.121  0.00  0.00    +0.000 HD
ENDROOT
BRANCH   1  11
ATOM      5  C   UNL     1       1.405   2.968  21.202  0.00  0.00    +0.000 C 
ATOM      6  C   UNL     1       1.999   4.160  20.510  0.00  0.00    +0.000 A 
ATOM      7  C   UNL     1       1.525   5.450  20.775  0.00  0.00    +0.000 A 
ATOM      8  C   UNL     1       2.094   6.558  20.141  0.00  0.00    +0.000 A 
ATOM      9  C   UNL     1       1.589   7.949  20.395  0.00  0.00    +0.000 C 
ATOM     10  C   UNL     1       3.159   6.373  19.253  0.00  0.00    +0.000 A 
ATOM     11  C   UNL     1       3.653   5.097  18.986  0.00  0.00    +0.000 A 
ATOM     12  C   UNL     1       3.053   3.991  19.597  0.00  0.00    +0.000 A 
ENDBRANCH   1  11
BRANCH   2  13
ATOM     13  C   UNL     1       7.005   4.559  17.254  0.00  0.00    +0.000 C 
BRANCH  13  14
ATOM     14  S   UNL     1       6.799   5.874  16.007  0.00  0.00    +0.000 S 
BRANCH  14  15
ATOM     15  C   UNL     1       6.615   4.968  14.480  0.00  0.00    +0.000 A 
ATOM     16  C   UNL     1       5.571   4.083  14.188  0.00  0.00    +0.000 A 
ATOM     17  C   UNL     1       5.525   3.425  12.954  0.00  0.00    +0.000 A 
ATOM     18  C   UNL     1       6.515   3.645  12.001  0.00  0.00    +0.000 A 
ATOM     19  C   UNL     1       7.553   4.528  12.277  0.00  0.00    +0.000 A 
ATOM     20  C   UNL     1       7.602   5.185  13.508  0.00  0.00    +0.000 A 
ENDBRANCH  14  15
ENDBRANCH  13  14
ENDBRANCH   2  13
TORSDOF 4
ENDMDL
MODEL 6
REMARK VINA RESULT:      -7.2      1.206      1.208
REMARK  Name = 
REMARK  6 active torsions:
REMARK  status: ('A' for Active; 'I' for Inactive)
REMARK    1  A    between atoms: C_1  and  C_2
REMARK    2  A    between atoms: C_4  and  C_5
REMARK    3  A    between atoms: C_7  and  N_8
REMARK    4  A    between atoms: C_9  and  C_11
REMARK    5  A    between atoms: C_11  and  S_12
REMARK    6  A    between atoms: S_12  and  C_13
REMARK                            x       y       z     vdW  Elec       q    Type
REMARK                         _______ _______ _______ _____ _____    ______ ____
ROOT
ATOM      1  N   UNL     1       5.599   4.653  16.055  0.00  0.00    +0.000 N 
ATOM      2  C   UNL     1       5.099   5.809  16.628  0.00  0.00    +0.000 C 
ATOM      3  O   UNL     1       4.843   6.853  16.028  0.00  0.00    +0.000 OA
ATOM      4  H   UNL     1       5.623   3.833  16.653  0.00  0.00    +0.000 HD
ENDROOT
BRANCH   1  11
ATOM      5  C   UNL     1       8.871   5.939  12.612  0.00  0.00    +0.000 C 
ATOM      6  C   UNL     1       7.674   5.133  13.025  0.00  0.00    +0.000 A 
ATOM      7  C   UNL     1       7.084   4.225  12.139  0.00  0.00    +0.000 A 
ATOM      8  C   UNL     1       5.980   3.464  12.536  0.00  0.00    +0.000 A 
ATOM      9  C   UNL     1       5.318   2.498  11.597  0.00  0.00    +0.000 C 
ATOM     10  C   UNL     1       5.480   3.600  13.835  0.00  0.00    +0.000 A 
ATOM     11  C   UNL     1       6.063   4.490  14.736  0.00  0.00    +0.000 A 
ATOM     12  C   UNL     1       7.144   5.274  14.318  0.00  0.00    +0.000 A 
ENDBRANCH   1  11
BRANCH   2  13
ATOM     13  C   UNL     1       4.743   5.693  18.103  0.00  0.00    +0.000 C 
BRANCH  13  14
ATOM     14  S   UNL     1       3.060   6.301  18.460  0.00  0.00    +0.000 S 
BRANCH  14  15
ATOM     15  C   UNL     1       2.296   4.927  19.304  0.00  0.00    +0.000 A 
ATOM     16  C   UNL     1       2.305   4.724  20.688  0.00  0.00    +0.000 A 
ATOM     17  C   UNL     1       1.671   3.609  21.245  0.00  0.00    +0.000 A 
ATOM     18  C   UNL     1       1.020   2.688  20.429  0.00  0.00    +0.000 A 
ATOM     19  C   UNL     1       0.998   2.883  19.052  0.00  0.00    +0.000 A 
ATOM     20  C   UNL     1       1.631   3.994  18.494  0.00  0.00    +0.000 A 
ENDBRANCH  14  15
ENDBRANCH  13  14
ENDBRANCH   2  13
TORSDOF 4
ENDMDL
MODEL 7
REMARK VINA RESULT:      -7.2      5.703      8.247
REMARK  Name = 
REMARK  6 active torsions:
REMARK  status: ('A' for Active; 'I' for Inactive)
REMARK    1  A    between atoms: C_1  and  C_2
REMARK    2  A    between atoms: C_4  and  C_5
REMARK    3  A    between atoms: C_7  and  N_8
REMARK    4  A    between atoms: C_9  and  C_11
REMARK    5  A    between atoms: C_11  and  S_12
REMARK    6  A    between atoms: S_12  and  C_13
REMARK                            x       y       z     vdW  Elec       q    Type
REMARK                         _______ _______ _______ _____ _____    ______ ____
ROOT
ATOM      1  N   UNL     1       6.856   7.809  16.975  0.00  0.00    +0.000 N 
ATOM      2  C   UNL     1       7.842   8.079  17.907  0.00  0.00    +0.000 C 
ATOM      3  O   UNL     1       8.352   7.256  18.667  0.00  0.00    +0.000 OA
ATOM      4  H   UNL     1       6.638   8.559  16.326  0.00  0.00    +0.000 HD
ENDROOT
BRANCH   1  11
ATOM      5  C   UNL     1       6.094   3.720  14.344  0.00  0.00    +0.000 C 
ATOM      6  C   UNL     1       5.746   4.590  15.517  0.00  0.00    +0.000 A 
ATOM      7  C   UNL     1       4.774   4.189  16.441  0.00  0.00    +0.000 A 
ATOM      8  C   UNL     1       4.467   4.995  17.541  0.00  0.00    +0.000 A 
ATOM      9  C   UNL     1       3.416   4.595  18.534  0.00  0.00    +0.000 C 
ATOM     10  C   UNL     1       5.154   6.199  17.726  0.00  0.00    +0.000 A 
ATOM     11  C   UNL     1       6.134   6.610  16.823  0.00  0.00    +0.000 A 
ATOM     12  C   UNL     1       6.408   5.814  15.706  0.00  0.00    +0.000 A 
ENDBRANCH   1  11
BRANCH   2  13
ATOM     13  C   UNL     1       8.390   9.498  17.870  0.00  0.00    +0.000 C 
BRANCH  13  14
ATOM     14  S   UNL     1       9.146   9.991  19.455  0.00  0.00    +0.000 S 
BRANCH  14  15
ATOM     15  C   UNL     1      10.350  11.216  18.974  0.00  0.00    +0.000 A 
ATOM     16  C   UNL     1      10.552  11.681  17.670  0.00  0.00    +0.000 A 
ATOM     17  C   UNL     1      11.527  12.648  17.404  0.00  0.00    +0.000 A 
ATOM     18  C   UNL     1      12.307  13.163  18.437  0.00  0.00    +0.000 A 
ATOM     19  C   UNL     1      12.111  12.714  19.738  0.00  0.00    +0.000 A 
ATOM     20  C   UNL     1      11.140  11.748  20.004  0.00  0.00    +0.000 A 
ENDBRANCH  14  15
ENDBRANCH  13  14
ENDBRANCH   2  13
TORSDOF 4
ENDMDL
MODEL 8
REMARK VINA RESULT:      -7.1      1.025      2.484
REMARK  Name = 
REMARK  6 active torsions:
REMARK  status: ('A' for Active; 'I' for Inactive)
REMARK    1  A    between atoms: C_1  and  C_2
REMARK    2  A    between atoms: C_4  and  C_5
REMARK    3  A    between atoms: C_7  and  N_8
REMARK    4  A    between atoms: C_9  and  C_11
REMARK    5  A    between atoms: C_11  and  S_12
REMARK    6  A    between atoms: S_12  and  C_13
REMARK                            x       y       z     vdW  Elec       q    Type
REMARK                         _______ _______ _______ _____ _____    ______ ____
ROOT
ATOM      1  N   UNL     1       5.679   4.683  15.995  0.00  0.00    +0.000 N 
ATOM      2  C   UNL     1       5.469   5.854  16.699  0.00  0.00    +0.000 C 
ATOM      3  O   UNL     1       5.553   6.993  16.237  0.00  0.00    +0.000 OA
ATOM      4  H   UNL     1       5.433   3.823  16.475  0.00  0.00    +0.000 HD
ENDROOT
BRANCH   1  11
ATOM      5  C   UNL     1       5.354   2.468  11.612  0.00  0.00    +0.000 C 
ATOM      6  C   UNL     1       6.033   3.453  12.519  0.00  0.00    +0.000 A 
ATOM      7  C   UNL     1       7.091   4.242  12.053  0.00  0.00    +0.000 A 
ATOM      8  C   UNL     1       7.707   5.171  12.897  0.00  0.00    +0.000 A 
ATOM      9  C   UNL     1       8.856   6.014  12.426  0.00  0.00    +0.000 C 
ATOM     10  C   UNL     1       7.244   5.324  14.208  0.00  0.00    +0.000 A 
ATOM     11  C   UNL     1       6.183   4.556  14.686  0.00  0.00    +0.000 A 
ATOM     12  C   UNL     1       5.597   3.603  13.845  0.00  0.00    +0.000 A 
ENDBRANCH   1  11
BRANCH   2  13
ATOM     13  C   UNL     1       4.981   5.666  18.128  0.00  0.00    +0.000 C 
BRANCH  13  14
ATOM     14  S   UNL     1       3.332   6.398  18.400  0.00  0.00    +0.000 S 
BRANCH  14  15
ATOM     15  C   UNL     1       2.329   4.995  18.858  0.00  0.00    +0.000 A 
ATOM     16  C   UNL     1       1.936   3.967  17.993  0.00  0.00    +0.000 A 
ATOM     17  C   UNL     1       1.147   2.911  18.460  0.00  0.00    +0.000 A 
ATOM     18  C   UNL     1       0.746   2.867  19.793  0.00  0.00    +0.000 A 
ATOM     19  C   UNL     1       1.136   3.879  20.663  0.00  0.00    +0.000 A 
ATOM     20  C   UNL     1       1.922   4.935  20.199  0.00  0.00    +0.000 A 
ENDBRANCH  14  15
ENDBRANCH  13  14
ENDBRANCH   2  13
TORSDOF 4
ENDMDL
MODEL 9
REMARK VINA RESULT:      -7.1      5.772      8.275
REMARK  Name = 
REMARK  6 active torsions:
REMARK  status: ('A' for Active; 'I' for Inactive)
REMARK    1  A    between atoms: C_1  and  C_2
REMARK    2  A    between atoms: C_4  and  C_5
REMARK    3  A    between atoms: C_7  and  N_8
REMARK    4  A    between atoms: C_9  and  C_11
REMARK    5  A    between atoms: C_11  and  S_12
REMARK    6  A    between atoms: S_12  and  C_13
REMARK                            x       y       z     vdW  Elec       q    Type
REMARK                         _______ _______ _______ _____ _____    ______ ____
ROOT
ATOM      1  N   UNL     1       6.782   8.026  17.071  0.00  0.00    +0.000 N 
ATOM      2  C   UNL     1       7.840   8.206  17.943  0.00  0.00    +0.000 C 
ATOM      3  O   UNL     1       8.355   7.328  18.636  0.00  0.00    +0.000 OA
ATOM      4  H   UNL     1       6.564   8.811  16.466  0.00  0.00    +0.000 HD
ENDROOT
BRANCH   1  11
ATOM      5  C   UNL     1       6.183   3.631  14.938  0.00  0.00    +0.000 C 
ATOM      6  C   UNL     1       5.681   4.702  15.862  0.00  0.00    +0.000 A 
ATOM      7  C   UNL     1       4.493   4.527  16.581  0.00  0.00    +0.000 A 
ATOM      8  C   UNL     1       4.040   5.520  17.454  0.00  0.00    +0.000 A 
ATOM      9  C   UNL     1       2.759   5.362  18.221  0.00  0.00    +0.000 C 
ATOM     10  C   UNL     1       4.794   6.685  17.623  0.00  0.00    +0.000 A 
ATOM     11  C   UNL     1       5.987   6.874  16.925  0.00  0.00    +0.000 A 
ATOM     12  C   UNL     1       6.413   5.890  16.026  0.00  0.00    +0.000 A 
ENDBRANCH   1  11
BRANCH   2  13
ATOM     13  C   UNL     1       8.462   9.595  17.920  0.00  0.00    +0.000 C 
BRANCH  13  14
ATOM     14  S   UNL     1       9.159  10.069  19.538  0.00  0.00    +0.000 S 
BRANCH  14  15
ATOM     15  C   UNL     1      10.397  11.282  19.114  0.00  0.00    +0.000 A 
ATOM     16  C   UNL     1      11.289  11.874  20.015  0.00  0.00    +0.000 A 
ATOM     17  C   UNL     1      12.223  12.816  19.572  0.00  0.00    +0.000 A 
ATOM     18  C   UNL     1      12.278  13.175  18.228  0.00  0.00    +0.000 A 
ATOM     19  C   UNL     1      11.401  12.589  17.322  0.00  0.00    +0.000 A 
ATOM     20  C   UNL     1      10.468  11.650  17.762  0.00  0.00    +0.000 A 
ENDBRANCH  14  15
ENDBRANCH  13  14
ENDBRANCH   2  13
TORSDOF 4
ENDMDL
