MODEL 1
REMARK VINA RESULT:      -8.1      0.000      0.000
REMARK  Name = 
REMARK  4 active torsions:
REMARK  status: ('A' for Active; 'I' for Inactive)
REMARK    1  A    between atoms: C_1  and  C_2
REMARK    2  A    between atoms: C_5  and  C_6
REMARK    3  A    between atoms: C_7  and  C_8
REMARK    4  A    between atoms: C_14  and  C_16
REMARK                            x       y       z     vdW  Elec       q    Type
REMARK                         _______ _______ _______ _____ _____    ______ ____
ROOT
ATOM      1  C   UNL     1       4.365   4.201  18.069  0.00  0.00    +0.000 C 
ATOM      2  C   UNL     1       3.820   2.858  17.537  0.00  0.00    +0.000 C 
ATOM      3  O   UNL     1       2.663   2.451  18.288  0.00  0.00    +0.000 OA
ATOM      4  C   UNL     1       1.617   3.415  18.149  0.00  0.00    +0.000 C 
ATOM      5  C   UNL     1       2.053   4.810  18.606  0.00  0.00    +0.000 C 
ATOM      6  N   UNL     1       3.318   5.249  17.987  0.00  0.00    +0.000 N 
ATOM      7  C   UNL     1       3.583   6.609  17.756  0.00  0.00    +0.000 C 
ATOM      8  O   UNL     1       4.515   6.988  17.051  0.00  0.00    +0.000 OA
ENDROOT
BRANCH   1  15
ATOM      9  C   UNL     1       5.264   4.118  15.005  0.00  0.00    +0.000 C 
ATOM     10  C   UNL     1       6.128   4.430  16.175  0.00  0.00    +0.000 A 
ATOM     11  N   UNL     1       7.399   4.778  15.982  0.00  0.00    +0.000 NA
ATOM     12  N   UNL     1       7.846   5.052  17.212  0.00  0.00    +0.000 N 
ATOM     13  C   UNL     1       6.878   4.999  18.177  0.00  0.00    +0.000 A 
ATOM     14  C   UNL     1       7.167   5.446  19.560  0.00  0.00    +0.000 C 
ATOM     15  C   UNL     1       5.748   4.486  17.557  0.00  0.00    +0.000 A 
ATOM     16  H   UNL     1       8.819   5.326  17.314  0.00  0.00    +0.000 HD
ENDBRANCH   1  15
BRANCH   7  17
ATOM     17  C   UNL     1       2.662   7.590  18.327  0.00  0.00    +0.000 A 
ATOM     18  C   UNL     1       2.000   8.665  17.756  0.00  0.00    +0.000 A 
ATOM     19  C   UNL     1       1.233   9.269  18.787  0.00  0.00    +0.000 A 
ATOM     20  C   UNL     1       1.499   8.559  19.935  0.00  0.00    +0.000 A 
ATOM     21 CL   UNL     1       0.831   8.824  21.495  0.00  0.00    +0.000 Cl
ATOM     22  O   UNL     1       2.382   7.561  19.668  0.00  0.00    +0.000 OA
ENDBRANCH   7  17
TORSDOF 2
ENDMDL
MODEL 2
REMARK VINA RESULT:      -8.1      0.233      1.777
REMARK  Name = 
REMARK  4 active torsions:
REMARK  status: ('A' for Active; 'I' for Inactive)
REMARK    1  A    between atoms: C_1  and  C_2
REMARK    2  A    between atoms: C_5  and  C_6
REMARK    3  A    between atoms: C_7  and  C_8
REMARK    4  A    between atoms: C_14  and  C_16
REMARK                            x       y       z     vdW  Elec       q    Type
REMARK                         _______ _______ _______ _____ _____    ______ ____
ROOT
ATOM      1  C   UNL     1       4.304   4.335  17.883  0.00  0.00    +0.000 C 
ATOM      2  C   UNL     1       3.753   2.993  17.356  0.00  0.00    +0.000 C 
ATOM      3  O   UNL     1       2.667   2.536  18.180  0.00  0.00    +0.000 OA
ATOM      4  C   UNL     1       1.590   3.476  18.148  0.00  0.00    +0.000 C 
ATOM      5  C   UNL     1       2.026   4.869  18.610  0.00  0.00    +0.000 C 
ATOM      6  N   UNL     1       3.229   5.357  17.911  0.00  0.00    +0.000 N 
ATOM      7  C   UNL     1       3.443   6.729  17.699  0.00  0.00    +0.000 C 
ATOM      8  O   UNL     1       4.309   7.151  16.937  0.00  0.00    +0.000 OA
ENDROOT
BRANCH   1  15
ATOM      9  C   UNL     1       6.869   5.357  19.489  0.00  0.00    +0.000 C 
ATOM     10  C   UNL     1       6.770   5.140  18.020  0.00  0.00    +0.000 A 
ATOM     11  N   UNL     1       7.846   5.313  17.254  0.00  0.00    +0.000 NA
ATOM     12  N   UNL     1       7.426   4.969  16.032  0.00  0.00    +0.000 N 
ATOM     13  C   UNL     1       6.151   4.476  16.002  0.00  0.00    +0.000 A 
ATOM     14  C   UNL     1       5.598   3.888  14.760  0.00  0.00    +0.000 C 
ATOM     15  C   UNL     1       5.637   4.670  17.276  0.00  0.00    +0.000 A 
ATOM     16  H   UNL     1       8.088   5.045  15.265  0.00  0.00    +0.000 HD
ENDBRANCH   1  15
BRANCH   7  17
ATOM     17  C   UNL     1       2.545   7.671  18.365  0.00  0.00    +0.000 A 
ATOM     18  C   UNL     1       1.829   8.752  17.881  0.00  0.00    +0.000 A 
ATOM     19  C   UNL     1       1.121   9.304  18.981  0.00  0.00    +0.000 A 
ATOM     20  C   UNL     1       1.474   8.557  20.082  0.00  0.00    +0.000 A 
ATOM     21 CL   UNL     1       0.906   8.750  21.691  0.00  0.00    +0.000 Cl
ATOM     22  O   UNL     1       2.354   7.587  19.721  0.00  0.00    +0.000 OA
ENDBRANCH   7  17
TORSDOF 2
ENDMDL
MODEL 3
REMARK VINA RESULT:      -7.6      1.053      2.144
REMARK  Name = 
REMARK  4 active torsions:
REMARK  status: ('A' for Active; 'I' for Inactive)
REMARK    1  A    between atoms: C_1  and  C_2
REMARK    2  A    between atoms: C_5  and  C_6
REMARK    3  A    between atoms: C_7  and  C_8
REMARK    4  A    between atoms: C_14  and  C_16
REMARK                            x       y       z     vdW  Elec       q    Type
REMARK                         _______ _______ _______ _____ _____    ______ ____
ROOT
ATOM      1  C   UNL     1       4.285   4.551  17.812  0.00  0.00    +0.000 C 
ATOM      2  C   UNL     1       3.766   3.229  17.207  0.00  0.00    +0.000 C 
ATOM      3  O   UNL     1       2.750   2.654  18.047  0.00  0.00    +0.000 OA
ATOM      4  C   UNL     1       1.631   3.539  18.149  0.00  0.00    +0.000 C 
ATOM      5  C   UNL     1       2.029   4.911  18.700  0.00  0.00    +0.000 C 
ATOM      6  N   UNL     1       3.167   5.513  17.981  0.00  0.00    +0.000 N 
ATOM      7  C   UNL     1       3.306   6.906  17.870  0.00  0.00    +0.000 C 
ATOM      8  O   UNL     1       4.107   7.430  17.101  0.00  0.00    +0.000 OA
ENDROOT
BRANCH   1  15
ATOM      9  C   UNL     1       6.905   5.521  19.360  0.00  0.00    +0.000 C 
ATOM     10  C   UNL     1       6.723   5.442  17.885  0.00  0.00    +0.000 A 
ATOM     11  N   UNL     1       7.742   5.734  17.079  0.00  0.00    +0.000 NA
ATOM     12  N   UNL     1       7.260   5.493  15.855  0.00  0.00    +0.000 N 
ATOM     13  C   UNL     1       6.004   4.952  15.851  0.00  0.00    +0.000 A 
ATOM     14  C   UNL     1       5.397   4.464  14.590  0.00  0.00    +0.000 C 
ATOM     15  C   UNL     1       5.564   5.000  17.165  0.00  0.00    +0.000 A 
ATOM     16  H   UNL     1       7.869   5.671  15.062  0.00  0.00    +0.000 HD
ENDBRANCH   1  15
BRANCH   7  17
ATOM     17  C   UNL     1       2.405   7.746  18.659  0.00  0.00    +0.000 A 
ATOM     18  C   UNL     1       2.053   7.706  19.998  0.00  0.00    +0.000 A 
ATOM     19  C   UNL     1       1.139   8.770  20.214  0.00  0.00    +0.000 A 
ATOM     20  C   UNL     1       0.951   9.375  18.992  0.00  0.00    +0.000 A 
ATOM     21 CL   UNL     1      -0.036  10.739  18.652  0.00  0.00    +0.000 Cl
ATOM     22  O   UNL     1       1.692   8.744  18.045  0.00  0.00    +0.000 OA
ENDBRANCH   7  17
TORSDOF 2
ENDMDL
MODEL 4
REMARK VINA RESULT:      -7.6      2.052      3.821
REMARK  Name = 
REMARK  4 active torsions:
REMARK  status: ('A' for Active; 'I' for Inactive)
REMARK    1  A    between atoms: C_1  and  C_2
REMARK    2  A    between atoms: C_5  and  C_6
REMARK    3  A    between atoms: C_7  and  C_8
REMARK    4  A    between atoms: C_14  and  C_16
REMARK                            x       y       z     vdW  Elec       q    Type
REMARK                         _______ _______ _______ _____ _____    ______ ____
ROOT
ATOM      1  C   UNL     1       4.566   5.957  17.082  0.00  0.00    +0.000 C 
ATOM      2  C   UNL     1       4.647   7.496  17.173  0.00  0.00    +0.000 C 
ATOM      3  O   UNL     1       3.332   8.075  17.106  0.00  0.00    +0.000 OA
ATOM      4  C   UNL     1       2.536   7.629  18.207  0.00  0.00    +0.000 C 
ATOM      5  C   UNL     1       2.418   6.103  18.252  0.00  0.00    +0.000 C 
ATOM      6  N   UNL     1       3.724   5.421  18.180  0.00  0.00    +0.000 N 
ATOM      7  C   UNL     1       3.930   4.174  18.792  0.00  0.00    +0.000 C 
ATOM      8  O   UNL     1       5.049   3.689  18.939  0.00  0.00    +0.000 OA
ENDROOT
BRANCH   1  15
ATOM      9  C   UNL     1       5.373   4.409  14.408  0.00  0.00    +0.000 C 
ATOM     10  C   UNL     1       6.239   4.640  15.596  0.00  0.00    +0.000 A 
ATOM     11  N   UNL     1       7.508   4.237  15.574  0.00  0.00    +0.000 NA
ATOM     12  N   UNL     1       7.998   4.661  16.745  0.00  0.00    +0.000 N 
ATOM     13  C   UNL     1       7.120   5.417  17.471  0.00  0.00    +0.000 A 
ATOM     14  C   UNL     1       7.561   6.108  18.705  0.00  0.00    +0.000 C 
ATOM     15  C   UNL     1       5.907   5.341  16.802  0.00  0.00    +0.000 A 
ATOM     16  H   UNL     1       8.966   4.443  16.960  0.00  0.00    +0.000 HD
ENDBRANCH   1  15
BRANCH   7  17
ATOM     17  C   UNL     1       2.763   3.476  19.329  0.00  0.00    +0.000 A 
ATOM     18  C   UNL     1       1.680   2.884  18.700  0.00  0.00    +0.000 A 
ATOM     19  C   UNL     1       0.850   2.353  19.722  0.00  0.00    +0.000 A 
ATOM     20  C   UNL     1       1.448   2.683  20.917  0.00  0.00    +0.000 A 
ATOM     21 CL   UNL     1       0.902   2.280  22.495  0.00  0.00    +0.000 Cl
ATOM     22  O   UNL     1       2.588   3.384  20.686  0.00  0.00    +0.000 OA
ENDBRANCH   7  17
TORSDOF 2
ENDMDL
MODEL 5
REMARK VINA RESULT:      -7.4      0.984      1.157
REMARK  Name = 
REMARK  4 active torsions:
REMARK  status: ('A' for Active; 'I' for Inactive)
REMARK    1  A    between atoms: C_1  and  C_2
REMARK    2  A    between atoms: C_5  and  C_6
REMARK    3  A    between atoms: C_7  and  C_8
REMARK    4  A    between atoms: C_14  and  C_16
REMARK                            x       y       z     vdW  Elec       q    Type
REMARK                         _______ _______ _______ _____ _____    ______ ____
ROOT
ATOM      1  C   UNL     1       4.391   4.177  18.042  0.00  0.00    +0.000 C 
ATOM      2  C   UNL     1       3.866   2.869  17.413  0.00  0.00    +0.000 C 
ATOM      3  O   UNL     1       2.735   2.374  18.151  0.00  0.00    +0.000 OA
ATOM      4  C   UNL     1       1.663   3.320  18.112  0.00  0.00    +0.000 C 
ATOM      5  C   UNL     1       2.077   4.683  18.672  0.00  0.00    +0.000 C 
ATOM      6  N   UNL     1       3.318   5.202  18.067  0.00  0.00    +0.000 N 
ATOM      7  C   UNL     1       3.547   6.583  17.942  0.00  0.00    +0.000 C 
ATOM      8  O   UNL     1       4.454   7.041  17.252  0.00  0.00    +0.000 OA
ENDROOT
BRANCH   1  15
ATOM      9  C   UNL     1       5.263   4.228  14.969  0.00  0.00    +0.000 C 
ATOM     10  C   UNL     1       6.124   4.540  16.142  0.00  0.00    +0.000 A 
ATOM     11  N   UNL     1       7.377   4.949  15.949  0.00  0.00    +0.000 NA
ATOM     12  N   UNL     1       7.823   5.204  17.184  0.00  0.00    +0.000 N 
ATOM     13  C   UNL     1       6.869   5.080  18.155  0.00  0.00    +0.000 A 
ATOM     14  C   UNL     1       7.151   5.495  19.549  0.00  0.00    +0.000 C 
ATOM     15  C   UNL     1       5.756   4.538  17.528  0.00  0.00    +0.000 A 
ATOM     16  H   UNL     1       8.785   5.515  17.286  0.00  0.00    +0.000 HD
ENDBRANCH   1  15
BRANCH   7  17
ATOM     17  C   UNL     1       2.616   7.492  18.609  0.00  0.00    +0.000 A 
ATOM     18  C   UNL     1       2.186   7.559  19.923  0.00  0.00    +0.000 A 
ATOM     19  C   UNL     1       1.278   8.648  20.004  0.00  0.00    +0.000 A 
ATOM     20  C   UNL     1       1.172   9.160  18.730  0.00  0.00    +0.000 A 
ATOM     21 CL   UNL     1       0.231  10.506  18.229  0.00  0.00    +0.000 Cl
ATOM     22  O   UNL     1       1.957   8.448  17.880  0.00  0.00    +0.000 OA
ENDBRANCH   7  17
TORSDOF 2
ENDMDL
MODEL 6
REMARK VINA RESULT:      -7.1      1.234      1.275
REMARK  Name = 
REMARK  4 active torsions:
REMARK  status: ('A' for Active; 'I' for Inactive)
REMARK    1  A    between atoms: C_1  and  C_2
REMARK    2  A    between atoms: C_5  and  C_6
REMARK    3  A    between atoms: C_7  and  C_8
REMARK    4  A    between atoms: C_14  and  C_16
REMARK                            x       y       z     vdW  Elec       q    Type
REMARK                         _______ _______ _______ _____ _____    ______ ____
ROOT
ATOM      1  C   UNL     1       5.221   5.074  18.450  0.00  0.00    +0.000 C 
ATOM      2  C   UNL     1       5.053   3.549  18.617  0.00  0.00    +0.000 C 
ATOM      3  O   UNL     1       4.399   3.247  19.861  0.00  0.00    +0.000 OA
ATOM      4  C   UNL     1       3.089   3.820  19.886  0.00  0.00    +0.000 C 
ATOM      5  C   UNL     1       3.120   5.338  19.684  0.00  0.00    +0.000 C 
ATOM      6  N   UNL     1       3.899   5.745  18.499  0.00  0.00    +0.000 N 
ATOM      7  C   UNL     1       3.583   6.913  17.785  0.00  0.00    +0.000 C 
ATOM      8  O   UNL     1       4.062   7.161  16.682  0.00  0.00    +0.000 OA
ENDROOT
BRANCH   1  15
ATOM      9  C   UNL     1       5.043   4.050  15.429  0.00  0.00    +0.000 C 
ATOM     10  C   UNL     1       6.094   4.931  16.008  0.00  0.00    +0.000 A 
ATOM     11  N   UNL     1       7.047   5.423  15.220  0.00  0.00    +0.000 NA
ATOM     12  N   UNL     1       7.759   6.210  16.033  0.00  0.00    +0.000 N 
ATOM     13  C   UNL     1       7.233   6.328  17.290  0.00  0.00    +0.000 A 
ATOM     14  C   UNL     1       7.799   7.298  18.257  0.00  0.00    +0.000 C 
ATOM     15  C   UNL     1       6.191   5.415  17.354  0.00  0.00    +0.000 A 
ATOM     16  H   UNL     1       8.569   6.685  15.645  0.00  0.00    +0.000 HD
ENDBRANCH   1  15
BRANCH   7  17
ATOM     17  C   UNL     1       2.592   7.820  18.364  0.00  0.00    +0.000 A 
ATOM     18  C   UNL     1       1.882   8.873  17.812  0.00  0.00    +0.000 A 
ATOM     19  C   UNL     1       1.056   9.396  18.842  0.00  0.00    +0.000 A 
ATOM     20  C   UNL     1       1.336   8.664  19.973  0.00  0.00    +0.000 A 
ATOM     21 CL   UNL     1       0.616   8.836  21.523  0.00  0.00    +0.000 Cl
ATOM     22  O   UNL     1       2.282   7.728  19.696  0.00  0.00    +0.000 OA
ENDBRANCH   7  17
TORSDOF 2
ENDMDL
MODEL 7
REMARK VINA RESULT:      -7.1      2.013      4.243
REMARK  Name = 
REMARK  4 active torsions:
REMARK  status: ('A' for Active; 'I' for Inactive)
REMARK    1  A    between atoms: C_1  and  C_2
REMARK    2  A    between atoms: C_5  and  C_6
REMARK    3  A    between atoms: C_7  and  C_8
REMARK    4  A    between atoms: C_14  and  C_16
REMARK                            x       y       z     vdW  Elec       q    Type
REMARK                         _______ _______ _______ _____ _____    ______ ____
ROOT
ATOM      1  C   UNL     1       4.442   6.116  16.831  0.00  0.00    +0.000 C 
ATOM      2  C   UNL     1       4.578   7.633  17.077  0.00  0.00    +0.000 C 
ATOM      3  O   UNL     1       3.282   8.240  17.217  0.00  0.00    +0.000 OA
ATOM      4  C   UNL     1       2.595   7.689  18.344  0.00  0.00    +0.000 C 
ATOM      5  C   UNL     1       2.436   6.170  18.237  0.00  0.00    +0.000 C 
ATOM      6  N   UNL     1       3.706   5.477  17.949  0.00  0.00    +0.000 N 
ATOM      7  C   UNL     1       3.939   4.166  18.398  0.00  0.00    +0.000 C 
ATOM      8  O   UNL     1       5.052   3.648  18.368  0.00  0.00    +0.000 OA
ENDROOT
BRANCH   1  15
ATOM      9  C   UNL     1       7.211   6.096  18.423  0.00  0.00    +0.000 C 
ATOM     10  C   UNL     1       6.960   5.526  17.072  0.00  0.00    +0.000 A 
ATOM     11  N   UNL     1       7.935   4.875  16.440  0.00  0.00    +0.000 NA
ATOM     12  N   UNL     1       7.355   4.445  15.314  0.00  0.00    +0.000 N 
ATOM     13  C   UNL     1       6.013   4.701  15.250  0.00  0.00    +0.000 A 
ATOM     14  C   UNL     1       5.189   4.139  14.154  0.00  0.00    +0.000 C 
ATOM     15  C   UNL     1       5.726   5.510  16.340  0.00  0.00    +0.000 A 
ATOM     16  H   UNL     1       7.927   3.930  14.652  0.00  0.00    +0.000 HD
ENDBRANCH   1  15
BRANCH   7  17
ATOM     17  C   UNL     1       2.815   3.434  18.981  0.00  0.00    +0.000 A 
ATOM     18  C   UNL     1       1.763   2.752  18.393  0.00  0.00    +0.000 A 
ATOM     19  C   UNL     1       0.970   2.231  19.448  0.00  0.00    +0.000 A 
ATOM     20  C   UNL     1       1.556   2.655  20.620  0.00  0.00    +0.000 A 
ATOM     21 CL   UNL     1       1.043   2.306  22.221  0.00  0.00    +0.000 Cl
ATOM     22  O   UNL     1       2.655   3.405  20.342  0.00  0.00    +0.000 OA
ENDBRANCH   7  17
TORSDOF 2
ENDMDL
MODEL 8
REMARK VINA RESULT:      -7.1      3.906      7.511
REMARK  Name = 
REMARK  4 active torsions:
REMARK  status: ('A' for Active; 'I' for Inactive)
REMARK    1  A    between atoms: C_1  and  C_2
REMARK    2  A    between atoms: C_5  and  C_6
REMARK    3  A    between atoms: C_7  and  C_8
REMARK    4  A    between atoms: C_14  and  C_16
REMARK                            x       y       z     vdW  Elec       q    Type
REMARK                         _______ _______ _______ _____ _____    ______ ____
ROOT
ATOM      1  C   UNL     1      -0.100  10.026  19.879  0.00  0.00    +0.000 C 
ATOM      2  C   UNL     1      -0.035  10.679  21.276  0.00  0.00    +0.000 C 
ATOM      3  O   UNL     1       0.095   9.675  22.296  0.00  0.00    +0.000 OA
ATOM      4  C   UNL     1       1.308   8.939  22.118  0.00  0.00    +0.000 C 
ATOM      5  C   UNL     1       1.383   8.275  20.740  0.00  0.00    +0.000 C 
ATOM      6  N   UNL     1       1.118   9.214  19.634  0.00  0.00    +0.000 N 
ATOM      7  C   UNL     1       1.701   9.033  18.369  0.00  0.00    +0.000 C 
ATOM      8  O   UNL     1       1.680   9.904  17.503  0.00  0.00    +0.000 OA
ENDROOT
BRANCH   1  15
ATOM      9  C   UNL     1      -2.652   9.615  18.002  0.00  0.00    +0.000 C 
ATOM     10  C   UNL     1      -1.720  10.775  17.992  0.00  0.00    +0.000 A 
ATOM     11  N   UNL     1      -1.960  11.806  17.183  0.00  0.00    +0.000 NA
ATOM     12  N   UNL     1      -0.990  12.677  17.480  0.00  0.00    +0.000 N 
ATOM     13  C   UNL     1      -0.201  12.292  18.528  0.00  0.00    +0.000 A 
ATOM     14  C   UNL     1       0.806  13.219  19.096  0.00  0.00    +0.000 C 
ATOM     15  C   UNL     1      -0.576  10.991  18.830  0.00  0.00    +0.000 A 
ATOM     16  H   UNL     1      -0.960  13.549  16.960  0.00  0.00    +0.000 HD
ENDBRANCH   1  15
BRANCH   7  17
ATOM     17  C   UNL     1       2.416   7.782  18.119  0.00  0.00    +0.000 A 
ATOM     18  C   UNL     1       3.737   7.532  17.791  0.00  0.00    +0.000 A 
ATOM     19  C   UNL     1       3.872   6.124  17.670  0.00  0.00    +0.000 A 
ATOM     20  C   UNL     1       2.621   5.595  17.891  0.00  0.00    +0.000 A 
ATOM     21 CL   UNL     1       2.185   3.934  17.896  0.00  0.00    +0.000 Cl
ATOM     22  O   UNL     1       1.733   6.593  18.136  0.00  0.00    +0.000 OA
ENDBRANCH   7  17
TORSDOF 2
ENDMDL
MODEL 9
REMARK VINA RESULT:      -7.1      3.440      6.114
REMARK  Name = 
REMARK  4 active torsions:
REMARK  status: ('A' for Active; 'I' for Inactive)
REMARK    1  A    between atoms: C_1  and  C_2
REMARK    2  A    between atoms: C_5  and  C_6
REMARK    3  A    between atoms: C_7  and  C_8
REMARK    4  A    between atoms: C_14  and  C_16
REMARK                            x       y       z     vdW  Elec       q    Type
REMARK                         _______ _______ _______ _____ _____    ______ ____
ROOT
ATOM      1  C   UNL     1       5.204   4.256  18.528  0.00  0.00    +0.000 C 
ATOM      2  C   UNL     1       5.737   5.090  19.713  0.00  0.00    +0.000 C 
ATOM      3  O   UNL     1       7.171   5.011  19.780  0.00  0.00    +0.000 OA
ATOM      4  C   UNL     1       7.754   5.549  18.590  0.00  0.00    +0.000 C 
ATOM      5  C   UNL     1       7.265   4.829  17.331  0.00  0.00    +0.000 C 
ATOM      6  N   UNL     1       5.794   4.737  17.254  0.00  0.00    +0.000 N 
ATOM      7  C   UNL     1       5.129   4.705  16.017  0.00  0.00    +0.000 C 
ATOM      8  O   UNL     1       3.914   4.851  15.919  0.00  0.00    +0.000 OA
ENDROOT
BRANCH   1  15
ATOM      9  C   UNL     1       3.756   1.410  18.447  0.00  0.00    +0.000 C 
ATOM     10  C   UNL     1       3.097   2.739  18.573  0.00  0.00    +0.000 A 
ATOM     11  N   UNL     1       1.777   2.807  18.734  0.00  0.00    +0.000 NA
ATOM     12  N   UNL     1       1.540   4.114  18.883  0.00  0.00    +0.000 N 
ATOM     13  C   UNL     1       2.672   4.880  18.933  0.00  0.00    +0.000 A 
ATOM     14  C   UNL     1       2.593   6.321  19.269  0.00  0.00    +0.000 C 
ATOM     15  C   UNL     1       3.723   4.028  18.624  0.00  0.00    +0.000 A 
ATOM     16  H   UNL     1       0.576   4.411  19.002  0.00  0.00    +0.000 HD
ENDBRANCH   1  15
BRANCH   7  17
ATOM     17  C   UNL     1       5.940   4.559  14.810  0.00  0.00    +0.000 A 
ATOM     18  C   UNL     1       5.932   3.600  13.811  0.00  0.00    +0.000 A 
ATOM     19  C   UNL     1       6.940   3.966  12.881  0.00  0.00    +0.000 A 
ATOM     20  C   UNL     1       7.535   5.102  13.381  0.00  0.00    +0.000 A 
ATOM     21 CL   UNL     1       8.806   6.007  12.664  0.00  0.00    +0.000 Cl
ATOM     22  O   UNL     1       6.954   5.449  14.559  0.00  0.00    +0.000 OA
ENDBRANCH   7  17
TORSDOF 2
ENDMDL
