MODEL 1
REMARK VINA RESULT:      -6.6      0.000      0.000
REMARK  Name = 
REMARK  8 active torsions:
REMARK  status: ('A' for Active; 'I' for Inactive)
REMARK    1  A    between atoms: C_1  and  C_2
REMARK    2  A    between atoms: C_2  and  C_3
REMARK    3  A    between atoms: C_3  and  C_4
REMARK    4  A    between atoms: C_4  and  C_5
REMARK    5  A    between atoms: C_4  and  C_8
REMARK    6  A    between atoms: C_5  and  O_7
REMARK    7  A    between atoms: C_9  and  C_10
REMARK    8  A    between atoms: C_17  and  C_18
REMARK                            x       y       z     vdW  Elec       q    Type
REMARK                         _______ _______ _______ _____ _____    ______ ____
ROOT
ATOM      1  C   UNL     1      -1.165  11.370  19.848  0.00  0.00    +0.000 A 
ATOM      2  C   UNL     1      -1.052  10.679  18.620  0.00  0.00    +0.000 A 
ATOM      3  C   UNL     1       0.154   9.903  18.151  0.00  0.00    +0.000 C 
ATOM      4  N   UNL     1      -2.007  10.667  17.694  0.00  0.00    +0.000 NA
ATOM      5  C   UNL     1      -3.139  11.318  17.973  0.00  0.00    +0.000 A 
ATOM      6  S   UNL     1      -4.367  11.263  16.805  0.00  0.00    +0.000 S 
ATOM      7  C   UNL     1      -5.412  12.166  17.778  0.00  0.00    +0.000 A 
ATOM      8  C   UNL     1      -4.824  12.568  18.975  0.00  0.00    +0.000 A 
ATOM      9  C   UNL     1      -3.444  12.048  19.119  0.00  0.00    +0.000 A 
ATOM     10  C   UNL     1      -2.389  12.092  20.115  0.00  0.00    +0.000 A 
ATOM     11  C   UNL     1      -5.660  13.383  19.937  0.00  0.00    +0.000 C 
ATOM     12  C   UNL     1      -6.920  13.989  19.296  0.00  0.00    +0.000 C 
ATOM     13  C   UNL     1      -7.667  12.956  18.462  0.00  0.00    +0.000 C 
ATOM     14  C   UNL     1      -6.799  12.471  17.306  0.00  0.00    +0.000 C 
ENDROOT
BRANCH  10  15
ATOM     15  C   UNL     1      -2.607  12.871  21.366  0.00  0.00    +0.000 A 
ATOM     16  C   UNL     1      -2.034  14.139  21.537  0.00  0.00    +0.000 A 
ATOM     17  C   UNL     1      -2.379  14.966  22.613  0.00  0.00    +0.000 A 
ATOM     18  C   UNL     1      -3.134  14.459  23.661  0.00  0.00    +0.000 A 
ATOM     19  C   UNL     1      -3.563  13.141  23.602  0.00  0.00    +0.000 A 
ATOM     20 CL   UNL     1      -4.293  12.418  24.981  0.00  0.00    +0.000 Cl
ATOM     21  C   UNL     1      -3.375  12.386  22.440  0.00  0.00    +0.000 A 
ENDBRANCH  10  15
BRANCH   1  22
ATOM     22  C   UNL     1      -0.007  11.335  20.860  0.00  0.00    +0.000 C 
BRANCH  22  23
ATOM     23  C   UNL     1       1.078  12.363  20.557  0.00  0.00    +0.000 C 
ATOM     24  O   UNL     1       1.756  12.390  19.542  0.00  0.00    +0.000 OA
BRANCH  23  25
ATOM     25  O   UNL     1       1.289  13.237  21.578  0.00  0.00    +0.000 OA
ATOM     26  H   UNL     1       0.474  13.596  21.979  0.00  0.00    +0.000 HD
ENDBRANCH  23  25
ENDBRANCH  22  23
BRANCH  22  27
ATOM     27  C   UNL     1       0.491   9.874  21.023  0.00  0.00    +0.000 C 
BRANCH  27  29
ATOM     28  C   UNL     1      -0.687  10.104  23.210  0.00  0.00    +0.000 C 
ATOM     29  C   UNL     1       0.280   9.246  22.400  0.00  0.00    +0.000 C 
ENDBRANCH  27  29
ENDBRANCH  22  27
ENDBRANCH   1  22
TORSDOF 6
ENDMDL
MODEL 2
REMARK VINA RESULT:      -6.4      1.049      1.379
REMARK  Name = 
REMARK  8 active torsions:
REMARK  status: ('A' for Active; 'I' for Inactive)
REMARK    1  A    between atoms: C_1  and  C_2
REMARK    2  A    between atoms: C_2  and  C_3
REMARK    3  A    between atoms: C_3  and  C_4
REMARK    4  A    between atoms: C_4  and  C_5
REMARK    5  A    between atoms: C_4  and  C_8
REMARK    6  A    between atoms: C_5  and  O_7
REMARK    7  A    between atoms: C_9  and  C_10
REMARK    8  A    between atoms: C_17  and  C_18
REMARK                            x       y       z     vdW  Elec       q    Type
REMARK                         _______ _______ _______ _____ _____    ______ ____
ROOT
ATOM      1  C   UNL     1      -0.968  11.319  19.803  0.00  0.00    +0.000 A 
ATOM      2  C   UNL     1      -0.876  10.614  18.582  0.00  0.00    +0.000 A 
ATOM      3  C   UNL     1       0.325   9.840  18.096  0.00  0.00    +0.000 C 
ATOM      4  N   UNL     1      -1.850  10.583  17.676  0.00  0.00    +0.000 NA
ATOM      5  C   UNL     1      -2.981  11.230  17.970  0.00  0.00    +0.000 A 
ATOM      6  S   UNL     1      -4.233  11.152  16.830  0.00  0.00    +0.000 S 
ATOM      7  C   UNL     1      -5.264  12.059  17.813  0.00  0.00    +0.000 A 
ATOM      8  C   UNL     1      -4.654  12.480  18.993  0.00  0.00    +0.000 A 
ATOM      9  C   UNL     1      -3.268  11.972  19.114  0.00  0.00    +0.000 A 
ATOM     10  C   UNL     1      -2.192  12.035  20.087  0.00  0.00    +0.000 A 
ATOM     11  C   UNL     1      -5.475  13.302  19.962  0.00  0.00    +0.000 C 
ATOM     12  C   UNL     1      -6.752  13.891  19.341  0.00  0.00    +0.000 C 
ATOM     13  C   UNL     1      -7.509  12.842  18.536  0.00  0.00    +0.000 C 
ATOM     14  C   UNL     1      -6.662  12.349  17.368  0.00  0.00    +0.000 C 
ENDROOT
BRANCH  10  15
ATOM     15  C   UNL     1      -2.388  12.828  21.332  0.00  0.00    +0.000 A 
ATOM     16  C   UNL     1      -2.976  12.256  22.469  0.00  0.00    +0.000 A 
ATOM     17  C   UNL     1      -2.995  12.918  23.703  0.00  0.00    +0.000 A 
ATOM     18  C   UNL     1      -2.627  14.254  23.778  0.00  0.00    +0.000 A 
ATOM     19  C   UNL     1      -2.212  14.900  22.622  0.00  0.00    +0.000 A 
ATOM     20 CL   UNL     1      -1.978  16.604  22.634  0.00  0.00    +0.000 Cl
ATOM     21  C   UNL     1      -2.016  14.181  21.439  0.00  0.00    +0.000 A 
ENDBRANCH  10  15
BRANCH   1  22
ATOM     22  C   UNL     1       0.211  11.305  20.790  0.00  0.00    +0.000 C 
BRANCH  22  23
ATOM     23  C   UNL     1       1.262  12.363  20.476  0.00  0.00    +0.000 C 
ATOM     24  O   UNL     1       1.870  12.458  19.421  0.00  0.00    +0.000 OA
BRANCH  23  25
ATOM     25  O   UNL     1       1.531  13.181  21.530  0.00  0.00    +0.000 OA
ATOM     26  H   UNL     1       0.744  13.477  22.025  0.00  0.00    +0.000 HD
ENDBRANCH  23  25
ENDBRANCH  22  23
BRANCH  22  27
ATOM     27  C   UNL     1       0.750   9.856  20.928  0.00  0.00    +0.000 C 
BRANCH  27  29
ATOM     28  C   UNL     1      -0.306   9.743  23.185  0.00  0.00    +0.000 C 
ATOM     29  C   UNL     1       0.907   9.334  22.355  0.00  0.00    +0.000 C 
ENDBRANCH  27  29
ENDBRANCH  22  27
ENDBRANCH   1  22
TORSDOF 6
ENDMDL
MODEL 3
REMARK VINA RESULT:      -6.4      2.798      4.967
REMARK  Name = 
REMARK  8 active torsions:
REMARK  status: ('A' for Active; 'I' for Inactive)
REMARK    1  A    between atoms: C_1  and  C_2
REMARK    2  A    between atoms: C_2  and  C_3
REMARK    3  A    between atoms: C_3  and  C_4
REMARK    4  A    between atoms: C_4  and  C_5
REMARK    5  A    between atoms: C_4  and  C_8
REMARK    6  A    between atoms: C_5  and  O_7
REMARK    7  A    between atoms: C_9  and  C_10
REMARK    8  A    between atoms: C_17  and  C_18
REMARK                            x       y       z     vdW  Elec       q    Type
REMARK                         _______ _______ _______ _____ _____    ______ ____
ROOT
ATOM      1  C   UNL     1      -3.767  13.268  21.574  0.00  0.00    +0.000 A 
ATOM      2  C   UNL     1      -5.141  13.492  21.327  0.00  0.00    +0.000 A 
ATOM      3  C   UNL     1      -6.108  14.173  22.264  0.00  0.00    +0.000 C 
ATOM      4  N   UNL     1      -5.766  13.080  20.227  0.00  0.00    +0.000 NA
ATOM      5  C   UNL     1      -5.031  12.457  19.302  0.00  0.00    +0.000 A 
ATOM      6  S   UNL     1      -5.826  11.972  17.885  0.00  0.00    +0.000 S 
ATOM      7  C   UNL     1      -4.395  11.366  17.221  0.00  0.00    +0.000 A 
ATOM      8  C   UNL     1      -3.310  11.473  18.088  0.00  0.00    +0.000 A 
ATOM      9  C   UNL     1      -3.674  12.148  19.355  0.00  0.00    +0.000 A 
ATOM     10  C   UNL     1      -2.999  12.565  20.571  0.00  0.00    +0.000 A 
ATOM     11  C   UNL     1      -1.968  10.966  17.608  0.00  0.00    +0.000 C 
ATOM     12  C   UNL     1      -2.060  10.048  16.378  0.00  0.00    +0.000 C 
ATOM     13  C   UNL     1      -2.976  10.641  15.315  0.00  0.00    +0.000 C 
ATOM     14  C   UNL     1      -4.398  10.775  15.847  0.00  0.00    +0.000 C 
ENDROOT
BRANCH  10  15
ATOM     15  C   UNL     1      -1.551  12.257  20.737  0.00  0.00    +0.000 A 
ATOM     16  C   UNL     1      -0.567  13.079  20.170  0.00  0.00    +0.000 A 
ATOM     17  C   UNL     1       0.791  12.920  20.472  0.00  0.00    +0.000 A 
ATOM     18  C   UNL     1       1.219  11.800  21.171  0.00  0.00    +0.000 A 
ATOM     19  C   UNL     1       0.277  10.872  21.589  0.00  0.00    +0.000 A 
ATOM     20 CL   UNL     1       0.793   9.368  22.245  0.00  0.00    +0.000 Cl
ATOM     21  C   UNL     1      -1.089  11.135  21.449  0.00  0.00    +0.000 A 
ENDBRANCH  10  15
BRANCH   1  22
ATOM     22  C   UNL     1      -3.128  13.774  22.878  0.00  0.00    +0.000 C 
BRANCH  22  23
ATOM     23  C   UNL     1      -3.740  13.144  24.124  0.00  0.00    +0.000 C 
ATOM     24  O   UNL     1      -4.066  11.972  24.231  0.00  0.00    +0.000 OA
BRANCH  23  25
ATOM     25  O   UNL     1      -3.970  14.042  25.121  0.00  0.00    +0.000 OA
ATOM     26  H   UNL     1      -4.685  13.791  25.736  0.00  0.00    +0.000 HD
ENDBRANCH  23  25
ENDBRANCH  22  23
BRANCH  22  27
ATOM     27  C   UNL     1      -3.095  15.326  22.868  0.00  0.00    +0.000 C 
BRANCH  27  29
ATOM     28  C   UNL     1      -0.632  15.151  23.224  0.00  0.00    +0.000 C 
ATOM     29  C   UNL     1      -1.741  15.964  22.563  0.00  0.00    +0.000 C 
ENDBRANCH  27  29
ENDBRANCH  22  27
ENDBRANCH   1  22
TORSDOF 6
ENDMDL
MODEL 4
REMARK VINA RESULT:      -6.4      2.951      5.157
REMARK  Name = 
REMARK  8 active torsions:
REMARK  status: ('A' for Active; 'I' for Inactive)
REMARK    1  A    between atoms: C_1  and  C_2
REMARK    2  A    between atoms: C_2  and  C_3
REMARK    3  A    between atoms: C_3  and  C_4
REMARK    4  A    between atoms: C_4  and  C_5
REMARK    5  A    between atoms: C_4  and  C_8
REMARK    6  A    between atoms: C_5  and  O_7
REMARK    7  A    between atoms: C_9  and  C_10
REMARK    8  A    between atoms: C_17  and  C_18
REMARK                            x       y       z     vdW  Elec       q    Type
REMARK                         _______ _______ _______ _____ _____    ______ ____
ROOT
ATOM      1  C   UNL     1      -3.796  13.310  21.651  0.00  0.00    +0.000 A 
ATOM      2  C   UNL     1      -5.159  13.554  21.368  0.00  0.00    +0.000 A 
ATOM      3  C   UNL     1      -6.138  14.258  22.276  0.00  0.00    +0.000 C 
ATOM      4  N   UNL     1      -5.763  13.145  20.255  0.00  0.00    +0.000 NA
ATOM      5  C   UNL     1      -5.016  12.503  19.354  0.00  0.00    +0.000 A 
ATOM      6  S   UNL     1      -5.783  12.021  17.920  0.00  0.00    +0.000 S 
ATOM      7  C   UNL     1      -4.347  11.387  17.296  0.00  0.00    +0.000 A 
ATOM      8  C   UNL     1      -3.282  11.482  18.189  0.00  0.00    +0.000 A 
ATOM      9  C   UNL     1      -3.666  12.172  19.442  0.00  0.00    +0.000 A 
ATOM     10  C   UNL     1      -3.015  12.587  20.672  0.00  0.00    +0.000 A 
ATOM     11  C   UNL     1      -1.937  10.949  17.747  0.00  0.00    +0.000 C 
ATOM     12  C   UNL     1      -2.013  10.024  16.521  0.00  0.00    +0.000 C 
ATOM     13  C   UNL     1      -2.893  10.625  15.431  0.00  0.00    +0.000 C 
ATOM     14  C   UNL     1      -4.325  10.786  15.927  0.00  0.00    +0.000 C 
ENDROOT
BRANCH  10  15
ATOM     15  C   UNL     1      -1.577  12.256  20.877  0.00  0.00    +0.000 A 
ATOM     16  C   UNL     1      -1.193  11.121  21.606  0.00  0.00    +0.000 A 
ATOM     17  C   UNL     1       0.138  10.686  21.647  0.00  0.00    +0.000 A 
ATOM     18  C   UNL     1       1.147  11.496  21.146  0.00  0.00    +0.000 A 
ATOM     19  C   UNL     1       0.808  12.716  20.578  0.00  0.00    +0.000 A 
ATOM     20 CL   UNL     1       2.044  13.839  20.166  0.00  0.00    +0.000 Cl
ATOM     21  C   UNL     1      -0.534  13.053  20.372  0.00  0.00    +0.000 A 
ENDBRANCH  10  15
BRANCH   1  22
ATOM     22  C   UNL     1      -3.181  13.814  22.967  0.00  0.00    +0.000 C 
BRANCH  22  23
ATOM     23  C   UNL     1      -3.785  13.149  24.199  0.00  0.00    +0.000 C 
ATOM     24  O   UNL     1      -4.167  11.991  24.255  0.00  0.00    +0.000 OA
BRANCH  23  25
ATOM     25  O   UNL     1      -3.935  14.002  25.248  0.00  0.00    +0.000 OA
ATOM     26  H   UNL     1      -3.878  14.948  25.014  0.00  0.00    +0.000 HD
ENDBRANCH  23  25
ENDBRANCH  22  23
BRANCH  22  27
ATOM     27  C   UNL     1      -3.192  15.366  22.979  0.00  0.00    +0.000 C 
BRANCH  27  29
ATOM     28  C   UNL     1      -0.745  15.089  23.380  0.00  0.00    +0.000 C 
ATOM     29  C   UNL     1      -1.826  16.045  22.885  0.00  0.00    +0.000 C 
ENDBRANCH  27  29
ENDBRANCH  22  27
ENDBRANCH   1  22
TORSDOF 6
ENDMDL
MODEL 5
REMARK VINA RESULT:      -6.3      1.830      2.147
REMARK  Name = 
REMARK  8 active torsions:
REMARK  status: ('A' for Active; 'I' for Inactive)
REMARK    1  A    between atoms: C_1  and  C_2
REMARK    2  A    between atoms: C_2  and  C_3
REMARK    3  A    between atoms: C_3  and  C_4
REMARK    4  A    between atoms: C_4  and  C_5
REMARK    5  A    between atoms: C_4  and  C_8
REMARK    6  A    between atoms: C_5  and  O_7
REMARK    7  A    between atoms: C_9  and  C_10
REMARK    8  A    between atoms: C_17  and  C_18
REMARK                            x       y       z     vdW  Elec       q    Type
REMARK                         _______ _______ _______ _____ _____    ______ ____
ROOT
ATOM      1  C   UNL     1      -1.711  11.409  19.327  0.00  0.00    +0.000 A 
ATOM      2  C   UNL     1      -2.207  10.711  18.203  0.00  0.00    +0.000 A 
ATOM      3  C   UNL     1      -1.420   9.757  17.337  0.00  0.00    +0.000 C 
ATOM      4  N   UNL     1      -3.447  10.848  17.741  0.00  0.00    +0.000 NA
ATOM      5  C   UNL     1      -4.263  11.666  18.410  0.00  0.00    +0.000 A 
ATOM      6  S   UNL     1      -5.853  11.804  17.840  0.00  0.00    +0.000 S 
ATOM      7  C   UNL     1      -6.273  12.858  19.093  0.00  0.00    +0.000 A 
ATOM      8  C   UNL     1      -5.198  13.162  19.925  0.00  0.00    +0.000 A 
ATOM      9  C   UNL     1      -3.968  12.434  19.535  0.00  0.00    +0.000 A 
ATOM     10  C   UNL     1      -2.604  12.312  20.018  0.00  0.00    +0.000 A 
ATOM     11  C   UNL     1      -5.445  14.096  21.089  0.00  0.00    +0.000 C 
ATOM     12  C   UNL     1      -6.756  14.891  20.973  0.00  0.00    +0.000 C 
ATOM     13  C   UNL     1      -7.916  13.987  20.576  0.00  0.00    +0.000 C 
ATOM     14  C   UNL     1      -7.672  13.375  19.201  0.00  0.00    +0.000 C 
ENDROOT
BRANCH  10  15
ATOM     15  C   UNL     1      -2.181  13.114  21.200  0.00  0.00    +0.000 A 
ATOM     16  C   UNL     1      -2.341  12.622  22.503  0.00  0.00    +0.000 A 
ATOM     17  C   UNL     1      -1.779  13.269  23.610  0.00  0.00    +0.000 A 
ATOM     18  C   UNL     1      -1.234  14.537  23.468  0.00  0.00    +0.000 A 
ATOM     19  C   UNL     1      -1.228  15.127  22.213  0.00  0.00    +0.000 A 
ATOM     20 CL   UNL     1      -0.779  16.779  22.048  0.00  0.00    +0.000 Cl
ATOM     21  C   UNL     1      -1.617  14.397  21.085  0.00  0.00    +0.000 A 
ENDBRANCH  10  15
BRANCH   1  22
ATOM     22  C   UNL     1      -0.260  11.194  19.788  0.00  0.00    +0.000 C 
BRANCH  22  23
ATOM     23  C   UNL     1       0.764  11.546  18.714  0.00  0.00    +0.000 C 
ATOM     24  O   UNL     1       1.722  10.856  18.404  0.00  0.00    +0.000 OA
BRANCH  23  25
ATOM     25  O   UNL     1       0.557  12.771  18.158  0.00  0.00    +0.000 OA
ATOM     26  H   UNL     1      -0.314  13.165  18.357  0.00  0.00    +0.000 HD
ENDBRANCH  23  25
ENDBRANCH  22  23
BRANCH  22  27
ATOM     27  C   UNL     1      -0.118   9.773  20.397  0.00  0.00    +0.000 C 
BRANCH  27  29
ATOM     28  C   UNL     1      -0.368   9.586  22.873  0.00  0.00    +0.000 C 
ATOM     29  C   UNL     1       0.633   9.688  21.725  0.00  0.00    +0.000 C 
ENDBRANCH  27  29
ENDBRANCH  22  27
ENDBRANCH   1  22
TORSDOF 6
ENDMDL
MODEL 6
REMARK VINA RESULT:      -6.2      3.594      6.254
REMARK  Name = 
REMARK  8 active torsions:
REMARK  status: ('A' for Active; 'I' for Inactive)
REMARK    1  A    between atoms: C_1  and  C_2
REMARK    2  A    between atoms: C_2  and  C_3
REMARK    3  A    between atoms: C_3  and  C_4
REMARK    4  A    between atoms: C_4  and  C_5
REMARK    5  A    between atoms: C_4  and  C_8
REMARK    6  A    between atoms: C_5  and  O_7
REMARK    7  A    between atoms: C_9  and  C_10
REMARK    8  A    between atoms: C_17  and  C_18
REMARK                            x       y       z     vdW  Elec       q    Type
REMARK                         _______ _______ _______ _____ _____    ______ ____
ROOT
ATOM      1  C   UNL     1      -5.239  12.229  19.674  0.00  0.00    +0.000 A 
ATOM      2  C   UNL     1      -4.293  11.723  18.753  0.00  0.00    +0.000 A 
ATOM      3  C   UNL     1      -4.605  10.897  17.529  0.00  0.00    +0.000 C 
ATOM      4  N   UNL     1      -2.979  11.886  18.886  0.00  0.00    +0.000 NA
ATOM      5  C   UNL     1      -2.553  12.600  19.931  0.00  0.00    +0.000 A 
ATOM      6  S   UNL     1      -0.880  12.839  20.070  0.00  0.00    +0.000 S 
ATOM      7  C   UNL     1      -1.072  13.785  21.456  0.00  0.00    +0.000 A 
ATOM      8  C   UNL     1      -2.401  13.885  21.863  0.00  0.00    +0.000 A 
ATOM      9  C   UNL     1      -3.320  13.182  20.937  0.00  0.00    +0.000 A 
ATOM     10  C   UNL     1      -4.752  12.974  20.813  0.00  0.00    +0.000 A 
ATOM     11  C   UNL     1      -2.705  14.709  23.094  0.00  0.00    +0.000 C 
ATOM     12  C   UNL     1      -1.468  15.008  23.956  0.00  0.00    +0.000 C 
ATOM     13  C   UNL     1      -0.300  15.482  23.100  0.00  0.00    +0.000 C 
ATOM     14  C   UNL     1       0.123  14.392  22.121  0.00  0.00    +0.000 C 
ENDROOT
BRANCH  10  15
ATOM     15  C   UNL     1      -5.657  13.533  21.855  0.00  0.00    +0.000 A 
ATOM     16  C   UNL     1      -6.011  12.781  22.985  0.00  0.00    +0.000 A 
ATOM     17  C   UNL     1      -6.698  13.350  24.064  0.00  0.00    +0.000 A 
ATOM     18  C   UNL     1      -7.242  14.621  23.946  0.00  0.00    +0.000 A 
ATOM     19  C   UNL     1      -7.061  15.320  22.762  0.00  0.00    +0.000 A 
ATOM     20 CL   UNL     1      -7.916  16.789  22.498  0.00  0.00    +0.000 Cl
ATOM     21  C   UNL     1      -6.215  14.821  21.767  0.00  0.00    +0.000 A 
ENDBRANCH  10  15
BRANCH   1  22
ATOM     22  C   UNL     1      -6.740  11.987  19.445  0.00  0.00    +0.000 C 
BRANCH  22  23
ATOM     23  C   UNL     1      -7.188  10.590  19.862  0.00  0.00    +0.000 C 
ATOM     24  O   UNL     1      -7.285  10.199  21.015  0.00  0.00    +0.000 OA
BRANCH  23  25
ATOM     25  O   UNL     1      -7.409   9.761  18.806  0.00  0.00    +0.000 OA
ATOM     26  H   UNL     1      -6.689   9.742  18.147  0.00  0.00    +0.000 HD
ENDBRANCH  23  25
ENDBRANCH  22  23
BRANCH  22  27
ATOM     27  C   UNL     1      -7.113  12.397  17.995  0.00  0.00    +0.000 C 
BRANCH  27  29
ATOM     28  C   UNL     1      -6.927  14.884  17.931  0.00  0.00    +0.000 C 
ATOM     29  C   UNL     1      -7.891  13.704  17.849  0.00  0.00    +0.000 C 
ENDBRANCH  27  29
ENDBRANCH  22  27
ENDBRANCH   1  22
TORSDOF 6
ENDMDL
MODEL 7
REMARK VINA RESULT:      -6.2      1.187      2.025
REMARK  Name = 
REMARK  8 active torsions:
REMARK  status: ('A' for Active; 'I' for Inactive)
REMARK    1  A    between atoms: C_1  and  C_2
REMARK    2  A    between atoms: C_2  and  C_3
REMARK    3  A    between atoms: C_3  and  C_4
REMARK    4  A    between atoms: C_4  and  C_5
REMARK    5  A    between atoms: C_4  and  C_8
REMARK    6  A    between atoms: C_5  and  O_7
REMARK    7  A    between atoms: C_9  and  C_10
REMARK    8  A    between atoms: C_17  and  C_18
REMARK                            x       y       z     vdW  Elec       q    Type
REMARK                         _______ _______ _______ _____ _____    ______ ____
ROOT
ATOM      1  C   UNL     1      -1.161  11.381  19.893  0.00  0.00    +0.000 A 
ATOM      2  C   UNL     1      -1.007  10.678  18.677  0.00  0.00    +0.000 A 
ATOM      3  C   UNL     1       0.217   9.903  18.253  0.00  0.00    +0.000 C 
ATOM      4  N   UNL     1      -1.933  10.651  17.721  0.00  0.00    +0.000 NA
ATOM      5  C   UNL     1      -3.076  11.298  17.958  0.00  0.00    +0.000 A 
ATOM      6  S   UNL     1      -4.267  11.225  16.754  0.00  0.00    +0.000 S 
ATOM      7  C   UNL     1      -5.347  12.132  17.684  0.00  0.00    +0.000 A 
ATOM      8  C   UNL     1      -4.798  12.550  18.894  0.00  0.00    +0.000 A 
ATOM      9  C   UNL     1      -3.421  12.039  19.086  0.00  0.00    +0.000 A 
ATOM     10  C   UNL     1      -2.396  12.099  20.114  0.00  0.00    +0.000 A 
ATOM     11  C   UNL     1      -5.667  13.371  19.821  0.00  0.00    +0.000 C 
ATOM     12  C   UNL     1      -6.909  13.964  19.136  0.00  0.00    +0.000 C 
ATOM     13  C   UNL     1      -7.625  12.917  18.290  0.00  0.00    +0.000 C 
ATOM     14  C   UNL     1      -6.720  12.424  17.167  0.00  0.00    +0.000 C 
ENDROOT
BRANCH  10  15
ATOM     15  C   UNL     1      -2.657  12.891  21.349  0.00  0.00    +0.000 A 
ATOM     16  C   UNL     1      -2.165  14.196  21.488  0.00  0.00    +0.000 A 
ATOM     17  C   UNL     1      -2.556  15.024  22.548  0.00  0.00    +0.000 A 
ATOM     18  C   UNL     1      -3.271  14.493  23.612  0.00  0.00    +0.000 A 
ATOM     19  C   UNL     1      -3.616  13.150  23.585  0.00  0.00    +0.000 A 
ATOM     20 CL   UNL     1      -4.291  12.412  24.985  0.00  0.00    +0.000 Cl
ATOM     21  C   UNL     1      -3.387  12.382  22.438  0.00  0.00    +0.000 A 
ENDBRANCH  10  15
BRANCH   1  22
ATOM     22  C   UNL     1      -0.035  11.364  20.940  0.00  0.00    +0.000 C 
BRANCH  22  23
ATOM     23  C   UNL     1      -0.386  10.546  22.178  0.00  0.00    +0.000 C 
ATOM     24  O   UNL     1      -0.437  10.983  23.317  0.00  0.00    +0.000 OA
BRANCH  23  25
ATOM     25  O   UNL     1      -0.575   9.225  21.911  0.00  0.00    +0.000 OA
ATOM     26  H   UNL     1      -0.921   9.037  21.018  0.00  0.00    +0.000 HD
ENDBRANCH  23  25
ENDBRANCH  22  23
BRANCH  22  27
ATOM     27  C   UNL     1       0.433  12.817  21.217  0.00  0.00    +0.000 C 
BRANCH  27  29
ATOM     28  C   UNL     1       1.284  13.965  19.171  0.00  0.00    +0.000 C 
ATOM     29  C   UNL     1       1.687  13.270  20.469  0.00  0.00    +0.000 C 
ENDBRANCH  27  29
ENDBRANCH  22  27
ENDBRANCH   1  22
TORSDOF 6
ENDMDL
MODEL 8
REMARK VINA RESULT:      -6.1      2.713      4.245
REMARK  Name = 
REMARK  8 active torsions:
REMARK  status: ('A' for Active; 'I' for Inactive)
REMARK    1  A    between atoms: C_1  and  C_2
REMARK    2  A    between atoms: C_2  and  C_3
REMARK    3  A    between atoms: C_3  and  C_4
REMARK    4  A    between atoms: C_4  and  C_5
REMARK    5  A    between atoms: C_4  and  C_8
REMARK    6  A    between atoms: C_5  and  O_7
REMARK    7  A    between atoms: C_9  and  C_10
REMARK    8  A    between atoms: C_17  and  C_18
REMARK                            x       y       z     vdW  Elec       q    Type
REMARK                         _______ _______ _______ _____ _____    ______ ____
ROOT
ATOM      1  C   UNL     1      -2.922  12.755  22.630  0.00  0.00    +0.000 A 
ATOM      2  C   UNL     1      -4.054  12.765  23.476  0.00  0.00    +0.000 A 
ATOM      3  C   UNL     1      -4.031  12.849  24.983  0.00  0.00    +0.000 C 
ATOM      4  N   UNL     1      -5.304  12.659  23.032  0.00  0.00    +0.000 NA
ATOM      5  C   UNL     1      -5.480  12.575  21.712  0.00  0.00    +0.000 A 
ATOM      6  S   UNL     1      -7.077  12.482  21.151  0.00  0.00    +0.000 S 
ATOM      7  C   UNL     1      -6.572  12.463  19.539  0.00  0.00    +0.000 A 
ATOM      8  C   UNL     1      -5.185  12.471  19.407  0.00  0.00    +0.000 A 
ATOM      9  C   UNL     1      -4.503  12.554  20.719  0.00  0.00    +0.000 A 
ATOM     10  C   UNL     1      -3.136  12.634  21.205  0.00  0.00    +0.000 A 
ATOM     11  C   UNL     1      -4.606  12.458  18.010  0.00  0.00    +0.000 C 
ATOM     12  C   UNL     1      -5.618  12.047  16.928  0.00  0.00    +0.000 C 
ATOM     13  C   UNL     1      -6.941  12.781  17.102  0.00  0.00    +0.000 C 
ATOM     14  C   UNL     1      -7.583  12.420  18.437  0.00  0.00    +0.000 C 
ENDROOT
BRANCH  10  15
ATOM     15  C   UNL     1      -2.016  12.591  20.224  0.00  0.00    +0.000 A 
ATOM     16  C   UNL     1      -1.428  13.770  19.745  0.00  0.00    +0.000 A 
ATOM     17  C   UNL     1      -0.256  13.752  18.978  0.00  0.00    +0.000 A 
ATOM     18  C   UNL     1       0.230  12.549  18.486  0.00  0.00    +0.000 A 
ATOM     19  C   UNL     1      -0.442  11.376  18.798  0.00  0.00    +0.000 A 
ATOM     20 CL   UNL     1      -0.006   9.908  18.015  0.00  0.00    +0.000 Cl
ATOM     21  C   UNL     1      -1.496  11.386  19.717  0.00  0.00    +0.000 A 
ENDBRANCH  10  15
BRANCH   1  22
ATOM     22  C   UNL     1      -1.511  12.877  23.231  0.00  0.00    +0.000 C 
BRANCH  22  23
ATOM     23  C   UNL     1      -0.915  14.271  23.070  0.00  0.00    +0.000 C 
ATOM     24  O   UNL     1       0.244  14.508  22.766  0.00  0.00    +0.000 OA
BRANCH  23  25
ATOM     25  O   UNL     1      -1.790  15.266  23.375  0.00  0.00    +0.000 OA
ATOM     26  H   UNL     1      -2.378  15.529  22.641  0.00  0.00    +0.000 HD
ENDBRANCH  23  25
ENDBRANCH  22  23
BRANCH  22  27
ATOM     27  C   UNL     1      -0.627  11.713  22.708  0.00  0.00    +0.000 C 
BRANCH  27  29
ATOM     28  C   UNL     1       0.146   9.348  22.899  0.00  0.00    +0.000 C 
ATOM     29  C   UNL     1      -0.988  10.318  23.217  0.00  0.00    +0.000 C 
ENDBRANCH  27  29
ENDBRANCH  22  27
ENDBRANCH   1  22
TORSDOF 6
ENDMDL
MODEL 9
REMARK VINA RESULT:      -6.1      3.224      5.656
REMARK  Name = 
REMARK  8 active torsions:
REMARK  status: ('A' for Active; 'I' for Inactive)
REMARK    1  A    between atoms: C_1  and  C_2
REMARK    2  A    between atoms: C_2  and  C_3
REMARK    3  A    between atoms: C_3  and  C_4
REMARK    4  A    between atoms: C_4  and  C_5
REMARK    5  A    between atoms: C_4  and  C_8
REMARK    6  A    between atoms: C_5  and  O_7
REMARK    7  A    between atoms: C_9  and  C_10
REMARK    8  A    between atoms: C_17  and  C_18
REMARK                            x       y       z     vdW  Elec       q    Type
REMARK                         _______ _______ _______ _____ _____    ______ ____
ROOT
ATOM      1  C   UNL     1      -4.735  11.817  18.389  0.00  0.00    +0.000 A 
ATOM      2  C   UNL     1      -3.688  11.258  17.622  0.00  0.00    +0.000 A 
ATOM      3  C   UNL     1      -3.850  10.469  16.346  0.00  0.00    +0.000 C 
ATOM      4  N   UNL     1      -2.405  11.332  17.967  0.00  0.00    +0.000 NA
ATOM      5  C   UNL     1      -2.108  12.005  19.081  0.00  0.00    +0.000 A 
ATOM      6  S   UNL     1      -0.468  12.129  19.493  0.00  0.00    +0.000 S 
ATOM      7  C   UNL     1      -0.820  13.072  20.850  0.00  0.00    +0.000 A 
ATOM      8  C   UNL     1      -2.188  13.257  21.039  0.00  0.00    +0.000 A 
ATOM      9  C   UNL     1      -2.988  12.627  19.964  0.00  0.00    +0.000 A 
ATOM     10  C   UNL     1      -4.392  12.516  19.607  0.00  0.00    +0.000 A 
ATOM     11  C   UNL     1      -2.633  14.087  22.223  0.00  0.00    +0.000 C 
ATOM     12  C   UNL     1      -1.535  14.293  23.279  0.00  0.00    +0.000 C 
ATOM     13  C   UNL     1      -0.216  14.696  22.631  0.00  0.00    +0.000 C 
ATOM     14  C   UNL     1       0.288  13.590  21.710  0.00  0.00    +0.000 C 
ENDROOT
BRANCH  10  15
ATOM     15  C   UNL     1      -5.416  13.124  20.501  0.00  0.00    +0.000 A 
ATOM     16  C   UNL     1      -5.816  14.458  20.341  0.00  0.00    +0.000 A 
ATOM     17  C   UNL     1      -6.907  14.990  21.039  0.00  0.00    +0.000 A 
ATOM     18  C   UNL     1      -7.484  14.270  22.075  0.00  0.00    +0.000 A 
ATOM     19  C   UNL     1      -6.984  13.011  22.376  0.00  0.00    +0.000 A 
ATOM     20 CL   UNL     1      -7.517  12.198  23.795  0.00  0.00    +0.000 Cl
ATOM     21  C   UNL     1      -6.025  12.414  21.552  0.00  0.00    +0.000 A 
ENDBRANCH  10  15
BRANCH   1  22
ATOM     22  C   UNL     1      -6.192  11.679  17.917  0.00  0.00    +0.000 C 
BRANCH  22  23
ATOM     23  C   UNL     1      -6.771  12.984  17.381  0.00  0.00    +0.000 C 
ATOM     24  O   UNL     1      -6.254  13.680  16.521  0.00  0.00    +0.000 OA
BRANCH  23  25
ATOM     25  O   UNL     1      -7.915  13.362  18.013  0.00  0.00    +0.000 OA
ATOM     26  H   UNL     1      -7.826  13.478  18.978  0.00  0.00    +0.000 HD
ENDBRANCH  23  25
ENDBRANCH  22  23
BRANCH  22  27
ATOM     27  C   UNL     1      -7.030  10.989  19.026  0.00  0.00    +0.000 C 
BRANCH  27  29
ATOM     28  C   UNL     1      -7.566   9.001  20.436  0.00  0.00    +0.000 C 
ATOM     29  C   UNL     1      -6.751   9.503  19.248  0.00  0.00    +0.000 C 
ENDBRANCH  27  29
ENDBRANCH  22  27
ENDBRANCH   1  22
TORSDOF 6
ENDMDL
