MODEL 1
REMARK VINA RESULT:      -7.5      0.000      0.000
REMARK  Name = 
REMARK  10 active torsions:
REMARK  status: ('A' for Active; 'I' for Inactive)
REMARK    1  A    between atoms: C_1  and  C_2
REMARK    2  A    between atoms: C_2  and  C_3
REMARK    3  A    between atoms: C_3  and  C_4
REMARK    4  A    between atoms: C_4  and  N_5
REMARK    5  A    between atoms: C_7  and  C_8
REMARK    6  A    between atoms: C_8  and  O_9
REMARK    7  A    between atoms: O_9  and  C_10
REMARK    8  A    between atoms: C_10  and  C_12
REMARK    9  A    between atoms: C_12  and  C_13
REMARK   10  A    between atoms: C_13  and  C_14
REMARK                            x       y       z     vdW  Elec       q    Type
REMARK                         _______ _______ _______ _____ _____    ______ ____
ROOT
ATOM      1  N   UNL     1       4.660   5.552  17.342  0.00  0.00    +0.000 NA
ATOM      2  C   UNL     1       4.048   6.918  17.579  0.00  0.00    +0.000 C 
ATOM      3  C   UNL     1       2.646   6.886  18.218  0.00  0.00    +0.000 C 
ATOM      4  O   UNL     1       2.679   6.408  19.581  0.00  0.00    +0.000 OA
ATOM      5  C   UNL     1       2.475   5.057  19.646  0.00  0.00    +0.000 A 
ATOM      6  C   UNL     1       1.253   4.608  20.149  0.00  0.00    +0.000 A 
ATOM      7  C   UNL     1       0.989   3.239  20.232  0.00  0.00    +0.000 A 
ATOM      8  C   UNL     1       1.949   2.321  19.813  0.00  0.00    +0.000 A 
ATOM      9  C   UNL     1       3.180   2.774  19.345  0.00  0.00    +0.000 A 
ATOM     10  F   UNL     1       4.067   1.844  18.968  0.00  0.00    +0.000 F 
ATOM     11  C   UNL     1       3.451   4.139  19.282  0.00  0.00    +0.000 A 
ATOM     12  S   UNL     1       5.036   4.706  18.803  0.00  0.00    +0.000 S 
ATOM     13  O   UNL     1       5.843   3.549  18.524  0.00  0.00    +0.000 OA
ATOM     14  O   UNL     1       5.497   5.681  19.770  0.00  0.00    +0.000 OA
ENDROOT
BRANCH   1  15
ATOM     15  C   UNL     1       5.739   5.630  16.302  0.00  0.00    +0.000 C 
BRANCH  15  16
ATOM     16  C   UNL     1       5.331   5.090  14.933  0.00  0.00    +0.000 C 
BRANCH  16  18
ATOM     17  C   UNL     1       6.035   3.612  13.008  0.00  0.00    +0.000 C 
ATOM     18  C   UNL     1       6.243   3.950  14.471  0.00  0.00    +0.000 C 
ENDBRANCH  16  18
ENDBRANCH  15  16
ENDBRANCH   1  15
BRANCH   3  19
ATOM     19  C   UNL     1       2.100   8.331  18.276  0.00  0.00    +0.000 C 
BRANCH  19  20
ATOM     20  O   UNL     1       1.707   8.704  19.613  0.00  0.00    +0.000 OA
BRANCH  20  21
ATOM     21  C   UNL     1       0.611   9.503  19.690  0.00  0.00    +0.000 C 
ATOM     22  O   UNL     1       0.025   9.766  20.730  0.00  0.00    +0.000 OA
BRANCH  21  23
ATOM     23  C   UNL     1       0.212  10.007  18.325  0.00  0.00    +0.000 C 
BRANCH  23  24
ATOM     24  C   UNL     1      -1.278  10.349  18.307  0.00  0.00    +0.000 C 
ATOM     25  C   UNL     1      -1.950   9.943  17.006  0.00  0.00    +0.000 C 
ENDBRANCH  23  24
ENDBRANCH  21  23
ENDBRANCH  20  21
ENDBRANCH  19  20
ENDBRANCH   3  19
TORSDOF 8
ENDMDL
MODEL 2
REMARK VINA RESULT:      -7.5      1.029      1.554
REMARK  Name = 
REMARK  10 active torsions:
REMARK  status: ('A' for Active; 'I' for Inactive)
REMARK    1  A    between atoms: C_1  and  C_2
REMARK    2  A    between atoms: C_2  and  C_3
REMARK    3  A    between atoms: C_3  and  C_4
REMARK    4  A    between atoms: C_4  and  N_5
REMARK    5  A    between atoms: C_7  and  C_8
REMARK    6  A    between atoms: C_8  and  O_9
REMARK    7  A    between atoms: O_9  and  C_10
REMARK    8  A    between atoms: C_10  and  C_12
REMARK    9  A    between atoms: C_12  and  C_13
REMARK   10  A    between atoms: C_13  and  C_14
REMARK                            x       y       z     vdW  Elec       q    Type
REMARK                         _______ _______ _______ _____ _____    ______ ____
ROOT
ATOM      1  N   UNL     1       4.602   5.454  17.330  0.00  0.00    +0.000 NA
ATOM      2  C   UNL     1       4.045   6.855  17.485  0.00  0.00    +0.000 C 
ATOM      3  C   UNL     1       2.702   6.927  18.238  0.00  0.00    +0.000 C 
ATOM      4  O   UNL     1       2.840   6.578  19.633  0.00  0.00    +0.000 OA
ATOM      5  C   UNL     1       2.610   5.246  19.843  0.00  0.00    +0.000 A 
ATOM      6  C   UNL     1       1.425   4.885  20.486  0.00  0.00    +0.000 A 
ATOM      7  C   UNL     1       1.137   3.539  20.722  0.00  0.00    +0.000 A 
ATOM      8  C   UNL     1       2.036   2.555  20.315  0.00  0.00    +0.000 A 
ATOM      9  C   UNL     1       3.232   2.924  19.705  0.00  0.00    +0.000 A 
ATOM     10  F   UNL     1       4.062   1.935  19.348  0.00  0.00    +0.000 F 
ATOM     11  C   UNL     1       3.529   4.267  19.490  0.00  0.00    +0.000 A 
ATOM     12  S   UNL     1       5.081   4.736  18.830  0.00  0.00    +0.000 S 
ATOM     13  O   UNL     1       5.833   3.533  18.597  0.00  0.00    +0.000 OA
ATOM     14  O   UNL     1       5.645   5.782  19.657  0.00  0.00    +0.000 OA
ENDROOT
BRANCH   1  15
ATOM     15  C   UNL     1       5.590   5.399  16.202  0.00  0.00    +0.000 C 
BRANCH  15  16
ATOM     16  C   UNL     1       5.289   4.329  15.155  0.00  0.00    +0.000 C 
BRANCH  16  18
ATOM     17  C   UNL     1       5.899   3.554  12.828  0.00  0.00    +0.000 C 
ATOM     18  C   UNL     1       6.382   4.249  14.087  0.00  0.00    +0.000 C 
ENDBRANCH  16  18
ENDBRANCH  15  16
ENDBRANCH   1  15
BRANCH   3  19
ATOM     19  C   UNL     1       2.197   8.387  18.201  0.00  0.00    +0.000 C 
BRANCH  19  20
ATOM     20  O   UNL     1       1.536   8.757  19.429  0.00  0.00    +0.000 OA
BRANCH  20  21
ATOM     21  C   UNL     1       0.925   9.971  19.411  0.00  0.00    +0.000 C 
ATOM     22  O   UNL     1       1.387  10.964  18.868  0.00  0.00    +0.000 OA
BRANCH  21  23
ATOM     23  C   UNL     1      -0.385   9.929  20.158  0.00  0.00    +0.000 C 
BRANCH  23  24
ATOM     24  C   UNL     1      -0.194  10.445  21.584  0.00  0.00    +0.000 C 
ATOM     25  C   UNL     1      -0.152   9.322  22.606  0.00  0.00    +0.000 C 
ENDBRANCH  23  24
ENDBRANCH  21  23
ENDBRANCH  20  21
ENDBRANCH  19  20
ENDBRANCH   3  19
TORSDOF 8
ENDMDL
MODEL 3
REMARK VINA RESULT:      -7.3      1.441      2.359
REMARK  Name = 
REMARK  10 active torsions:
REMARK  status: ('A' for Active; 'I' for Inactive)
REMARK    1  A    between atoms: C_1  and  C_2
REMARK    2  A    between atoms: C_2  and  C_3
REMARK    3  A    between atoms: C_3  and  C_4
REMARK    4  A    between atoms: C_4  and  N_5
REMARK    5  A    between atoms: C_7  and  C_8
REMARK    6  A    between atoms: C_8  and  O_9
REMARK    7  A    between atoms: O_9  and  C_10
REMARK    8  A    between atoms: C_10  and  C_12
REMARK    9  A    between atoms: C_12  and  C_13
REMARK   10  A    between atoms: C_13  and  C_14
REMARK                            x       y       z     vdW  Elec       q    Type
REMARK                         _______ _______ _______ _____ _____    ______ ____
ROOT
ATOM      1  N   UNL     1       4.492   5.313  17.455  0.00  0.00    +0.000 NA
ATOM      2  C   UNL     1       3.947   6.719  17.605  0.00  0.00    +0.000 C 
ATOM      3  C   UNL     1       2.597   6.805  18.344  0.00  0.00    +0.000 C 
ATOM      4  O   UNL     1       2.717   6.452  19.740  0.00  0.00    +0.000 OA
ATOM      5  C   UNL     1       2.471   5.123  19.946  0.00  0.00    +0.000 A 
ATOM      6  C   UNL     1       1.275   4.773  20.576  0.00  0.00    +0.000 A 
ATOM      7  C   UNL     1       0.971   3.429  20.807  0.00  0.00    +0.000 A 
ATOM      8  C   UNL     1       1.865   2.437  20.408  0.00  0.00    +0.000 A 
ATOM      9  C   UNL     1       3.072   2.794  19.813  0.00  0.00    +0.000 A 
ATOM     10  F   UNL     1       3.895   1.798  19.463  0.00  0.00    +0.000 F 
ATOM     11  C   UNL     1       3.384   4.135  19.601  0.00  0.00    +0.000 A 
ATOM     12  S   UNL     1       4.948   4.589  18.959  0.00  0.00    +0.000 S 
ATOM     13  O   UNL     1       5.690   3.379  18.733  0.00  0.00    +0.000 OA
ATOM     14  O   UNL     1       5.513   5.629  19.794  0.00  0.00    +0.000 OA
ENDROOT
BRANCH   1  15
ATOM     15  C   UNL     1       5.491   5.250  16.338  0.00  0.00    +0.000 C 
BRANCH  15  16
ATOM     16  C   UNL     1       6.320   6.522  16.163  0.00  0.00    +0.000 C 
BRANCH  16  18
ATOM     17  C   UNL     1       7.771   7.958  17.653  0.00  0.00    +0.000 C 
ATOM     18  C   UNL     1       7.515   6.562  17.118  0.00  0.00    +0.000 C 
ENDBRANCH  16  18
ENDBRANCH  15  16
ENDBRANCH   1  15
BRANCH   3  19
ATOM     19  C   UNL     1       2.107   8.270  18.303  0.00  0.00    +0.000 C 
BRANCH  19  20
ATOM     20  O   UNL     1       1.500   8.667  19.550  0.00  0.00    +0.000 OA
BRANCH  20  21
ATOM     21  C   UNL     1       0.888   9.880  19.532  0.00  0.00    +0.000 C 
ATOM     22  O   UNL     1       0.995  10.690  18.622  0.00  0.00    +0.000 OA
BRANCH  21  23
ATOM     23  C   UNL     1       0.074  10.094  20.784  0.00  0.00    +0.000 C 
BRANCH  23  24
ATOM     24  C   UNL     1       0.754   9.420  21.975  0.00  0.00    +0.000 C 
ATOM     25  C   UNL     1      -0.099   9.462  23.231  0.00  0.00    +0.000 C 
ENDBRANCH  23  24
ENDBRANCH  21  23
ENDBRANCH  20  21
ENDBRANCH  19  20
ENDBRANCH   3  19
TORSDOF 8
ENDMDL
MODEL 4
REMARK VINA RESULT:      -7.3      0.998      1.649
REMARK  Name = 
REMARK  10 active torsions:
REMARK  status: ('A' for Active; 'I' for Inactive)
REMARK    1  A    between atoms: C_1  and  C_2
REMARK    2  A    between atoms: C_2  and  C_3
REMARK    3  A    between atoms: C_3  and  C_4
REMARK    4  A    between atoms: C_4  and  N_5
REMARK    5  A    between atoms: C_7  and  C_8
REMARK    6  A    between atoms: C_8  and  O_9
REMARK    7  A    between atoms: O_9  and  C_10
REMARK    8  A    between atoms: C_10  and  C_12
REMARK    9  A    between atoms: C_12  and  C_13
REMARK   10  A    between atoms: C_13  and  C_14
REMARK                            x       y       z     vdW  Elec       q    Type
REMARK                         _______ _______ _______ _____ _____    ______ ____
ROOT
ATOM      1  N   UNL     1       4.421   5.422  17.419  0.00  0.00    +0.000 NA
ATOM      2  C   UNL     1       3.873   6.817  17.647  0.00  0.00    +0.000 C 
ATOM      3  C   UNL     1       2.525   6.858  18.392  0.00  0.00    +0.000 C 
ATOM      4  O   UNL     1       2.649   6.430  19.767  0.00  0.00    +0.000 OA
ATOM      5  C   UNL     1       2.407   5.091  19.901  0.00  0.00    +0.000 A 
ATOM      6  C   UNL     1       1.214   4.704  20.513  0.00  0.00    +0.000 A 
ATOM      7  C   UNL     1       0.913   3.349  20.672  0.00  0.00    +0.000 A 
ATOM      8  C   UNL     1       1.809   2.383  20.218  0.00  0.00    +0.000 A 
ATOM      9  C   UNL     1       3.013   2.775  19.639  0.00  0.00    +0.000 A 
ATOM     10  F   UNL     1       3.838   1.801  19.234  0.00  0.00    +0.000 F 
ATOM     11  C   UNL     1       3.322   4.126  19.501  0.00  0.00    +0.000 A 
ATOM     12  S   UNL     1       4.882   4.619  18.881  0.00  0.00    +0.000 S 
ATOM     13  O   UNL     1       5.628   3.425  18.588  0.00  0.00    +0.000 OA
ATOM     14  O   UNL     1       5.447   5.613  19.770  0.00  0.00    +0.000 OA
ENDROOT
BRANCH   1  15
ATOM     15  C   UNL     1       5.418   5.423  16.298  0.00  0.00    +0.000 C 
BRANCH  15  16
ATOM     16  C   UNL     1       6.255   6.697  16.202  0.00  0.00    +0.000 C 
BRANCH  16  18
ATOM     17  C   UNL     1       7.805   8.065  17.656  0.00  0.00    +0.000 C 
ATOM     18  C   UNL     1       7.444   6.675  17.167  0.00  0.00    +0.000 C 
ENDBRANCH  16  18
ENDBRANCH  15  16
ENDBRANCH   1  15
BRANCH   3  19
ATOM     19  C   UNL     1       2.031   8.322  18.433  0.00  0.00    +0.000 C 
BRANCH  19  20
ATOM     20  O   UNL     1       1.491   8.670  19.724  0.00  0.00    +0.000 OA
BRANCH  20  21
ATOM     21  C   UNL     1       0.582   9.680  19.715  0.00  0.00    +0.000 C 
ATOM     22  O   UNL     1       0.136  10.212  20.721  0.00  0.00    +0.000 OA
BRANCH  21  23
ATOM     23  C   UNL     1       0.191  10.044  18.303  0.00  0.00    +0.000 C 
BRANCH  23  24
ATOM     24  C   UNL     1      -1.168  10.743  18.298  0.00  0.00    +0.000 C 
ATOM     25  C   UNL     1      -2.220   9.960  17.531  0.00  0.00    +0.000 C 
ENDBRANCH  23  24
ENDBRANCH  21  23
ENDBRANCH  20  21
ENDBRANCH  19  20
ENDBRANCH   3  19
TORSDOF 8
ENDMDL
MODEL 5
REMARK VINA RESULT:      -7.1      1.157      1.556
REMARK  Name = 
REMARK  10 active torsions:
REMARK  status: ('A' for Active; 'I' for Inactive)
REMARK    1  A    between atoms: C_1  and  C_2
REMARK    2  A    between atoms: C_2  and  C_3
REMARK    3  A    between atoms: C_3  and  C_4
REMARK    4  A    between atoms: C_4  and  N_5
REMARK    5  A    between atoms: C_7  and  C_8
REMARK    6  A    between atoms: C_8  and  O_9
REMARK    7  A    between atoms: O_9  and  C_10
REMARK    8  A    between atoms: C_10  and  C_12
REMARK    9  A    between atoms: C_12  and  C_13
REMARK   10  A    between atoms: C_13  and  C_14
REMARK                            x       y       z     vdW  Elec       q    Type
REMARK                         _______ _______ _______ _____ _____    ______ ____
ROOT
ATOM      1  N   UNL     1       4.612   5.471  17.302  0.00  0.00    +0.000 NA
ATOM      2  C   UNL     1       4.084   6.880  17.476  0.00  0.00    +0.000 C 
ATOM      3  C   UNL     1       2.741   6.970  18.229  0.00  0.00    +0.000 C 
ATOM      4  O   UNL     1       2.870   6.597  19.619  0.00  0.00    +0.000 OA
ATOM      5  C   UNL     1       2.612   5.268  19.810  0.00  0.00    +0.000 A 
ATOM      6  C   UNL     1       1.419   4.922  20.446  0.00  0.00    +0.000 A 
ATOM      7  C   UNL     1       1.102   3.579  20.662  0.00  0.00    +0.000 A 
ATOM      8  C   UNL     1       1.981   2.583  20.242  0.00  0.00    +0.000 A 
ATOM      9  C   UNL     1       3.186   2.935  19.639  0.00  0.00    +0.000 A 
ATOM     10  F   UNL     1       3.995   1.935  19.268  0.00  0.00    +0.000 F 
ATOM     11  C   UNL     1       3.511   4.276  19.443  0.00  0.00    +0.000 A 
ATOM     12  S   UNL     1       5.073   4.721  18.792  0.00  0.00    +0.000 S 
ATOM     13  O   UNL     1       5.801   3.507  18.543  0.00  0.00    +0.000 OA
ATOM     14  O   UNL     1       5.658   5.744  19.635  0.00  0.00    +0.000 OA
ENDROOT
BRANCH   1  15
ATOM     15  C   UNL     1       5.600   5.412  16.175  0.00  0.00    +0.000 C 
BRANCH  15  16
ATOM     16  C   UNL     1       5.323   4.309  15.154  0.00  0.00    +0.000 C 
BRANCH  16  18
ATOM     17  C   UNL     1       5.948   3.554  12.825  0.00  0.00    +0.000 C 
ATOM     18  C   UNL     1       6.432   4.210  14.104  0.00  0.00    +0.000 C 
ENDBRANCH  16  18
ENDBRANCH  15  16
ENDBRANCH   1  15
BRANCH   3  19
ATOM     19  C   UNL     1       2.268   8.441  18.213  0.00  0.00    +0.000 C 
BRANCH  19  20
ATOM     20  O   UNL     1       1.514   8.775  19.396  0.00  0.00    +0.000 OA
BRANCH  20  21
ATOM     21  C   UNL     1       0.645   9.810  19.254  0.00  0.00    +0.000 C 
ATOM     22  O   UNL     1      -0.061   9.982  18.271  0.00  0.00    +0.000 OA
BRANCH  21  23
ATOM     23  C   UNL     1       0.682  10.717  20.458  0.00  0.00    +0.000 C 
BRANCH  23  24
ATOM     24  C   UNL     1       1.254  12.081  20.072  0.00  0.00    +0.000 C 
ATOM     25  C   UNL     1       0.779  13.191  20.993  0.00  0.00    +0.000 C 
ENDBRANCH  23  24
ENDBRANCH  21  23
ENDBRANCH  20  21
ENDBRANCH  19  20
ENDBRANCH   3  19
TORSDOF 8
ENDMDL
MODEL 6
REMARK VINA RESULT:      -7.0      2.089      2.700
REMARK  Name = 
REMARK  10 active torsions:
REMARK  status: ('A' for Active; 'I' for Inactive)
REMARK    1  A    between atoms: C_1  and  C_2
REMARK    2  A    between atoms: C_2  and  C_3
REMARK    3  A    between atoms: C_3  and  C_4
REMARK    4  A    between atoms: C_4  and  N_5
REMARK    5  A    between atoms: C_7  and  C_8
REMARK    6  A    between atoms: C_8  and  O_9
REMARK    7  A    between atoms: O_9  and  C_10
REMARK    8  A    between atoms: C_10  and  C_12
REMARK    9  A    between atoms: C_12  and  C_13
REMARK   10  A    between atoms: C_13  and  C_14
REMARK                            x       y       z     vdW  Elec       q    Type
REMARK                         _______ _______ _______ _____ _____    ______ ____
ROOT
ATOM      1  N   UNL     1       4.035   5.966  17.565  0.00  0.00    +0.000 NA
ATOM      2  C   UNL     1       3.555   7.144  18.389  0.00  0.00    +0.000 C 
ATOM      3  C   UNL     1       2.256   6.884  19.176  0.00  0.00    +0.000 C 
ATOM      4  O   UNL     1       2.446   5.921  20.237  0.00  0.00    +0.000 OA
ATOM      5  C   UNL     1       2.162   4.650  19.820  0.00  0.00    +0.000 A 
ATOM      6  C   UNL     1       0.994   4.055  20.299  0.00  0.00    +0.000 A 
ATOM      7  C   UNL     1       0.653   2.760  19.901  0.00  0.00    +0.000 A 
ATOM      8  C   UNL     1       1.482   2.062  19.026  0.00  0.00    +0.000 A 
ATOM      9  C   UNL     1       2.663   2.648  18.579  0.00  0.00    +0.000 A 
ATOM     10  F   UNL     1       3.425   1.924  17.750  0.00  0.00    +0.000 F 
ATOM     11  C   UNL     1       3.014   3.931  18.993  0.00  0.00    +0.000 A 
ATOM     12  S   UNL     1       4.552   4.622  18.525  0.00  0.00    +0.000 S 
ATOM     13  O   UNL     1       5.233   3.652  17.711  0.00  0.00    +0.000 OA
ATOM     14  O   UNL     1       5.207   5.151  19.704  0.00  0.00    +0.000 OA
ENDROOT
BRANCH   1  15
ATOM     15  C   UNL     1       4.963   6.424  16.478  0.00  0.00    +0.000 C 
BRANCH  15  16
ATOM     16  C   UNL     1       5.943   7.514  16.906  0.00  0.00    +0.000 C 
BRANCH  16  18
ATOM     17  C   UNL     1       8.093   7.952  18.159  0.00  0.00    +0.000 C 
ATOM     18  C   UNL     1       7.269   6.931  17.399  0.00  0.00    +0.000 C 
ENDBRANCH  16  18
ENDBRANCH  15  16
ENDBRANCH   1  15
BRANCH   3  19
ATOM     19  C   UNL     1       1.822   8.202  19.855  0.00  0.00    +0.000 C 
BRANCH  19  20
ATOM     20  O   UNL     1       1.012   7.963  21.024  0.00  0.00    +0.000 OA
BRANCH  20  21
ATOM     21  C   UNL     1       0.954   8.994  21.906  0.00  0.00    +0.000 C 
ATOM     22  O   UNL     1       1.876   9.324  22.639  0.00  0.00    +0.000 OA
BRANCH  21  23
ATOM     23  C   UNL     1      -0.397   9.664  21.868  0.00  0.00    +0.000 C 
BRANCH  23  24
ATOM     24  C   UNL     1      -0.566  10.577  23.083  0.00  0.00    +0.000 C 
ATOM     25  C   UNL     1      -1.778  11.484  22.962  0.00  0.00    +0.000 C 
ENDBRANCH  23  24
ENDBRANCH  21  23
ENDBRANCH  20  21
ENDBRANCH  19  20
ENDBRANCH   3  19
TORSDOF 8
ENDMDL
MODEL 7
REMARK VINA RESULT:      -7.0      2.743      6.629
REMARK  Name = 
REMARK  10 active torsions:
REMARK  status: ('A' for Active; 'I' for Inactive)
REMARK    1  A    between atoms: C_1  and  C_2
REMARK    2  A    between atoms: C_2  and  C_3
REMARK    3  A    between atoms: C_3  and  C_4
REMARK    4  A    between atoms: C_4  and  N_5
REMARK    5  A    between atoms: C_7  and  C_8
REMARK    6  A    between atoms: C_8  and  O_9
REMARK    7  A    between atoms: O_9  and  C_10
REMARK    8  A    between atoms: C_10  and  C_12
REMARK    9  A    between atoms: C_12  and  C_13
REMARK   10  A    between atoms: C_13  and  C_14
REMARK                            x       y       z     vdW  Elec       q    Type
REMARK                         _______ _______ _______ _____ _____    ______ ____
ROOT
ATOM      1  N   UNL     1       3.949   3.346  18.116  0.00  0.00    +0.000 NA
ATOM      2  C   UNL     1       4.900   3.445  16.940  0.00  0.00    +0.000 C 
ATOM      3  C   UNL     1       4.808   4.769  16.156  0.00  0.00    +0.000 C 
ATOM      4  O   UNL     1       5.279   5.894  16.931  0.00  0.00    +0.000 OA
ATOM      5  C   UNL     1       4.258   6.504  17.606  0.00  0.00    +0.000 A 
ATOM      6  C   UNL     1       3.836   7.755  17.155  0.00  0.00    +0.000 A 
ATOM      7  C   UNL     1       2.793   8.420  17.805  0.00  0.00    +0.000 A 
ATOM      8  C   UNL     1       2.175   7.832  18.907  0.00  0.00    +0.000 A 
ATOM      9  C   UNL     1       2.625   6.599  19.373  0.00  0.00    +0.000 A 
ATOM     10  F   UNL     1       2.000   6.090  20.443  0.00  0.00    +0.000 F 
ATOM     11  C   UNL     1       3.678   5.946  18.738  0.00  0.00    +0.000 A 
ATOM     12  S   UNL     1       4.318   4.454  19.393  0.00  0.00    +0.000 S 
ATOM     13  O   UNL     1       3.559   4.139  20.572  0.00  0.00    +0.000 OA
ATOM     14  O   UNL     1       5.760   4.561  19.479  0.00  0.00    +0.000 OA
ENDROOT
BRANCH   1  15
ATOM     15  C   UNL     1       3.732   1.912  18.501  0.00  0.00    +0.000 C 
BRANCH  15  16
ATOM     16  C   UNL     1       2.264   1.518  18.653  0.00  0.00    +0.000 C 
BRANCH  16  18
ATOM     17  C   UNL     1       0.605   3.123  19.682  0.00  0.00    +0.000 C 
ATOM     18  C   UNL     1       1.325   2.703  18.415  0.00  0.00    +0.000 C 
ENDBRANCH  16  18
ENDBRANCH  15  16
ENDBRANCH   1  15
BRANCH   3  19
ATOM     19  C   UNL     1       5.730   4.672  14.920  0.00  0.00    +0.000 C 
BRANCH  19  20
ATOM     20  O   UNL     1       5.042   4.123  13.778  0.00  0.00    +0.000 OA
BRANCH  20  21
ATOM     21  C   UNL     1       5.846   3.711  12.764  0.00  0.00    +0.000 C 
ATOM     22  O   UNL     1       7.040   3.964  12.688  0.00  0.00    +0.000 OA
BRANCH  21  23
ATOM     23  C   UNL     1       5.068   2.916  11.745  0.00  0.00    +0.000 C 
BRANCH  23  24
ATOM     24  C   UNL     1       4.024   3.805  11.069  0.00  0.00    +0.000 C 
ATOM     25  C   UNL     1       3.058   3.012  10.207  0.00  0.00    +0.000 C 
ENDBRANCH  23  24
ENDBRANCH  21  23
ENDBRANCH  20  21
ENDBRANCH  19  20
ENDBRANCH   3  19
TORSDOF 8
ENDMDL
MODEL 8
REMARK VINA RESULT:      -6.9      1.081      1.120
REMARK  Name = 
REMARK  10 active torsions:
REMARK  status: ('A' for Active; 'I' for Inactive)
REMARK    1  A    between atoms: C_1  and  C_2
REMARK    2  A    between atoms: C_2  and  C_3
REMARK    3  A    between atoms: C_3  and  C_4
REMARK    4  A    between atoms: C_4  and  N_5
REMARK    5  A    between atoms: C_7  and  C_8
REMARK    6  A    between atoms: C_8  and  O_9
REMARK    7  A    between atoms: O_9  and  C_10
REMARK    8  A    between atoms: C_10  and  C_12
REMARK    9  A    between atoms: C_12  and  C_13
REMARK   10  A    between atoms: C_13  and  C_14
REMARK                            x       y       z     vdW  Elec       q    Type
REMARK                         _______ _______ _______ _____ _____    ______ ____
ROOT
ATOM      1  N   UNL     1       4.445   5.895  17.326  0.00  0.00    +0.000 NA
ATOM      2  C   UNL     1       3.869   7.153  17.944  0.00  0.00    +0.000 C 
ATOM      3  C   UNL     1       2.503   6.959  18.631  0.00  0.00    +0.000 C 
ATOM      4  O   UNL     1       2.603   6.143  19.819  0.00  0.00    +0.000 OA
ATOM      5  C   UNL     1       2.381   4.822  19.543  0.00  0.00    +0.000 A 
ATOM      6  C   UNL     1       1.181   4.259  19.981  0.00  0.00    +0.000 A 
ATOM      7  C   UNL     1       0.900   2.916  19.722  0.00  0.00    +0.000 A 
ATOM      8  C   UNL     1       1.822   2.136  19.025  0.00  0.00    +0.000 A 
ATOM      9  C   UNL     1       3.032   2.694  18.622  0.00  0.00    +0.000 A 
ATOM     10  F   UNL     1       3.882   1.893  17.967  0.00  0.00    +0.000 F 
ATOM     11  C   UNL     1       3.321   4.029  18.899  0.00  0.00    +0.000 A 
ATOM     12  S   UNL     1       4.887   4.698  18.495  0.00  0.00    +0.000 S 
ATOM     13  O   UNL     1       5.658   3.652  17.880  0.00  0.00    +0.000 OA
ATOM     14  O   UNL     1       5.414   5.388  19.654  0.00  0.00    +0.000 OA
ENDROOT
BRANCH   1  15
ATOM     15  C   UNL     1       5.467   6.238  16.283  0.00  0.00    +0.000 C 
BRANCH  15  16
ATOM     16  C   UNL     1       5.282   5.502  14.957  0.00  0.00    +0.000 C 
BRANCH  16  18
ATOM     17  C   UNL     1       6.278   3.800  13.377  0.00  0.00    +0.000 C 
ATOM     18  C   UNL     1       6.533   4.714  14.561  0.00  0.00    +0.000 C 
ENDBRANCH  16  18
ENDBRANCH  15  16
ENDBRANCH   1  15
BRANCH   3  19
ATOM     19  C   UNL     1       1.984   8.340  19.092  0.00  0.00    +0.000 C 
BRANCH  19  20
ATOM     20  O   UNL     1       2.028   9.312  18.027  0.00  0.00    +0.000 OA
BRANCH  20  21
ATOM     21  C   UNL     1       1.365  10.471  18.277  0.00  0.00    +0.000 C 
ATOM     22  O   UNL     1       1.901  11.567  18.349  0.00  0.00    +0.000 OA
BRANCH  21  23
ATOM     23  C   UNL     1      -0.111  10.220  18.467  0.00  0.00    +0.000 C 
BRANCH  23  24
ATOM     24  C   UNL     1      -0.863  11.548  18.555  0.00  0.00    +0.000 C 
ATOM     25  C   UNL     1      -2.354  11.387  18.314  0.00  0.00    +0.000 C 
ENDBRANCH  23  24
ENDBRANCH  21  23
ENDBRANCH  20  21
ENDBRANCH  19  20
ENDBRANCH   3  19
TORSDOF 8
ENDMDL
MODEL 9
REMARK VINA RESULT:      -6.9      1.849      2.251
REMARK  Name = 
REMARK  10 active torsions:
REMARK  status: ('A' for Active; 'I' for Inactive)
REMARK    1  A    between atoms: C_1  and  C_2
REMARK    2  A    between atoms: C_2  and  C_3
REMARK    3  A    between atoms: C_3  and  C_4
REMARK    4  A    between atoms: C_4  and  N_5
REMARK    5  A    between atoms: C_7  and  C_8
REMARK    6  A    between atoms: C_8  and  O_9
REMARK    7  A    between atoms: O_9  and  C_10
REMARK    8  A    between atoms: C_10  and  C_12
REMARK    9  A    between atoms: C_12  and  C_13
REMARK   10  A    between atoms: C_13  and  C_14
REMARK                            x       y       z     vdW  Elec       q    Type
REMARK                         _______ _______ _______ _____ _____    ______ ____
ROOT
ATOM      1  N   UNL     1       3.954   5.956  17.563  0.00  0.00    +0.000 NA
ATOM      2  C   UNL     1       3.510   7.119  18.426  0.00  0.00    +0.000 C 
ATOM      3  C   UNL     1       2.228   6.856  19.241  0.00  0.00    +0.000 C 
ATOM      4  O   UNL     1       2.433   5.866  20.273  0.00  0.00    +0.000 OA
ATOM      5  C   UNL     1       2.122   4.609  19.834  0.00  0.00    +0.000 A 
ATOM      6  C   UNL     1       0.959   4.017  20.329  0.00  0.00    +0.000 A 
ATOM      7  C   UNL     1       0.591   2.736  19.910  0.00  0.00    +0.000 A 
ATOM      8  C   UNL     1       1.389   2.049  18.996  0.00  0.00    +0.000 A 
ATOM      9  C   UNL     1       2.566   2.631  18.533  0.00  0.00    +0.000 A 
ATOM     10  F   UNL     1       3.297   1.918  17.667  0.00  0.00    +0.000 F 
ATOM     11  C   UNL     1       2.943   3.900  18.968  0.00  0.00    +0.000 A 
ATOM     12  S   UNL     1       4.478   4.583  18.476  0.00  0.00    +0.000 S 
ATOM     13  O   UNL     1       5.125   3.624  17.623  0.00  0.00    +0.000 OA
ATOM     14  O   UNL     1       5.169   5.075  19.651  0.00  0.00    +0.000 OA
ENDROOT
BRANCH   1  15
ATOM     15  C   UNL     1       4.859   6.428  16.463  0.00  0.00    +0.000 C 
BRANCH  15  16
ATOM     16  C   UNL     1       6.338   6.474  16.843  0.00  0.00    +0.000 C 
BRANCH  16  18
ATOM     17  C   UNL     1       6.393   4.998  14.792  0.00  0.00    +0.000 C 
ATOM     18  C   UNL     1       7.183   5.549  15.964  0.00  0.00    +0.000 C 
ENDBRANCH  16  18
ENDBRANCH  15  16
ENDBRANCH   1  15
BRANCH   3  19
ATOM     19  C   UNL     1       1.829   8.163  19.962  0.00  0.00    +0.000 C 
BRANCH  19  20
ATOM     20  O   UNL     1       1.281   7.908  21.272  0.00  0.00    +0.000 OA
BRANCH  20  21
ATOM     21  C   UNL     1       1.092   9.011  22.042  0.00  0.00    +0.000 C 
ATOM     22  O   UNL     1       1.954   9.507  22.753  0.00  0.00    +0.000 OA
BRANCH  21  23
ATOM     23  C   UNL     1      -0.319   9.527  21.913  0.00  0.00    +0.000 C 
BRANCH  23  24
ATOM     24  C   UNL     1      -0.738  10.242  23.197  0.00  0.00    +0.000 C 
ATOM     25  C   UNL     1      -1.567  11.485  22.925  0.00  0.00    +0.000 C 
ENDBRANCH  23  24
ENDBRANCH  21  23
ENDBRANCH  20  21
ENDBRANCH  19  20
ENDBRANCH   3  19
TORSDOF 8
ENDMDL
