MODEL 1
REMARK VINA RESULT:      -8.4      0.000      0.000
REMARK  Name = 
REMARK  10 active torsions:
REMARK  status: ('A' for Active; 'I' for Inactive)
REMARK    1  A    between atoms: C_1  and  C_2
REMARK    2  A    between atoms: C_2  and  C_3
REMARK    3  A    between atoms: C_3  and  C_4
REMARK    4  A    between atoms: C_3  and  C_5
REMARK    5  A    between atoms: C_5  and  N_6
REMARK    6  A    between atoms: C_7  and  C_9
REMARK    7  A    between atoms: C_13  and  C_14
REMARK    8  A    between atoms: C_17  and  C_18
REMARK    9  A    between atoms: C_18  and  N_19
REMARK   10  A    between atoms: N_19  and  C_20
REMARK                            x       y       z     vdW  Elec       q    Type
REMARK                         _______ _______ _______ _____ _____    ______ ____
ROOT
ATOM      1  C   UNL     1       5.080   4.742  16.161  0.00  0.00    +0.000 A 
ATOM      2  C   UNL     1       4.795   3.508  16.723  0.00  0.00    +0.000 A 
ATOM      3  N   UNL     1       3.991   3.344  17.799  0.00  0.00    +0.000 NA
ATOM      4  C   UNL     1       3.418   4.465  18.295  0.00  0.00    +0.000 A 
ATOM      5  C   UNL     1       3.607   5.762  17.802  0.00  0.00    +0.000 A 
ATOM      6  C   UNL     1       4.484   5.880  16.712  0.00  0.00    +0.000 A 
ENDROOT
BRANCH   5   7
ATOM      7  C   UNL     1       2.884   6.920  18.362  0.00  0.00    +0.000 A 
ATOM      8  C   UNL     1       2.449   6.941  19.695  0.00  0.00    +0.000 A 
ATOM      9  C   UNL     1       1.712   8.012  20.204  0.00  0.00    +0.000 A 
ATOM     10  C   UNL     1       1.406   9.116  19.401  0.00  0.00    +0.000 A 
ATOM     11  C   UNL     1       1.844   9.121  18.075  0.00  0.00    +0.000 A 
ATOM     12  C   UNL     1       2.568   8.038  17.563  0.00  0.00    +0.000 A 
BRANCH  10  13
ATOM     13  C   UNL     1       0.587  10.253  19.965  0.00  0.00    +0.000 C 
BRANCH  13  14
ATOM     14  N   UNL     1      -0.068  11.006  18.895  0.00  0.00    +0.000 NA
ATOM     15  H   UNL     1       0.439  10.846  18.024  0.00  0.00    +0.000 HD
BRANCH  14  16
ATOM     16  C   UNL     1      -1.470  10.650  18.718  0.00  0.00    +0.000 C 
ATOM     17  C   UNL     1      -2.430  11.825  18.536  0.00  0.00    +0.000 C 
ATOM     18  C   UNL     1      -3.670  11.180  17.930  0.00  0.00    +0.000 C 
ATOM     19  C   UNL     1      -3.158  10.001  17.102  0.00  0.00    +0.000 C 
ATOM     20  C   UNL     1      -1.667   9.878  17.411  0.00  0.00    +0.000 C 
ENDBRANCH  14  16
ENDBRANCH  13  14
ENDBRANCH  10  13
ENDBRANCH   5   7
BRANCH   1  22
ATOM     21  N   UNL     1       5.913   3.692  14.135  0.00  0.00    +0.000 N 
ATOM     22  C   UNL     1       5.934   4.792  14.962  0.00  0.00    +0.000 C 
ATOM     23  O   UNL     1       6.604   5.799  14.743  0.00  0.00    +0.000 OA
ATOM     24  H   UNL     1       5.252   2.945  14.297  0.00  0.00    +0.000 HD
BRANCH  21  25
ATOM     25  C   UNL     1       6.716   3.647  12.929  0.00  0.00    +0.000 C 
BRANCH  25  26
ATOM     26  C   UNL     1       5.908   3.237  11.685  0.00  0.00    +0.000 C 
ATOM     27  C   UNL     1       6.054   1.731  11.431  0.00  0.00    +0.000 C 
BRANCH  26  29
ATOM     28  C   UNL     1       3.537   3.099  10.687  0.00  0.00    +0.000 C 
ATOM     29  C   UNL     1       4.411   3.587  11.837  0.00  0.00    +0.000 C 
ENDBRANCH  26  29
ENDBRANCH  25  26
ENDBRANCH  21  25
ENDBRANCH   1  22
TORSDOF 8
ENDMDL
MODEL 2
REMARK VINA RESULT:      -8.0      1.559      2.044
REMARK  Name = 
REMARK  10 active torsions:
REMARK  status: ('A' for Active; 'I' for Inactive)
REMARK    1  A    between atoms: C_1  and  C_2
REMARK    2  A    between atoms: C_2  and  C_3
REMARK    3  A    between atoms: C_3  and  C_4
REMARK    4  A    between atoms: C_3  and  C_5
REMARK    5  A    between atoms: C_5  and  N_6
REMARK    6  A    between atoms: C_7  and  C_9
REMARK    7  A    between atoms: C_13  and  C_14
REMARK    8  A    between atoms: C_17  and  C_18
REMARK    9  A    between atoms: C_18  and  N_19
REMARK   10  A    between atoms: N_19  and  C_20
REMARK                            x       y       z     vdW  Elec       q    Type
REMARK                         _______ _______ _______ _____ _____    ______ ____
ROOT
ATOM      1  C   UNL     1       5.182   4.771  16.310  0.00  0.00    +0.000 A 
ATOM      2  C   UNL     1       4.860   3.564  16.909  0.00  0.00    +0.000 A 
ATOM      3  N   UNL     1       4.012   3.451  17.957  0.00  0.00    +0.000 NA
ATOM      4  C   UNL     1       3.433   4.596  18.385  0.00  0.00    +0.000 A 
ATOM      5  C   UNL     1       3.656   5.870  17.849  0.00  0.00    +0.000 A 
ATOM      6  C   UNL     1       4.578   5.936  16.792  0.00  0.00    +0.000 A 
ENDROOT
BRANCH   5   7
ATOM      7  C   UNL     1       2.926   7.058  18.333  0.00  0.00    +0.000 A 
ATOM      8  C   UNL     1       2.353   7.097  19.613  0.00  0.00    +0.000 A 
ATOM      9  C   UNL     1       1.611   8.197  20.045  0.00  0.00    +0.000 A 
ATOM     10  C   UNL     1       1.436   9.313  19.218  0.00  0.00    +0.000 A 
ATOM     11  C   UNL     1       2.011   9.299  17.946  0.00  0.00    +0.000 A 
ATOM     12  C   UNL     1       2.741   8.187  17.510  0.00  0.00    +0.000 A 
BRANCH  10  13
ATOM     13  C   UNL     1       0.608  10.482  19.696  0.00  0.00    +0.000 C 
BRANCH  13  14
ATOM     14  N   UNL     1       0.438  10.443  21.148  0.00  0.00    +0.000 NA
ATOM     15  H   UNL     1       1.114  11.076  21.575  0.00  0.00    +0.000 HD
BRANCH  14  16
ATOM     16  C   UNL     1      -0.907  10.804  21.578  0.00  0.00    +0.000 C 
ATOM     17  C   UNL     1      -1.047  11.184  23.051  0.00  0.00    +0.000 C 
ATOM     18  C   UNL     1      -2.376  11.930  23.100  0.00  0.00    +0.000 C 
ATOM     19  C   UNL     1      -2.516  12.611  21.739  0.00  0.00    +0.000 C 
ATOM     20  C   UNL     1      -1.372  12.082  20.877  0.00  0.00    +0.000 C 
ENDBRANCH  14  16
ENDBRANCH  13  14
ENDBRANCH  10  13
ENDBRANCH   5   7
BRANCH   1  22
ATOM     21  N   UNL     1       5.766   3.907  14.117  0.00  0.00    +0.000 N 
ATOM     22  C   UNL     1       6.083   4.765  15.146  0.00  0.00    +0.000 C 
ATOM     23  O   UNL     1       7.052   5.520  15.131  0.00  0.00    +0.000 OA
ATOM     24  H   UNL     1       4.892   3.400  14.126  0.00  0.00    +0.000 HD
BRANCH  21  25
ATOM     25  C   UNL     1       6.589   3.831  12.926  0.00  0.00    +0.000 C 
BRANCH  25  26
ATOM     26  C   UNL     1       5.820   3.312  11.697  0.00  0.00    +0.000 C 
ATOM     27  C   UNL     1       5.986   1.791  11.571  0.00  0.00    +0.000 C 
BRANCH  26  29
ATOM     28  C   UNL     1       3.490   3.114  10.619  0.00  0.00    +0.000 C 
ATOM     29  C   UNL     1       4.317   3.657  11.778  0.00  0.00    +0.000 C 
ENDBRANCH  26  29
ENDBRANCH  25  26
ENDBRANCH  21  25
ENDBRANCH   1  22
TORSDOF 8
ENDMDL
MODEL 3
REMARK VINA RESULT:      -7.9      1.493      2.272
REMARK  Name = 
REMARK  10 active torsions:
REMARK  status: ('A' for Active; 'I' for Inactive)
REMARK    1  A    between atoms: C_1  and  C_2
REMARK    2  A    between atoms: C_2  and  C_3
REMARK    3  A    between atoms: C_3  and  C_4
REMARK    4  A    between atoms: C_3  and  C_5
REMARK    5  A    between atoms: C_5  and  N_6
REMARK    6  A    between atoms: C_7  and  C_9
REMARK    7  A    between atoms: C_13  and  C_14
REMARK    8  A    between atoms: C_17  and  C_18
REMARK    9  A    between atoms: C_18  and  N_19
REMARK   10  A    between atoms: N_19  and  C_20
REMARK                            x       y       z     vdW  Elec       q    Type
REMARK                         _______ _______ _______ _____ _____    ______ ____
ROOT
ATOM      1  C   UNL     1       6.553   5.085  15.941  0.00  0.00    +0.000 A 
ATOM      2  C   UNL     1       7.288   4.427  16.913  0.00  0.00    +0.000 A 
ATOM      3  N   UNL     1       7.040   4.532  18.239  0.00  0.00    +0.000 NA
ATOM      4  C   UNL     1       5.979   5.295  18.592  0.00  0.00    +0.000 A 
ATOM      5  C   UNL     1       5.147   5.990  17.705  0.00  0.00    +0.000 A 
ATOM      6  C   UNL     1       5.476   5.880  16.344  0.00  0.00    +0.000 A 
ENDROOT
BRANCH   5   7
ATOM      7  C   UNL     1       3.967   6.743  18.173  0.00  0.00    +0.000 A 
ATOM      8  C   UNL     1       3.488   7.863  17.479  0.00  0.00    +0.000 A 
ATOM      9  C   UNL     1       2.409   8.609  17.957  0.00  0.00    +0.000 A 
ATOM     10  C   UNL     1       1.753   8.244  19.138  0.00  0.00    +0.000 A 
ATOM     11  C   UNL     1       2.206   7.122  19.835  0.00  0.00    +0.000 A 
ATOM     12  C   UNL     1       3.299   6.386  19.362  0.00  0.00    +0.000 A 
BRANCH  10  13
ATOM     13  C   UNL     1       0.604   9.080  19.650  0.00  0.00    +0.000 C 
BRANCH  13  14
ATOM     14  N   UNL     1       0.987  10.487  19.755  0.00  0.00    +0.000 NA
ATOM     15  H   UNL     1       1.399  10.782  18.869  0.00  0.00    +0.000 HD
BRANCH  14  16
ATOM     16  C   UNL     1      -0.128  11.363  20.091  0.00  0.00    +0.000 C 
ATOM     17  C   UNL     1       0.056  12.834  19.721  0.00  0.00    +0.000 C 
ATOM     18  C   UNL     1      -1.365  13.386  19.747  0.00  0.00    +0.000 C 
ATOM     19  C   UNL     1      -2.267  12.222  19.336  0.00  0.00    +0.000 C 
ATOM     20  C   UNL     1      -1.370  10.988  19.279  0.00  0.00    +0.000 C 
ENDBRANCH  14  16
ENDBRANCH  13  14
ENDBRANCH  10  13
ENDBRANCH   5   7
BRANCH   1  22
ATOM     21  N   UNL     1       6.152   3.907  13.856  0.00  0.00    +0.000 N 
ATOM     22  C   UNL     1       6.888   4.858  14.526  0.00  0.00    +0.000 C 
ATOM     23  O   UNL     1       7.780   5.523  14.004  0.00  0.00    +0.000 OA
ATOM     24  H   UNL     1       5.350   3.480  14.297  0.00  0.00    +0.000 HD
BRANCH  21  25
ATOM     25  C   UNL     1       6.404   3.613  12.459  0.00  0.00    +0.000 C 
BRANCH  25  26
ATOM     26  C   UNL     1       5.547   2.450  11.926  0.00  0.00    +0.000 C 
ATOM     27  C   UNL     1       4.347   2.993  11.139  0.00  0.00    +0.000 C 
BRANCH  26  29
ATOM     28  C   UNL     1       6.090   0.025  11.250  0.00  0.00    +0.000 C 
ATOM     29  C   UNL     1       6.368   1.506  11.021  0.00  0.00    +0.000 C 
ENDBRANCH  26  29
ENDBRANCH  25  26
ENDBRANCH  21  25
ENDBRANCH   1  22
TORSDOF 8
ENDMDL
MODEL 4
REMARK VINA RESULT:      -7.8      1.877      2.932
REMARK  Name = 
REMARK  10 active torsions:
REMARK  status: ('A' for Active; 'I' for Inactive)
REMARK    1  A    between atoms: C_1  and  C_2
REMARK    2  A    between atoms: C_2  and  C_3
REMARK    3  A    between atoms: C_3  and  C_4
REMARK    4  A    between atoms: C_3  and  C_5
REMARK    5  A    between atoms: C_5  and  N_6
REMARK    6  A    between atoms: C_7  and  C_9
REMARK    7  A    between atoms: C_13  and  C_14
REMARK    8  A    between atoms: C_17  and  C_18
REMARK    9  A    between atoms: C_18  and  N_19
REMARK   10  A    between atoms: N_19  and  C_20
REMARK                            x       y       z     vdW  Elec       q    Type
REMARK                         _______ _______ _______ _____ _____    ______ ____
ROOT
ATOM      1  C   UNL     1       5.289   4.852  17.075  0.00  0.00    +0.000 A 
ATOM      2  C   UNL     1       5.134   3.778  17.935  0.00  0.00    +0.000 A 
ATOM      3  N   UNL     1       4.322   3.797  19.018  0.00  0.00    +0.000 NA
ATOM      4  C   UNL     1       3.606   4.929  19.209  0.00  0.00    +0.000 A 
ATOM      5  C   UNL     1       3.656   6.070  18.399  0.00  0.00    +0.000 A 
ATOM      6  C   UNL     1       4.547   6.012  17.315  0.00  0.00    +0.000 A 
ENDROOT
BRANCH   5   7
ATOM      7  C   UNL     1       2.785   7.237  18.642  0.00  0.00    +0.000 A 
ATOM      8  C   UNL     1       2.596   8.229  17.669  0.00  0.00    +0.000 A 
ATOM      9  C   UNL     1       1.821   9.361  17.924  0.00  0.00    +0.000 A 
ATOM     10  C   UNL     1       1.183   9.529  19.157  0.00  0.00    +0.000 A 
ATOM     11  C   UNL     1       1.345   8.544  20.134  0.00  0.00    +0.000 A 
ATOM     12  C   UNL     1       2.138   7.418  19.881  0.00  0.00    +0.000 A 
BRANCH  10  13
ATOM     13  C   UNL     1       0.369  10.774  19.421  0.00  0.00    +0.000 C 
BRANCH  13  14
ATOM     14  N   UNL     1       0.416  11.681  18.275  0.00  0.00    +0.000 NA
ATOM     15  H   UNL     1      -0.533  11.825  17.931  0.00  0.00    +0.000 HD
BRANCH  14  16
ATOM     16  C   UNL     1       1.023  12.969  18.588  0.00  0.00    +0.000 C 
ATOM     17  C   UNL     1       1.205  13.267  20.076  0.00  0.00    +0.000 C 
ATOM     18  C   UNL     1       2.233  14.392  20.090  0.00  0.00    +0.000 C 
ATOM     19  C   UNL     1       3.120  14.154  18.868  0.00  0.00    +0.000 C 
ATOM     20  C   UNL     1       2.464  13.023  18.078  0.00  0.00    +0.000 C 
ENDBRANCH  14  16
ENDBRANCH  13  14
ENDBRANCH  10  13
ENDBRANCH   5   7
BRANCH   1  22
ATOM     21  N   UNL     1       5.554   4.507  14.686  0.00  0.00    +0.000 N 
ATOM     22  C   UNL     1       6.167   4.698  15.903  0.00  0.00    +0.000 C 
ATOM     23  O   UNL     1       7.385   4.762  16.051  0.00  0.00    +0.000 OA
ATOM     24  H   UNL     1       4.550   4.587  14.602  0.00  0.00    +0.000 HD
BRANCH  21  25
ATOM     25  C   UNL     1       6.332   4.348  13.472  0.00  0.00    +0.000 C 
BRANCH  25  26
ATOM     26  C   UNL     1       5.849   3.176  12.599  0.00  0.00    +0.000 C 
ATOM     27  C   UNL     1       4.594   3.581  11.814  0.00  0.00    +0.000 C 
BRANCH  26  29
ATOM     28  C   UNL     1       6.749   1.297  11.086  0.00  0.00    +0.000 C 
ATOM     29  C   UNL     1       6.942   2.714  11.611  0.00  0.00    +0.000 C 
ENDBRANCH  26  29
ENDBRANCH  25  26
ENDBRANCH  21  25
ENDBRANCH   1  22
TORSDOF 8
ENDMDL
MODEL 5
REMARK VINA RESULT:      -7.8      1.571      2.331
REMARK  Name = 
REMARK  10 active torsions:
REMARK  status: ('A' for Active; 'I' for Inactive)
REMARK    1  A    between atoms: C_1  and  C_2
REMARK    2  A    between atoms: C_2  and  C_3
REMARK    3  A    between atoms: C_3  and  C_4
REMARK    4  A    between atoms: C_3  and  C_5
REMARK    5  A    between atoms: C_5  and  N_6
REMARK    6  A    between atoms: C_7  and  C_9
REMARK    7  A    between atoms: C_13  and  C_14
REMARK    8  A    between atoms: C_17  and  C_18
REMARK    9  A    between atoms: C_18  and  N_19
REMARK   10  A    between atoms: N_19  and  C_20
REMARK                            x       y       z     vdW  Elec       q    Type
REMARK                         _______ _______ _______ _____ _____    ______ ____
ROOT
ATOM      1  C   UNL     1       4.308   4.639  18.190  0.00  0.00    +0.000 A 
ATOM      2  C   UNL     1       3.980   3.809  19.249  0.00  0.00    +0.000 A 
ATOM      3  N   UNL     1       3.175   4.181  20.271  0.00  0.00    +0.000 NA
ATOM      4  C   UNL     1       2.644   5.423  20.193  0.00  0.00    +0.000 A 
ATOM      5  C   UNL     1       2.877   6.345  19.165  0.00  0.00    +0.000 A 
ATOM      6  C   UNL     1       3.754   5.922  18.153  0.00  0.00    +0.000 A 
ENDROOT
BRANCH   5   7
ATOM      7  C   UNL     1       2.198   7.654  19.124  0.00  0.00    +0.000 A 
ATOM      8  C   UNL     1       1.502   8.156  20.233  0.00  0.00    +0.000 A 
ATOM      9  C   UNL     1       0.809   9.366  20.172  0.00  0.00    +0.000 A 
ATOM     10  C   UNL     1       0.811  10.134  19.002  0.00  0.00    +0.000 A 
ATOM     11  C   UNL     1       1.512   9.659  17.892  0.00  0.00    +0.000 A 
ATOM     12  C   UNL     1       2.191   8.436  17.951  0.00  0.00    +0.000 A 
BRANCH  10  13
ATOM     13  C   UNL     1       0.035  11.428  18.950  0.00  0.00    +0.000 C 
BRANCH  13  14
ATOM     14  N   UNL     1      -1.405  11.175  18.955  0.00  0.00    +0.000 NA
ATOM     15  H   UNL     1      -1.857  11.859  19.561  0.00  0.00    +0.000 HD
BRANCH  14  16
ATOM     16  C   UNL     1      -2.003  11.230  17.626  0.00  0.00    +0.000 C 
ATOM     17  C   UNL     1      -2.035   9.907  16.863  0.00  0.00    +0.000 C 
ATOM     18  C   UNL     1      -3.079  10.147  15.780  0.00  0.00    +0.000 C 
ATOM     19  C   UNL     1      -4.084  11.126  16.386  0.00  0.00    +0.000 C 
ATOM     20  C   UNL     1      -3.490  11.575  17.720  0.00  0.00    +0.000 C 
ENDBRANCH  14  16
ENDBRANCH  13  14
ENDBRANCH  10  13
ENDBRANCH   5   7
BRANCH   1  22
ATOM     21  N   UNL     1       6.150   4.936  16.636  0.00  0.00    +0.000 N 
ATOM     22  C   UNL     1       5.158   4.108  17.111  0.00  0.00    +0.000 C 
ATOM     23  O   UNL     1       4.965   2.967  16.699  0.00  0.00    +0.000 OA
ATOM     24  H   UNL     1       6.344   5.815  17.094  0.00  0.00    +0.000 HD
BRANCH  21  25
ATOM     25  C   UNL     1       7.041   4.503  15.577  0.00  0.00    +0.000 C 
BRANCH  25  26
ATOM     26  C   UNL     1       6.584   4.965  14.181  0.00  0.00    +0.000 C 
ATOM     27  C   UNL     1       7.801   5.301  13.309  0.00  0.00    +0.000 C 
BRANCH  26  29
ATOM     28  C   UNL     1       6.336   3.366  12.178  0.00  0.00    +0.000 C 
ATOM     29  C   UNL     1       5.732   3.887  13.476  0.00  0.00    +0.000 C 
ENDBRANCH  26  29
ENDBRANCH  25  26
ENDBRANCH  21  25
ENDBRANCH   1  22
TORSDOF 8
ENDMDL
MODEL 6
REMARK VINA RESULT:      -7.7      1.693      2.521
REMARK  Name = 
REMARK  10 active torsions:
REMARK  status: ('A' for Active; 'I' for Inactive)
REMARK    1  A    between atoms: C_1  and  C_2
REMARK    2  A    between atoms: C_2  and  C_3
REMARK    3  A    between atoms: C_3  and  C_4
REMARK    4  A    between atoms: C_3  and  C_5
REMARK    5  A    between atoms: C_5  and  N_6
REMARK    6  A    between atoms: C_7  and  C_9
REMARK    7  A    between atoms: C_13  and  C_14
REMARK    8  A    between atoms: C_17  and  C_18
REMARK    9  A    between atoms: C_18  and  N_19
REMARK   10  A    between atoms: N_19  and  C_20
REMARK                            x       y       z     vdW  Elec       q    Type
REMARK                         _______ _______ _______ _____ _____    ______ ____
ROOT
ATOM      1  C   UNL     1       4.824   5.174  16.720  0.00  0.00    +0.000 A 
ATOM      2  C   UNL     1       4.588   4.006  17.426  0.00  0.00    +0.000 A 
ATOM      3  N   UNL     1       3.765   3.932  18.497  0.00  0.00    +0.000 NA
ATOM      4  C   UNL     1       3.119   5.072  18.837  0.00  0.00    +0.000 A 
ATOM      5  C   UNL     1       3.253   6.306  18.188  0.00  0.00    +0.000 A 
ATOM      6  C   UNL     1       4.153   6.336  17.111  0.00  0.00    +0.000 A 
ENDROOT
BRANCH   5   7
ATOM      7  C   UNL     1       2.454   7.483  18.583  0.00  0.00    +0.000 A 
ATOM      8  C   UNL     1       2.189   8.526  17.683  0.00  0.00    +0.000 A 
ATOM      9  C   UNL     1       1.486   9.666  18.076  0.00  0.00    +0.000 A 
ATOM     10  C   UNL     1       0.999   9.792  19.382  0.00  0.00    +0.000 A 
ATOM     11  C   UNL     1       1.239   8.757  20.288  0.00  0.00    +0.000 A 
ATOM     12  C   UNL     1       1.959   7.622  19.895  0.00  0.00    +0.000 A 
BRANCH  10  13
ATOM     13  C   UNL     1       0.262  11.044  19.793  0.00  0.00    +0.000 C 
BRANCH  13  14
ATOM     14  N   UNL     1      -0.540  11.566  18.687  0.00  0.00    +0.000 NA
ATOM     15  H   UNL     1      -1.521  11.349  18.862  0.00  0.00    +0.000 HD
BRANCH  14  16
ATOM     16  C   UNL     1      -0.383  13.002  18.492  0.00  0.00    +0.000 C 
ATOM     17  C   UNL     1      -0.978  13.884  19.589  0.00  0.00    +0.000 C 
ATOM     18  C   UNL     1      -0.287  15.226  19.378  0.00  0.00    +0.000 C 
ATOM     19  C   UNL     1       1.097  14.894  18.821  0.00  0.00    +0.000 C 
ATOM     20  C   UNL     1       1.095  13.393  18.540  0.00  0.00    +0.000 C 
ENDBRANCH  14  16
ENDBRANCH  13  14
ENDBRANCH  10  13
ENDBRANCH   5   7
BRANCH   1  22
ATOM     21  N   UNL     1       5.480   4.110  14.638  0.00  0.00    +0.000 N 
ATOM     22  C   UNL     1       5.706   5.123  15.542  0.00  0.00    +0.000 C 
ATOM     23  O   UNL     1       6.579   5.977  15.407  0.00  0.00    +0.000 OA
ATOM     24  H   UNL     1       4.672   3.511  14.734  0.00  0.00    +0.000 HD
BRANCH  21  25
ATOM     25  C   UNL     1       6.294   3.977  13.445  0.00  0.00    +0.000 C 
BRANCH  25  26
ATOM     26  C   UNL     1       5.723   2.959  12.440  0.00  0.00    +0.000 C 
ATOM     27  C   UNL     1       4.562   3.584  11.655  0.00  0.00    +0.000 C 
BRANCH  26  29
ATOM     28  C   UNL     1       6.592   1.042  10.956  0.00  0.00    +0.000 C 
ATOM     29  C   UNL     1       6.803   2.468  11.452  0.00  0.00    +0.000 C 
ENDBRANCH  26  29
ENDBRANCH  25  26
ENDBRANCH  21  25
ENDBRANCH   1  22
TORSDOF 8
ENDMDL
MODEL 7
REMARK VINA RESULT:      -7.7      0.699      1.433
REMARK  Name = 
REMARK  10 active torsions:
REMARK  status: ('A' for Active; 'I' for Inactive)
REMARK    1  A    between atoms: C_1  and  C_2
REMARK    2  A    between atoms: C_2  and  C_3
REMARK    3  A    between atoms: C_3  and  C_4
REMARK    4  A    between atoms: C_3  and  C_5
REMARK    5  A    between atoms: C_5  and  N_6
REMARK    6  A    between atoms: C_7  and  C_9
REMARK    7  A    between atoms: C_13  and  C_14
REMARK    8  A    between atoms: C_17  and  C_18
REMARK    9  A    between atoms: C_18  and  N_19
REMARK   10  A    between atoms: N_19  and  C_20
REMARK                            x       y       z     vdW  Elec       q    Type
REMARK                         _______ _______ _______ _____ _____    ______ ____
ROOT
ATOM      1  C   UNL     1       5.204   5.079  16.350  0.00  0.00    +0.000 A 
ATOM      2  C   UNL     1       5.399   4.058  17.265  0.00  0.00    +0.000 A 
ATOM      3  N   UNL     1       4.896   4.071  18.520  0.00  0.00    +0.000 NA
ATOM      4  C   UNL     1       4.127   5.136  18.847  0.00  0.00    +0.000 A 
ATOM      5  C   UNL     1       3.836   6.217  18.006  0.00  0.00    +0.000 A 
ATOM      6  C   UNL     1       4.420   6.173  16.729  0.00  0.00    +0.000 A 
ENDROOT
BRANCH   5   7
ATOM      7  C   UNL     1       2.929   7.305  18.421  0.00  0.00    +0.000 A 
ATOM      8  C   UNL     1       2.334   7.321  19.692  0.00  0.00    +0.000 A 
ATOM      9  C   UNL     1       1.430   8.317  20.059  0.00  0.00    +0.000 A 
ATOM     10  C   UNL     1       1.106   9.352  19.175  0.00  0.00    +0.000 A 
ATOM     11  C   UNL     1       1.700   9.363  17.912  0.00  0.00    +0.000 A 
ATOM     12  C   UNL     1       2.594   8.352  17.540  0.00  0.00    +0.000 A 
BRANCH  10  13
ATOM     13  C   UNL     1       0.105  10.407  19.584  0.00  0.00    +0.000 C 
BRANCH  13  14
ATOM     14  N   UNL     1      -0.035  11.426  18.544  0.00  0.00    +0.000 NA
ATOM     15  H   UNL     1       0.630  11.225  17.797  0.00  0.00    +0.000 HD
BRANCH  14  16
ATOM     16  C   UNL     1      -1.382  11.501  17.993  0.00  0.00    +0.000 C 
ATOM     17  C   UNL     1      -1.973  10.175  17.515  0.00  0.00    +0.000 C 
ATOM     18  C   UNL     1      -3.468  10.460  17.441  0.00  0.00    +0.000 C 
ATOM     19  C   UNL     1      -3.746  11.492  18.533  0.00  0.00    +0.000 C 
ATOM     20  C   UNL     1      -2.382  11.921  19.071  0.00  0.00    +0.000 C 
ENDBRANCH  14  16
ENDBRANCH  13  14
ENDBRANCH  10  13
ENDBRANCH   5   7
BRANCH   1  22
ATOM     21  N   UNL     1       5.720   3.676  14.437  0.00  0.00    +0.000 N 
ATOM     22  C   UNL     1       5.763   4.933  14.996  0.00  0.00    +0.000 C 
ATOM     23  O   UNL     1       6.220   5.920  14.424  0.00  0.00    +0.000 OA
ATOM     24  H   UNL     1       5.222   2.929  14.899  0.00  0.00    +0.000 HD
BRANCH  21  25
ATOM     25  C   UNL     1       6.243   3.431  13.106  0.00  0.00    +0.000 C 
BRANCH  25  26
ATOM     26  C   UNL     1       5.266   2.645  12.213  0.00  0.00    +0.000 C 
ATOM     27  C   UNL     1       4.430   3.611  11.363  0.00  0.00    +0.000 C 
BRANCH  26  29
ATOM     28  C   UNL     1       7.456   2.042  11.000  0.00  0.00    +0.000 C 
ATOM     29  C   UNL     1       6.009   1.659  11.286  0.00  0.00    +0.000 C 
ENDBRANCH  26  29
ENDBRANCH  25  26
ENDBRANCH  21  25
ENDBRANCH   1  22
TORSDOF 8
ENDMDL
MODEL 8
REMARK VINA RESULT:      -7.7      1.475      2.125
REMARK  Name = 
REMARK  10 active torsions:
REMARK  status: ('A' for Active; 'I' for Inactive)
REMARK    1  A    between atoms: C_1  and  C_2
REMARK    2  A    between atoms: C_2  and  C_3
REMARK    3  A    between atoms: C_3  and  C_4
REMARK    4  A    between atoms: C_3  and  C_5
REMARK    5  A    between atoms: C_5  and  N_6
REMARK    6  A    between atoms: C_7  and  C_9
REMARK    7  A    between atoms: C_13  and  C_14
REMARK    8  A    between atoms: C_17  and  C_18
REMARK    9  A    between atoms: C_18  and  N_19
REMARK   10  A    between atoms: N_19  and  C_20
REMARK                            x       y       z     vdW  Elec       q    Type
REMARK                         _______ _______ _______ _____ _____    ______ ____
ROOT
ATOM      1  C   UNL     1       6.503   5.112  15.931  0.00  0.00    +0.000 A 
ATOM      2  C   UNL     1       7.251   4.469  16.904  0.00  0.00    +0.000 A 
ATOM      3  N   UNL     1       7.033   4.612  18.231  0.00  0.00    +0.000 NA
ATOM      4  C   UNL     1       5.990   5.398  18.587  0.00  0.00    +0.000 A 
ATOM      5  C   UNL     1       5.148   6.080  17.701  0.00  0.00    +0.000 A 
ATOM      6  C   UNL     1       5.445   5.931  16.337  0.00  0.00    +0.000 A 
ENDROOT
BRANCH   5   7
ATOM      7  C   UNL     1       3.988   6.860  18.175  0.00  0.00    +0.000 A 
ATOM      8  C   UNL     1       3.288   6.504  19.336  0.00  0.00    +0.000 A 
ATOM      9  C   UNL     1       2.155   7.208  19.748  0.00  0.00    +0.000 A 
ATOM     10  C   UNL     1       1.695   8.313  19.024  0.00  0.00    +0.000 A 
ATOM     11  C   UNL     1       2.388   8.693  17.873  0.00  0.00    +0.000 A 
ATOM     12  C   UNL     1       3.514   7.975  17.453  0.00  0.00    +0.000 A 
BRANCH  10  13
ATOM     13  C   UNL     1       0.453   9.045  19.473  0.00  0.00    +0.000 C 
BRANCH  13  14
ATOM     14  N   UNL     1       0.095  10.098  18.524  0.00  0.00    +0.000 NA
ATOM     15  H   UNL     1      -0.611   9.737  17.883  0.00  0.00    +0.000 HD
BRANCH  14  16
ATOM     16  C   UNL     1      -0.403  11.307  19.169  0.00  0.00    +0.000 C 
ATOM     17  C   UNL     1      -1.803  11.749  18.747  0.00  0.00    +0.000 C 
ATOM     18  C   UNL     1      -2.227  12.698  19.861  0.00  0.00    +0.000 C 
ATOM     19  C   UNL     1      -1.537  12.184  21.125  0.00  0.00    +0.000 C 
ATOM     20  C   UNL     1      -0.584  11.080  20.671  0.00  0.00    +0.000 C 
ENDBRANCH  14  16
ENDBRANCH  13  14
ENDBRANCH  10  13
ENDBRANCH   5   7
BRANCH   1  22
ATOM     21  N   UNL     1       5.984   3.950  13.863  0.00  0.00    +0.000 N 
ATOM     22  C   UNL     1       6.803   4.843  14.515  0.00  0.00    +0.000 C 
ATOM     23  O   UNL     1       7.742   5.427  13.978  0.00  0.00    +0.000 OA
ATOM     24  H   UNL     1       5.154   3.594  14.316  0.00  0.00    +0.000 HD
BRANCH  21  25
ATOM     25  C   UNL     1       6.197   3.622  12.467  0.00  0.00    +0.000 C 
BRANCH  25  26
ATOM     26  C   UNL     1       5.203   2.571  11.939  0.00  0.00    +0.000 C 
ATOM     27  C   UNL     1       4.118   3.246  11.090  0.00  0.00    +0.000 C 
BRANCH  26  29
ATOM     28  C   UNL     1       7.417   1.690  10.962  0.00  0.00    +0.000 C 
ATOM     29  C   UNL     1       5.913   1.488  11.096  0.00  0.00    +0.000 C 
ENDBRANCH  26  29
ENDBRANCH  25  26
ENDBRANCH  21  25
ENDBRANCH   1  22
TORSDOF 8
ENDMDL
MODEL 9
REMARK VINA RESULT:      -7.6      3.605      9.434
REMARK  Name = 
REMARK  10 active torsions:
REMARK  status: ('A' for Active; 'I' for Inactive)
REMARK    1  A    between atoms: C_1  and  C_2
REMARK    2  A    between atoms: C_2  and  C_3
REMARK    3  A    between atoms: C_3  and  C_4
REMARK    4  A    between atoms: C_3  and  C_5
REMARK    5  A    between atoms: C_5  and  N_6
REMARK    6  A    between atoms: C_7  and  C_9
REMARK    7  A    between atoms: C_13  and  C_14
REMARK    8  A    between atoms: C_17  and  C_18
REMARK    9  A    between atoms: C_18  and  N_19
REMARK   10  A    between atoms: N_19  and  C_20
REMARK                            x       y       z     vdW  Elec       q    Type
REMARK                         _______ _______ _______ _____ _____    ______ ____
ROOT
ATOM      1  C   UNL     1      -0.265  10.450  20.354  0.00  0.00    +0.000 A 
ATOM      2  C   UNL     1      -0.052  10.721  21.695  0.00  0.00    +0.000 A 
ATOM      3  N   UNL     1       0.702   9.943  22.505  0.00  0.00    +0.000 NA
ATOM      4  C   UNL     1       1.302   8.877  21.925  0.00  0.00    +0.000 A 
ATOM      5  C   UNL     1       1.184   8.513  20.578  0.00  0.00    +0.000 A 
ATOM      6  C   UNL     1       0.355   9.330  19.793  0.00  0.00    +0.000 A 
ENDROOT
BRANCH   5   7
ATOM      7  C   UNL     1       1.932   7.372  20.012  0.00  0.00    +0.000 A 
ATOM      8  C   UNL     1       2.563   7.455  18.762  0.00  0.00    +0.000 A 
ATOM      9  C   UNL     1       3.216   6.356  18.203  0.00  0.00    +0.000 A 
ATOM     10  C   UNL     1       3.285   5.138  18.888  0.00  0.00    +0.000 A 
ATOM     11  C   UNL     1       2.677   5.041  20.141  0.00  0.00    +0.000 A 
ATOM     12  C   UNL     1       2.007   6.140  20.692  0.00  0.00    +0.000 A 
BRANCH  10  13
ATOM     13  C   UNL     1       3.976   3.955  18.253  0.00  0.00    +0.000 C 
BRANCH  13  14
ATOM     14  N   UNL     1       5.265   3.698  18.894  0.00  0.00    +0.000 NA
ATOM     15  H   UNL     1       5.433   2.691  18.902  0.00  0.00    +0.000 HD
BRANCH  14  16
ATOM     16  C   UNL     1       6.378   4.374  18.237  0.00  0.00    +0.000 C 
ATOM     17  C   UNL     1       6.095   4.888  16.826  0.00  0.00    +0.000 C 
ATOM     18  C   UNL     1       7.205   5.905  16.591  0.00  0.00    +0.000 C 
ATOM     19  C   UNL     1       7.522   6.494  17.965  0.00  0.00    +0.000 C 
ATOM     20  C   UNL     1       6.734   5.665  18.977  0.00  0.00    +0.000 C 
ENDBRANCH  14  16
ENDBRANCH  13  14
ENDBRANCH  10  13
ENDBRANCH   5   7
BRANCH   1  22
ATOM     21  N   UNL     1      -1.992  10.853  18.695  0.00  0.00    +0.000 N 
ATOM     22  C   UNL     1      -1.069  11.394  19.561  0.00  0.00    +0.000 C 
ATOM     23  O   UNL     1      -0.901  12.602  19.711  0.00  0.00    +0.000 OA
ATOM     24  H   UNL     1      -2.176   9.859  18.701  0.00  0.00    +0.000 HD
BRANCH  21  25
ATOM     25  C   UNL     1      -2.834  11.700  17.872  0.00  0.00    +0.000 C 
BRANCH  25  26
ATOM     26  C   UNL     1      -4.018  10.942  17.245  0.00  0.00    +0.000 C 
ATOM     27  C   UNL     1      -5.341  11.625  17.616  0.00  0.00    +0.000 C 
BRANCH  26  29
ATOM     28  C   UNL     1      -2.777   9.954  15.217  0.00  0.00    +0.000 C 
ATOM     29  C   UNL     1      -3.895  10.865  15.708  0.00  0.00    +0.000 C 
ENDBRANCH  26  29
ENDBRANCH  25  26
ENDBRANCH  21  25
ENDBRANCH   1  22
TORSDOF 8
ENDMDL
