MODEL 1
REMARK VINA RESULT:      -8.6      0.000      0.000
REMARK  Name = 
REMARK  12 active torsions:
REMARK  status: ('A' for Active; 'I' for Inactive)
REMARK    1  A    between atoms: C_1  and  C_2
REMARK    2  A    between atoms: C_2  and  C_3
REMARK    3  A    between atoms: C_3  and  C_4
REMARK    4  A    between atoms: C_4  and  C_5
REMARK    5  A    between atoms: C_5  and  N_6
REMARK    6  A    between atoms: N_9  and  C_10
REMARK    7  A    between atoms: N_9  and  C_29
REMARK    8  A    between atoms: C_10  and  C_11
REMARK    9  A    between atoms: C_11  and  N_12
REMARK   10  A    between atoms: C_18  and  C_19
REMARK   11  A    between atoms: C_23  and  C_24
REMARK   12  A    between atoms: C_29  and  C_30
REMARK                            x       y       z     vdW  Elec       q    Type
REMARK                         _______ _______ _______ _____ _____    ______ ____
ROOT
ATOM      1  C   UNL     1       4.705   2.935  17.589  0.00  0.00    +0.000 C 
ENDROOT
BRANCH   1   2
ATOM      2  N   UNL     1       3.295   3.048  17.987  0.00  0.00    +0.000 NA
ATOM      3  C   UNL     1       2.502   4.022  17.224  0.00  0.00    +0.000 C 
ATOM      4  C   UNL     1       1.150   3.833  17.914  0.00  0.00    +0.000 C 
ATOM      5  C   UNL     1       1.497   3.506  19.364  0.00  0.00    +0.000 C 
ATOM      6  C   UNL     1       3.022   3.431  19.379  0.00  0.00    +0.000 C 
ATOM      7  C   UNL     1       3.661   4.772  19.766  0.00  0.00    +0.000 C 
ATOM      8  C   UNL     1       3.370   5.936  18.784  0.00  0.00    +0.000 C 
ATOM      9  C   UNL     1       3.036   5.465  17.345  0.00  0.00    +0.000 C 
BRANCH   8  10
ATOM     10  C   UNL     1       2.471   6.994  19.417  0.00  0.00    +0.000 A 
ATOM     11  C   UNL     1       1.799   6.849  20.633  0.00  0.00    +0.000 A 
ATOM     12  C   UNL     1       0.952   7.856  21.107  0.00  0.00    +0.000 A 
ATOM     13  C   UNL     1       0.765   9.036  20.380  0.00  0.00    +0.000 A 
ATOM     14  C   UNL     1       1.427   9.210  19.162  0.00  0.00    +0.000 A 
ATOM     15  C   UNL     1       2.264   8.188  18.696  0.00  0.00    +0.000 A 
BRANCH  14  16
ATOM     16  C   UNL     1       1.304  10.428  18.314  0.00  0.00    +0.000 C 
ATOM     17  N   UNL     1       0.123  11.103  18.294  0.00  0.00    +0.000 N 
ATOM     18  O   UNL     1       2.246  10.829  17.626  0.00  0.00    +0.000 OA
ATOM     19  H   UNL     1      -0.719  10.823  18.772  0.00  0.00    +0.000 HD
ATOM     20  H   UNL     1       0.075  11.913  17.682  0.00  0.00    +0.000 HD
ENDBRANCH  14  16
ENDBRANCH   8  10
ENDBRANCH   1   2
BRANCH   1  21
ATOM     21  C   UNL     1       4.994   3.703  16.280  0.00  0.00    +0.000 C 
BRANCH  21  25
ATOM     22  N   UNL     1       5.874   3.508  13.640  0.00  0.00    +0.000 N 
ATOM     23  C   UNL     1       6.773   4.053  14.518  0.00  0.00    +0.000 C 
ATOM     24  O   UNL     1       7.828   4.552  14.142  0.00  0.00    +0.000 OA
ATOM     25  N   UNL     1       6.368   3.993  15.859  0.00  0.00    +0.000 N 
ATOM     26  H   UNL     1       5.549   2.627  13.966  0.00  0.00    +0.000 HD
BRANCH  22  27
ATOM     27  C   UNL     1       6.042   3.477  12.203  0.00  0.00    +0.000 C 
BRANCH  27  28
ATOM     28  C   UNL     1       4.917   2.671  11.561  0.00  0.00    +0.000 C 
BRANCH  28  29
ATOM     29  C   UNL     1       3.677   3.534  11.339  0.00  0.00    +0.000 C 
BRANCH  29  31
ATOM     30  C   UNL     1       2.621   4.532   9.295  0.00  0.00    +0.000 C 
ATOM     31  C   UNL     1       3.046   3.245   9.979  0.00  0.00    +0.000 C 
ENDBRANCH  29  31
ENDBRANCH  28  29
ENDBRANCH  27  28
ENDBRANCH  22  27
BRANCH  25  32
ATOM     32  C   UNL     1       7.210   4.671  16.852  0.00  0.00    +0.000 C 
BRANCH  32  33
ATOM     33  C   UNL     1       6.600   5.758  17.794  0.00  0.00    +0.000 C 
ATOM     34  C   UNL     1       7.148   5.824  19.219  0.00  0.00    +0.000 C 
ATOM     35  C   UNL     1       8.437   6.616  19.362  0.00  0.00    +0.000 C 
ATOM     36  C   UNL     1       8.429   7.988  18.691  0.00  0.00    +0.000 C 
ATOM     37  C   UNL     1       7.627   8.125  17.400  0.00  0.00    +0.000 C 
ATOM     38  C   UNL     1       6.440   7.183  17.238  0.00  0.00    +0.000 C 
ENDBRANCH  32  33
ENDBRANCH  25  32
ENDBRANCH  21  25
ENDBRANCH   1  21
TORSDOF 11
ENDMDL
MODEL 2
REMARK VINA RESULT:      -8.3      2.259      8.344
REMARK  Name = 
REMARK  12 active torsions:
REMARK  status: ('A' for Active; 'I' for Inactive)
REMARK    1  A    between atoms: C_1  and  C_2
REMARK    2  A    between atoms: C_2  and  C_3
REMARK    3  A    between atoms: C_3  and  C_4
REMARK    4  A    between atoms: C_4  and  C_5
REMARK    5  A    between atoms: C_5  and  N_6
REMARK    6  A    between atoms: N_9  and  C_10
REMARK    7  A    between atoms: N_9  and  C_29
REMARK    8  A    between atoms: C_10  and  C_11
REMARK    9  A    between atoms: C_11  and  N_12
REMARK   10  A    between atoms: C_18  and  C_19
REMARK   11  A    between atoms: C_23  and  C_24
REMARK   12  A    between atoms: C_29  and  C_30
REMARK                            x       y       z     vdW  Elec       q    Type
REMARK                         _______ _______ _______ _____ _____    ______ ____
ROOT
ATOM      1  C   UNL     1       4.510   5.409  19.295  0.00  0.00    +0.000 C 
ENDROOT
BRANCH   1   2
ATOM      2  N   UNL     1       5.760   5.875  18.681  0.00  0.00    +0.000 NA
ATOM      3  C   UNL     1       5.599   6.781  17.534  0.00  0.00    +0.000 C 
ATOM      4  C   UNL     1       7.072   7.029  17.208  0.00  0.00    +0.000 C 
ATOM      5  C   UNL     1       7.774   5.720  17.559  0.00  0.00    +0.000 C 
ATOM      6  C   UNL     1       6.670   4.849  18.155  0.00  0.00    +0.000 C 
ATOM      7  C   UNL     1       6.011   3.951  17.098  0.00  0.00    +0.000 C 
ATOM      8  C   UNL     1       5.288   4.713  15.959  0.00  0.00    +0.000 C 
ATOM      9  C   UNL     1       4.829   6.139  16.360  0.00  0.00    +0.000 C 
BRANCH   8  10
ATOM     10  C   UNL     1       6.007   4.543  14.623  0.00  0.00    +0.000 A 
ATOM     11  C   UNL     1       7.172   5.219  14.251  0.00  0.00    +0.000 A 
ATOM     12  C   UNL     1       7.729   5.037  12.981  0.00  0.00    +0.000 A 
ATOM     13  C   UNL     1       7.140   4.168  12.058  0.00  0.00    +0.000 A 
ATOM     14  C   UNL     1       5.977   3.475  12.405  0.00  0.00    +0.000 A 
ATOM     15  C   UNL     1       5.425   3.676  13.677  0.00  0.00    +0.000 A 
BRANCH  14  16
ATOM     16  C   UNL     1       5.274   2.522  11.502  0.00  0.00    +0.000 C 
ATOM     17  N   UNL     1       4.037   2.843  11.036  0.00  0.00    +0.000 N 
ATOM     18  O   UNL     1       5.788   1.448  11.178  0.00  0.00    +0.000 OA
ATOM     19  H   UNL     1       3.512   3.664  11.289  0.00  0.00    +0.000 HD
ATOM     20  H   UNL     1       3.584   2.152  10.443  0.00  0.00    +0.000 HD
ENDBRANCH  14  16
ENDBRANCH   8  10
ENDBRANCH   1   2
BRANCH   1  21
ATOM     21  C   UNL     1       3.464   6.542  19.398  0.00  0.00    +0.000 C 
BRANCH  21  25
ATOM     22  N   UNL     1       1.712   8.650  19.916  0.00  0.00    +0.000 N 
ATOM     23  C   UNL     1       1.360   7.447  20.469  0.00  0.00    +0.000 C 
ATOM     24  O   UNL     1       0.280   7.277  21.024  0.00  0.00    +0.000 OA
ATOM     25  N   UNL     1       2.334   6.449  20.327  0.00  0.00    +0.000 N 
ATOM     26  H   UNL     1       2.641   8.899  20.168  0.00  0.00    +0.000 HD
BRANCH  22  27
ATOM     27  C   UNL     1       0.868   9.826  19.899  0.00  0.00    +0.000 C 
BRANCH  27  28
ATOM     28  C   UNL     1       0.272  10.023  18.508  0.00  0.00    +0.000 C 
BRANCH  28  29
ATOM     29  C   UNL     1      -1.125  10.634  18.589  0.00  0.00    +0.000 C 
BRANCH  29  31
ATOM     30  C   UNL     1      -2.418  10.903  16.457  0.00  0.00    +0.000 C 
ATOM     31  C   UNL     1      -2.073   9.963  17.599  0.00  0.00    +0.000 C 
ENDBRANCH  29  31
ENDBRANCH  28  29
ENDBRANCH  27  28
ENDBRANCH  22  27
BRANCH  25  32
ATOM     32  C   UNL     1       1.986   5.094  20.773  0.00  0.00    +0.000 C 
BRANCH  32  33
ATOM     33  C   UNL     1       1.054   4.192  19.903  0.00  0.00    +0.000 C 
ATOM     34  C   UNL     1       1.093   4.414  18.391  0.00  0.00    +0.000 C 
ATOM     35  C   UNL     1       2.228   3.696  17.678  0.00  0.00    +0.000 C 
ATOM     36  C   UNL     1       2.389   2.223  18.042  0.00  0.00    +0.000 C 
ATOM     37  C   UNL     1       2.058   1.821  19.476  0.00  0.00    +0.000 C 
ATOM     38  C   UNL     1       1.031   2.683  20.201  0.00  0.00    +0.000 C 
ENDBRANCH  32  33
ENDBRANCH  25  32
ENDBRANCH  21  25
ENDBRANCH   1  21
TORSDOF 11
ENDMDL
MODEL 3
REMARK VINA RESULT:      -8.1      2.387      8.523
REMARK  Name = 
REMARK  12 active torsions:
REMARK  status: ('A' for Active; 'I' for Inactive)
REMARK    1  A    between atoms: C_1  and  C_2
REMARK    2  A    between atoms: C_2  and  C_3
REMARK    3  A    between atoms: C_3  and  C_4
REMARK    4  A    between atoms: C_4  and  C_5
REMARK    5  A    between atoms: C_5  and  N_6
REMARK    6  A    between atoms: N_9  and  C_10
REMARK    7  A    between atoms: N_9  and  C_29
REMARK    8  A    between atoms: C_10  and  C_11
REMARK    9  A    between atoms: C_11  and  N_12
REMARK   10  A    between atoms: C_18  and  C_19
REMARK   11  A    between atoms: C_23  and  C_24
REMARK   12  A    between atoms: C_29  and  C_30
REMARK                            x       y       z     vdW  Elec       q    Type
REMARK                         _______ _______ _______ _____ _____    ______ ____
ROOT
ATOM      1  C   UNL     1       4.201   5.894  18.843  0.00  0.00    +0.000 C 
ENDROOT
BRANCH   1   2
ATOM      2  N   UNL     1       5.620   5.862  18.465  0.00  0.00    +0.000 NA
ATOM      3  C   UNL     1       6.015   6.815  17.418  0.00  0.00    +0.000 C 
ATOM      4  C   UNL     1       7.504   6.481  17.329  0.00  0.00    +0.000 C 
ATOM      5  C   UNL     1       7.584   4.984  17.621  0.00  0.00    +0.000 C 
ATOM      6  C   UNL     1       6.147   4.589  17.955  0.00  0.00    +0.000 C 
ATOM      7  C   UNL     1       5.389   4.079  16.722  0.00  0.00    +0.000 C 
ATOM      8  C   UNL     1       5.217   5.122  15.589  0.00  0.00    +0.000 C 
ATOM      9  C   UNL     1       5.273   6.590  16.083  0.00  0.00    +0.000 C 
BRANCH   8  10
ATOM     10  C   UNL     1       6.036   4.751  14.355  0.00  0.00    +0.000 A 
ATOM     11  C   UNL     1       7.246   5.347  13.990  0.00  0.00    +0.000 A 
ATOM     12  C   UNL     1       7.898   4.977  12.809  0.00  0.00    +0.000 A 
ATOM     13  C   UNL     1       7.358   3.997  11.970  0.00  0.00    +0.000 A 
ATOM     14  C   UNL     1       6.151   3.382  12.312  0.00  0.00    +0.000 A 
ATOM     15  C   UNL     1       5.505   3.770  13.493  0.00  0.00    +0.000 A 
BRANCH  14  16
ATOM     16  C   UNL     1       5.495   2.323  11.495  0.00  0.00    +0.000 C 
ATOM     17  N   UNL     1       6.175   1.174  11.233  0.00  0.00    +0.000 N 
ATOM     18  O   UNL     1       4.356   2.473  11.046  0.00  0.00    +0.000 OA
ATOM     19  H   UNL     1       7.126   0.983  11.504  0.00  0.00    +0.000 HD
ATOM     20  H   UNL     1       5.700   0.490  10.651  0.00  0.00    +0.000 HD
ENDBRANCH  14  16
ENDBRANCH   8  10
ENDBRANCH   1   2
BRANCH   1  21
ATOM     21  C   UNL     1       3.889   4.900  19.984  0.00  0.00    +0.000 C 
BRANCH  21  25
ATOM     22  N   UNL     1       2.293   7.186  20.063  0.00  0.00    +0.000 N 
ATOM     23  C   UNL     1       1.761   6.080  20.672  0.00  0.00    +0.000 C 
ATOM     24  O   UNL     1       0.609   6.058  21.089  0.00  0.00    +0.000 OA
ATOM     25  N   UNL     1       2.647   4.996  20.755  0.00  0.00    +0.000 N 
ATOM     26  H   UNL     1       3.202   7.383  20.414  0.00  0.00    +0.000 HD
BRANCH  22  27
ATOM     27  C   UNL     1       1.574   8.419  19.824  0.00  0.00    +0.000 C 
BRANCH  27  28
ATOM     28  C   UNL     1       1.145   9.041  21.150  0.00  0.00    +0.000 C 
BRANCH  28  29
ATOM     29  C   UNL     1      -0.134   9.858  20.988  0.00  0.00    +0.000 C 
BRANCH  29  31
ATOM     30  C   UNL     1      -1.356  11.358  19.392  0.00  0.00    +0.000 C 
ATOM     31  C   UNL     1      -0.384  10.199  19.521  0.00  0.00    +0.000 C 
ENDBRANCH  29  31
ENDBRANCH  28  29
ENDBRANCH  27  28
ENDBRANCH  22  27
BRANCH  25  32
ATOM     32  C   UNL     1       2.118   3.728  21.273  0.00  0.00    +0.000 C 
BRANCH  32  33
ATOM     33  C   UNL     1       1.488   2.680  20.301  0.00  0.00    +0.000 C 
ATOM     34  C   UNL     1       0.583   3.220  19.194  0.00  0.00    +0.000 C 
ATOM     35  C   UNL     1       1.322   3.718  17.963  0.00  0.00    +0.000 C 
ATOM     36  C   UNL     1       2.382   2.765  17.417  0.00  0.00    +0.000 C 
ATOM     37  C   UNL     1       3.142   1.917  18.432  0.00  0.00    +0.000 C 
ATOM     38  C   UNL     1       2.408   1.589  19.726  0.00  0.00    +0.000 C 
ENDBRANCH  32  33
ENDBRANCH  25  32
ENDBRANCH  21  25
ENDBRANCH   1  21
TORSDOF 11
ENDMDL
MODEL 4
REMARK VINA RESULT:      -8.0      3.872      6.990
REMARK  Name = 
REMARK  12 active torsions:
REMARK  status: ('A' for Active; 'I' for Inactive)
REMARK    1  A    between atoms: C_1  and  C_2
REMARK    2  A    between atoms: C_2  and  C_3
REMARK    3  A    between atoms: C_3  and  C_4
REMARK    4  A    between atoms: C_4  and  C_5
REMARK    5  A    between atoms: C_5  and  N_6
REMARK    6  A    between atoms: N_9  and  C_10
REMARK    7  A    between atoms: N_9  and  C_29
REMARK    8  A    between atoms: C_10  and  C_11
REMARK    9  A    between atoms: C_11  and  N_12
REMARK   10  A    between atoms: C_18  and  C_19
REMARK   11  A    between atoms: C_23  and  C_24
REMARK   12  A    between atoms: C_29  and  C_30
REMARK                            x       y       z     vdW  Elec       q    Type
REMARK                         _______ _______ _______ _____ _____    ______ ____
ROOT
ATOM      1  C   UNL     1       1.657   8.970  19.636  0.00  0.00    +0.000 C 
ENDROOT
BRANCH   1   2
ATOM      2  N   UNL     1       0.630   9.890  19.129  0.00  0.00    +0.000 NA
ATOM      3  C   UNL     1       0.978  11.316  19.189  0.00  0.00    +0.000 C 
ATOM      4  C   UNL     1      -0.297  11.906  18.585  0.00  0.00    +0.000 C 
ATOM      5  C   UNL     1      -1.412  10.966  19.037  0.00  0.00    +0.000 C 
ATOM      6  C   UNL     1      -0.684   9.851  19.784  0.00  0.00    +0.000 C 
ATOM      7  C   UNL     1      -0.608  10.122  21.293  0.00  0.00    +0.000 C 
ATOM      8  C   UNL     1       0.189  11.393  21.684  0.00  0.00    +0.000 C 
ATOM      9  C   UNL     1       1.241  11.815  20.626  0.00  0.00    +0.000 C 
BRANCH   8  10
ATOM     10  C   UNL     1      -0.722  12.474  22.258  0.00  0.00    +0.000 A 
ATOM     11  C   UNL     1      -0.379  13.823  22.386  0.00  0.00    +0.000 A 
ATOM     12  C   UNL     1      -1.263  14.733  22.975  0.00  0.00    +0.000 A 
ATOM     13  C   UNL     1      -2.513  14.317  23.441  0.00  0.00    +0.000 A 
ATOM     14  C   UNL     1      -2.885  12.975  23.323  0.00  0.00    +0.000 A 
ATOM     15  C   UNL     1      -1.985  12.074  22.740  0.00  0.00    +0.000 A 
BRANCH  14  16
ATOM     16  C   UNL     1      -4.193  12.429  23.779  0.00  0.00    +0.000 C 
ATOM     17  N   UNL     1      -5.288  12.590  22.987  0.00  0.00    +0.000 N 
ATOM     18  O   UNL     1      -4.304  11.845  24.859  0.00  0.00    +0.000 OA
ATOM     19  H   UNL     1      -5.312  13.101  22.120  0.00  0.00    +0.000 HD
ATOM     20  H   UNL     1      -6.165  12.225  23.349  0.00  0.00    +0.000 HD
ENDBRANCH  14  16
ENDBRANCH   8  10
ENDBRANCH   1   2
BRANCH   1  21
ATOM     21  C   UNL     1       1.723   7.669  18.805  0.00  0.00    +0.000 C 
BRANCH  21  25
ATOM     22  N   UNL     1       4.156   6.879  17.693  0.00  0.00    +0.000 N 
ATOM     23  C   UNL     1       3.784   6.204  18.825  0.00  0.00    +0.000 C 
ATOM     24  O   UNL     1       4.534   5.416  19.389  0.00  0.00    +0.000 OA
ATOM     25  N   UNL     1       2.490   6.510  19.269  0.00  0.00    +0.000 N 
ATOM     26  H   UNL     1       3.435   6.852  17.009  0.00  0.00    +0.000 HD
BRANCH  22  27
ATOM     27  C   UNL     1       5.451   6.766  17.056  0.00  0.00    +0.000 C 
BRANCH  27  28
ATOM     28  C   UNL     1       5.311   6.068  15.706  0.00  0.00    +0.000 C 
BRANCH  28  29
ATOM     29  C   UNL     1       5.279   4.550  15.871  0.00  0.00    +0.000 C 
BRANCH  29  31
ATOM     30  C   UNL     1       7.016   4.843  14.087  0.00  0.00    +0.000 C 
ATOM     31  C   UNL     1       6.077   3.862  14.767  0.00  0.00    +0.000 C 
ENDBRANCH  29  31
ENDBRANCH  28  29
ENDBRANCH  27  28
ENDBRANCH  22  27
BRANCH  25  32
ATOM     32  C   UNL     1       2.059   5.932  20.549  0.00  0.00    +0.000 C 
BRANCH  32  33
ATOM     33  C   UNL     1       1.357   4.537  20.589  0.00  0.00    +0.000 C 
ATOM     34  C   UNL     1       0.942   3.934  19.248  0.00  0.00    +0.000 C 
ATOM     35  C   UNL     1       2.054   3.202  18.515  0.00  0.00    +0.000 C 
ATOM     36  C   UNL     1       2.844   2.211  19.366  0.00  0.00    +0.000 C 
ATOM     37  C   UNL     1       3.048   2.564  20.835  0.00  0.00    +0.000 C 
ATOM     38  C   UNL     1       1.981   3.445  21.474  0.00  0.00    +0.000 C 
ENDBRANCH  32  33
ENDBRANCH  25  32
ENDBRANCH  21  25
ENDBRANCH   1  21
TORSDOF 11
ENDMDL
MODEL 5
REMARK VINA RESULT:      -7.9      2.234      8.657
REMARK  Name = 
REMARK  12 active torsions:
REMARK  status: ('A' for Active; 'I' for Inactive)
REMARK    1  A    between atoms: C_1  and  C_2
REMARK    2  A    between atoms: C_2  and  C_3
REMARK    3  A    between atoms: C_3  and  C_4
REMARK    4  A    between atoms: C_4  and  C_5
REMARK    5  A    between atoms: C_5  and  N_6
REMARK    6  A    between atoms: N_9  and  C_10
REMARK    7  A    between atoms: N_9  and  C_29
REMARK    8  A    between atoms: C_10  and  C_11
REMARK    9  A    between atoms: C_11  and  N_12
REMARK   10  A    between atoms: C_18  and  C_19
REMARK   11  A    between atoms: C_23  and  C_24
REMARK   12  A    between atoms: C_29  and  C_30
REMARK                            x       y       z     vdW  Elec       q    Type
REMARK                         _______ _______ _______ _____ _____    ______ ____
ROOT
ATOM      1  C   UNL     1       4.582   5.314  19.365  0.00  0.00    +0.000 C 
ENDROOT
BRANCH   1   2
ATOM      2  N   UNL     1       5.780   5.877  18.729  0.00  0.00    +0.000 NA
ATOM      3  C   UNL     1       5.529   6.755  17.578  0.00  0.00    +0.000 C 
ATOM      4  C   UNL     1       6.972   7.122  17.228  0.00  0.00    +0.000 C 
ATOM      5  C   UNL     1       7.784   5.878  17.579  0.00  0.00    +0.000 C 
ATOM      6  C   UNL     1       6.765   4.925  18.198  0.00  0.00    +0.000 C 
ATOM      7  C   UNL     1       6.168   3.966  17.158  0.00  0.00    +0.000 C 
ATOM      8  C   UNL     1       5.369   4.655  16.023  0.00  0.00    +0.000 C 
ATOM      9  C   UNL     1       4.799   6.042  16.420  0.00  0.00    +0.000 C 
BRANCH   8  10
ATOM     10  C   UNL     1       6.081   4.533  14.679  0.00  0.00    +0.000 A 
ATOM     11  C   UNL     1       7.191   5.287  14.291  0.00  0.00    +0.000 A 
ATOM     12  C   UNL     1       7.744   5.142  13.015  0.00  0.00    +0.000 A 
ATOM     13  C   UNL     1       7.204   4.234  12.099  0.00  0.00    +0.000 A 
ATOM     14  C   UNL     1       6.095   3.464  12.461  0.00  0.00    +0.000 A 
ATOM     15  C   UNL     1       5.547   3.627  13.740  0.00  0.00    +0.000 A 
BRANCH  14  16
ATOM     16  C   UNL     1       5.448   2.464  11.567  0.00  0.00    +0.000 C 
ATOM     17  N   UNL     1       6.112   1.312  11.274  0.00  0.00    +0.000 N 
ATOM     18  O   UNL     1       4.332   2.663  11.083  0.00  0.00    +0.000 OA
ATOM     19  H   UNL     1       7.047   1.085  11.571  0.00  0.00    +0.000 HD
ATOM     20  H   UNL     1       5.644   0.670  10.640  0.00  0.00    +0.000 HD
ENDBRANCH  14  16
ENDBRANCH   8  10
ENDBRANCH   1   2
BRANCH   1  21
ATOM     21  C   UNL     1       3.390   6.297  19.314  0.00  0.00    +0.000 C 
BRANCH  21  25
ATOM     22  N   UNL     1       1.668   8.429  19.832  0.00  0.00    +0.000 N 
ATOM     23  C   UNL     1       1.363   7.260  20.478  0.00  0.00    +0.000 C 
ATOM     24  O   UNL     1       0.327   7.122  21.118  0.00  0.00    +0.000 OA
ATOM     25  N   UNL     1       2.330   6.257  20.325  0.00  0.00    +0.000 N 
ATOM     26  H   UNL     1       2.611   8.693  20.002  0.00  0.00    +0.000 HD
BRANCH  22  27
ATOM     27  C   UNL     1       0.819   9.601  19.808  0.00  0.00    +0.000 C 
BRANCH  27  28
ATOM     28  C   UNL     1       1.312  10.583  18.749  0.00  0.00    +0.000 C 
BRANCH  28  29
ATOM     29  C   UNL     1       0.939  12.018  19.111  0.00  0.00    +0.000 C 
BRANCH  29  31
ATOM     30  C   UNL     1       0.599  13.375  21.193  0.00  0.00    +0.000 C 
ATOM     31  C   UNL     1       0.261  12.079  20.477  0.00  0.00    +0.000 C 
ENDBRANCH  29  31
ENDBRANCH  28  29
ENDBRANCH  27  28
ENDBRANCH  22  27
BRANCH  25  32
ATOM     32  C   UNL     1       2.022   4.930  20.873  0.00  0.00    +0.000 C 
BRANCH  32  33
ATOM     33  C   UNL     1       1.184   3.907  20.040  0.00  0.00    +0.000 C 
ATOM     34  C   UNL     1       0.938   4.250  18.571  0.00  0.00    +0.000 C 
ATOM     35  C   UNL     1       2.076   3.873  17.637  0.00  0.00    +0.000 C 
ATOM     36  C   UNL     1       2.609   2.453  17.809  0.00  0.00    +0.000 C 
ATOM     37  C   UNL     1       2.601   1.874  19.220  0.00  0.00    +0.000 C 
ATOM     38  C   UNL     1       1.538   2.416  20.168  0.00  0.00    +0.000 C 
ENDBRANCH  32  33
ENDBRANCH  25  32
ENDBRANCH  21  25
ENDBRANCH   1  21
TORSDOF 11
ENDMDL
MODEL 6
REMARK VINA RESULT:      -7.9      2.493      9.011
REMARK  Name = 
REMARK  12 active torsions:
REMARK  status: ('A' for Active; 'I' for Inactive)
REMARK    1  A    between atoms: C_1  and  C_2
REMARK    2  A    between atoms: C_2  and  C_3
REMARK    3  A    between atoms: C_3  and  C_4
REMARK    4  A    between atoms: C_4  and  C_5
REMARK    5  A    between atoms: C_5  and  N_6
REMARK    6  A    between atoms: N_9  and  C_10
REMARK    7  A    between atoms: N_9  and  C_29
REMARK    8  A    between atoms: C_10  and  C_11
REMARK    9  A    between atoms: C_11  and  N_12
REMARK   10  A    between atoms: C_18  and  C_19
REMARK   11  A    between atoms: C_23  and  C_24
REMARK   12  A    between atoms: C_29  and  C_30
REMARK                            x       y       z     vdW  Elec       q    Type
REMARK                         _______ _______ _______ _____ _____    ______ ____
ROOT
ATOM      1  C   UNL     1       3.680   6.176  18.431  0.00  0.00    +0.000 C 
ENDROOT
BRANCH   1   2
ATOM      2  N   UNL     1       5.117   5.924  18.266  0.00  0.00    +0.000 NA
ATOM      3  C   UNL     1       5.811   6.822  17.331  0.00  0.00    +0.000 C 
ATOM      4  C   UNL     1       7.226   6.255  17.448  0.00  0.00    +0.000 C 
ATOM      5  C   UNL     1       7.026   4.760  17.683  0.00  0.00    +0.000 C 
ATOM      6  C   UNL     1       5.512   4.593  17.784  0.00  0.00    +0.000 C 
ATOM      7  C   UNL     1       4.880   4.235  16.432  0.00  0.00    +0.000 C 
ATOM      8  C   UNL     1       5.047   5.314  15.332  0.00  0.00    +0.000 C 
ATOM      9  C   UNL     1       5.255   6.745  15.893  0.00  0.00    +0.000 C 
BRANCH   8  10
ATOM     10  C   UNL     1       5.976   4.842  14.217  0.00  0.00    +0.000 A 
ATOM     11  C   UNL     1       7.235   5.383  13.942  0.00  0.00    +0.000 A 
ATOM     12  C   UNL     1       7.993   4.919  12.862  0.00  0.00    +0.000 A 
ATOM     13  C   UNL     1       7.514   3.895  12.039  0.00  0.00    +0.000 A 
ATOM     14  C   UNL     1       6.260   3.332  12.293  0.00  0.00    +0.000 A 
ATOM     15  C   UNL     1       5.509   3.815  13.372  0.00  0.00    +0.000 A 
BRANCH  14  16
ATOM     16  C   UNL     1       5.661   2.235  11.484  0.00  0.00    +0.000 C 
ATOM     17  N   UNL     1       6.410   1.133  11.208  0.00  0.00    +0.000 N 
ATOM     18  O   UNL     1       4.507   2.310  11.055  0.00  0.00    +0.000 OA
ATOM     19  H   UNL     1       7.376   1.004  11.462  0.00  0.00    +0.000 HD
ATOM     20  H   UNL     1       5.970   0.420  10.631  0.00  0.00    +0.000 HD
ENDBRANCH  14  16
ENDBRANCH   8  10
ENDBRANCH   1   2
BRANCH   1  21
ATOM     21  C   UNL     1       3.227   5.975  19.895  0.00  0.00    +0.000 C 
BRANCH  21  25
ATOM     22  N   UNL     1       1.896   7.847  21.478  0.00  0.00    +0.000 N 
ATOM     23  C   UNL     1       1.098   6.896  20.901  0.00  0.00    +0.000 C 
ATOM     24  O   UNL     1      -0.125   6.952  20.956  0.00  0.00    +0.000 OA
ATOM     25  N   UNL     1       1.807   5.880  20.244  0.00  0.00    +0.000 N 
ATOM     26  H   UNL     1       2.640   7.426  21.986  0.00  0.00    +0.000 HD
BRANCH  22  27
ATOM     27  C   UNL     1       1.408   9.013  22.183  0.00  0.00    +0.000 C 
BRANCH  27  28
ATOM     28  C   UNL     1       1.115  10.138  21.195  0.00  0.00    +0.000 C 
BRANCH  28  29
ATOM     29  C   UNL     1      -0.379  10.451  21.144  0.00  0.00    +0.000 C 
BRANCH  29  31
ATOM     30  C   UNL     1      -1.490  11.523  23.120  0.00  0.00    +0.000 C 
ATOM     31  C   UNL     1      -0.686  11.766  21.855  0.00  0.00    +0.000 C 
ENDBRANCH  29  31
ENDBRANCH  28  29
ENDBRANCH  27  28
ENDBRANCH  22  27
BRANCH  25  32
ATOM     32  C   UNL     1       1.029   4.893  19.485  0.00  0.00    +0.000 C 
BRANCH  32  33
ATOM     33  C   UNL     1       1.015   3.393  19.923  0.00  0.00    +0.000 C 
ATOM     34  C   UNL     1       1.612   2.382  18.945  0.00  0.00    +0.000 C 
ATOM     35  C   UNL     1       3.124   2.249  19.022  0.00  0.00    +0.000 C 
ATOM     36  C   UNL     1       3.687   2.080  20.431  0.00  0.00    +0.000 C 
ATOM     37  C   UNL     1       2.959   2.802  21.561  0.00  0.00    +0.000 C 
ATOM     38  C   UNL     1       1.471   3.058  21.353  0.00  0.00    +0.000 C 
ENDBRANCH  32  33
ENDBRANCH  25  32
ENDBRANCH  21  25
ENDBRANCH   1  21
TORSDOF 11
ENDMDL
MODEL 7
REMARK VINA RESULT:      -7.8      1.173      1.567
REMARK  Name = 
REMARK  12 active torsions:
REMARK  status: ('A' for Active; 'I' for Inactive)
REMARK    1  A    between atoms: C_1  and  C_2
REMARK    2  A    between atoms: C_2  and  C_3
REMARK    3  A    between atoms: C_3  and  C_4
REMARK    4  A    between atoms: C_4  and  C_5
REMARK    5  A    between atoms: C_5  and  N_6
REMARK    6  A    between atoms: N_9  and  C_10
REMARK    7  A    between atoms: N_9  and  C_29
REMARK    8  A    between atoms: C_10  and  C_11
REMARK    9  A    between atoms: C_11  and  N_12
REMARK   10  A    between atoms: C_18  and  C_19
REMARK   11  A    between atoms: C_23  and  C_24
REMARK   12  A    between atoms: C_29  and  C_30
REMARK                            x       y       z     vdW  Elec       q    Type
REMARK                         _______ _______ _______ _____ _____    ______ ____
ROOT
ATOM      1  C   UNL     1       4.770   3.360  17.987  0.00  0.00    +0.000 C 
ENDROOT
BRANCH   1   2
ATOM      2  N   UNL     1       3.316   3.402  18.190  0.00  0.00    +0.000 NA
ATOM      3  C   UNL     1       2.605   4.445  17.437  0.00  0.00    +0.000 C 
ATOM      4  C   UNL     1       1.177   4.154  17.900  0.00  0.00    +0.000 C 
ATOM      5  C   UNL     1       1.328   3.664  19.338  0.00  0.00    +0.000 C 
ATOM      6  C   UNL     1       2.838   3.614  19.562  0.00  0.00    +0.000 C 
ATOM      7  C   UNL     1       3.370   4.911  20.187  0.00  0.00    +0.000 C 
ATOM      8  C   UNL     1       3.181   6.177  19.313  0.00  0.00    +0.000 C 
ATOM      9  C   UNL     1       3.068   5.873  17.796  0.00  0.00    +0.000 C 
BRANCH   8  10
ATOM     10  C   UNL     1       2.166   7.138  19.926  0.00  0.00    +0.000 A 
ATOM     11  C   UNL     1       1.333   6.838  21.007  0.00  0.00    +0.000 A 
ATOM     12  C   UNL     1       0.395   7.768  21.466  0.00  0.00    +0.000 A 
ATOM     13  C   UNL     1       0.275   9.023  20.862  0.00  0.00    +0.000 A 
ATOM     14  C   UNL     1       1.098   9.352  19.782  0.00  0.00    +0.000 A 
ATOM     15  C   UNL     1       2.026   8.406  19.326  0.00  0.00    +0.000 A 
BRANCH  14  16
ATOM     16  C   UNL     1       1.058  10.661  19.072  0.00  0.00    +0.000 C 
ATOM     17  N   UNL     1       0.590  11.755  19.731  0.00  0.00    +0.000 N 
ATOM     18  O   UNL     1       1.430  10.768  17.901  0.00  0.00    +0.000 OA
ATOM     19  H   UNL     1       0.210  11.758  20.664  0.00  0.00    +0.000 HD
ATOM     20  H   UNL     1       0.556  12.622  19.201  0.00  0.00    +0.000 HD
ENDBRANCH  14  16
ENDBRANCH   8  10
ENDBRANCH   1   2
BRANCH   1  21
ATOM     21  C   UNL     1       5.140   3.347  16.487  0.00  0.00    +0.000 C 
BRANCH  21  25
ATOM     22  N   UNL     1       5.709   3.773  13.790  0.00  0.00    +0.000 N 
ATOM     23  C   UNL     1       6.601   4.325  14.670  0.00  0.00    +0.000 C 
ATOM     24  O   UNL     1       7.499   5.075  14.302  0.00  0.00    +0.000 OA
ATOM     25  N   UNL     1       6.380   3.963  16.006  0.00  0.00    +0.000 N 
ATOM     26  H   UNL     1       5.584   2.804  13.971  0.00  0.00    +0.000 HD
BRANCH  22  27
ATOM     27  C   UNL     1       5.702   4.018  12.363  0.00  0.00    +0.000 C 
BRANCH  27  28
ATOM     28  C   UNL     1       6.533   2.958  11.646  0.00  0.00    +0.000 C 
BRANCH  28  29
ATOM     29  C   UNL     1       5.725   1.683  11.420  0.00  0.00    +0.000 C 
BRANCH  29  31
ATOM     30  C   UNL     1       5.926  -0.816  11.331  0.00  0.00    +0.000 C 
ATOM     31  C   UNL     1       6.641   0.504  11.102  0.00  0.00    +0.000 C 
ENDBRANCH  29  31
ENDBRANCH  28  29
ENDBRANCH  27  28
ENDBRANCH  22  27
BRANCH  25  32
ATOM     32  C   UNL     1       7.207   4.614  17.030  0.00  0.00    +0.000 C 
BRANCH  32  33
ATOM     33  C   UNL     1       6.610   5.747  17.924  0.00  0.00    +0.000 C 
ATOM     34  C   UNL     1       7.194   5.900  19.328  0.00  0.00    +0.000 C 
ATOM     35  C   UNL     1       8.477   6.711  19.392  0.00  0.00    +0.000 C 
ATOM     36  C   UNL     1       8.437   8.042  18.644  0.00  0.00    +0.000 C 
ATOM     37  C   UNL     1       7.601   8.097  17.369  0.00  0.00    +0.000 C 
ATOM     38  C   UNL     1       6.420   7.136  17.292  0.00  0.00    +0.000 C 
ENDBRANCH  32  33
ENDBRANCH  25  32
ENDBRANCH  21  25
ENDBRANCH   1  21
TORSDOF 11
ENDMDL
MODEL 8
REMARK VINA RESULT:      -7.8      2.121      8.445
REMARK  Name = 
REMARK  12 active torsions:
REMARK  status: ('A' for Active; 'I' for Inactive)
REMARK    1  A    between atoms: C_1  and  C_2
REMARK    2  A    between atoms: C_2  and  C_3
REMARK    3  A    between atoms: C_3  and  C_4
REMARK    4  A    between atoms: C_4  and  C_5
REMARK    5  A    between atoms: C_5  and  N_6
REMARK    6  A    between atoms: N_9  and  C_10
REMARK    7  A    between atoms: N_9  and  C_29
REMARK    8  A    between atoms: C_10  and  C_11
REMARK    9  A    between atoms: C_11  and  N_12
REMARK   10  A    between atoms: C_18  and  C_19
REMARK   11  A    between atoms: C_23  and  C_24
REMARK   12  A    between atoms: C_29  and  C_30
REMARK                            x       y       z     vdW  Elec       q    Type
REMARK                         _______ _______ _______ _____ _____    ______ ____
ROOT
ATOM      1  C   UNL     1       4.671   5.310  19.393  0.00  0.00    +0.000 C 
ENDROOT
BRANCH   1   2
ATOM      2  N   UNL     1       5.824   5.929  18.727  0.00  0.00    +0.000 NA
ATOM      3  C   UNL     1       5.504   6.768  17.564  0.00  0.00    +0.000 C 
ATOM      4  C   UNL     1       6.917   7.212  17.183  0.00  0.00    +0.000 C 
ATOM      5  C   UNL     1       7.807   6.025  17.544  0.00  0.00    +0.000 C 
ATOM      6  C   UNL     1       6.855   5.026  18.198  0.00  0.00    +0.000 C 
ATOM      7  C   UNL     1       6.300   4.013  17.187  0.00  0.00    +0.000 C 
ATOM      8  C   UNL     1       5.444   4.631  16.053  0.00  0.00    +0.000 C 
ATOM      9  C   UNL     1       4.799   5.990  16.432  0.00  0.00    +0.000 C 
BRANCH   8  10
ATOM     10  C   UNL     1       6.141   4.524  14.699  0.00  0.00    +0.000 A 
ATOM     11  C   UNL     1       7.238   5.293  14.302  0.00  0.00    +0.000 A 
ATOM     12  C   UNL     1       7.777   5.161  13.018  0.00  0.00    +0.000 A 
ATOM     13  C   UNL     1       7.236   4.250  12.105  0.00  0.00    +0.000 A 
ATOM     14  C   UNL     1       6.141   3.466  12.476  0.00  0.00    +0.000 A 
ATOM     15  C   UNL     1       5.606   3.617  13.762  0.00  0.00    +0.000 A 
BRANCH  14  16
ATOM     16  C   UNL     1       5.495   2.462  11.585  0.00  0.00    +0.000 C 
ATOM     17  N   UNL     1       6.159   1.310  11.297  0.00  0.00    +0.000 N 
ATOM     18  O   UNL     1       4.379   2.660  11.099  0.00  0.00    +0.000 OA
ATOM     19  H   UNL     1       7.094   1.084  11.595  0.00  0.00    +0.000 HD
ATOM     20  H   UNL     1       5.692   0.666  10.664  0.00  0.00    +0.000 HD
ENDBRANCH  14  16
ENDBRANCH   8  10
ENDBRANCH   1   2
BRANCH   1  21
ATOM     21  C   UNL     1       3.517   6.318  19.597  0.00  0.00    +0.000 C 
BRANCH  21  25
ATOM     22  N   UNL     1       2.049   8.588  18.910  0.00  0.00    +0.000 N 
ATOM     23  C   UNL     1       1.678   7.435  18.269  0.00  0.00    +0.000 C 
ATOM     24  O   UNL     1       0.862   7.433  17.354  0.00  0.00    +0.000 OA
ATOM     25  N   UNL     1       2.323   6.286  18.748  0.00  0.00    +0.000 N 
ATOM     26  H   UNL     1       2.054   8.461  19.896  0.00  0.00    +0.000 HD
BRANCH  22  27
ATOM     27  C   UNL     1       1.555   9.907  18.580  0.00  0.00    +0.000 C 
BRANCH  27  28
ATOM     28  C   UNL     1       0.142  10.090  19.129  0.00  0.00    +0.000 C 
BRANCH  28  29
ATOM     29  C   UNL     1       0.036   9.573  20.562  0.00  0.00    +0.000 C 
BRANCH  29  31
ATOM     30  C   UNL     1      -0.619  10.671  22.719  0.00  0.00    +0.000 C 
ATOM     31  C   UNL     1       0.369  10.672  21.566  0.00  0.00    +0.000 C 
ENDBRANCH  29  31
ENDBRANCH  28  29
ENDBRANCH  27  28
ENDBRANCH  22  27
BRANCH  25  32
ATOM     32  C   UNL     1       2.085   5.027  18.030  0.00  0.00    +0.000 C 
BRANCH  32  33
ATOM     33  C   UNL     1       1.342   3.846  18.733  0.00  0.00    +0.000 C 
ATOM     34  C   UNL     1       1.968   2.459  18.599  0.00  0.00    +0.000 C 
ATOM     35  C   UNL     1       3.082   2.172  19.593  0.00  0.00    +0.000 C 
ATOM     36  C   UNL     1       2.754   2.511  21.045  0.00  0.00    +0.000 C 
ATOM     37  C   UNL     1       1.850   3.715  21.290  0.00  0.00    +0.000 C 
ATOM     38  C   UNL     1       0.864   4.057  20.180  0.00  0.00    +0.000 C 
ENDBRANCH  32  33
ENDBRANCH  25  32
ENDBRANCH  21  25
ENDBRANCH   1  21
TORSDOF 11
ENDMDL
MODEL 9
REMARK VINA RESULT:      -7.7      2.400      8.205
REMARK  Name = 
REMARK  12 active torsions:
REMARK  status: ('A' for Active; 'I' for Inactive)
REMARK    1  A    between atoms: C_1  and  C_2
REMARK    2  A    between atoms: C_2  and  C_3
REMARK    3  A    between atoms: C_3  and  C_4
REMARK    4  A    between atoms: C_4  and  C_5
REMARK    5  A    between atoms: C_5  and  N_6
REMARK    6  A    between atoms: N_9  and  C_10
REMARK    7  A    between atoms: N_9  and  C_29
REMARK    8  A    between atoms: C_10  and  C_11
REMARK    9  A    between atoms: C_11  and  N_12
REMARK   10  A    between atoms: C_18  and  C_19
REMARK   11  A    between atoms: C_23  and  C_24
REMARK   12  A    between atoms: C_29  and  C_30
REMARK                            x       y       z     vdW  Elec       q    Type
REMARK                         _______ _______ _______ _____ _____    ______ ____
ROOT
ATOM      1  C   UNL     1       4.008   5.775  18.520  0.00  0.00    +0.000 C 
ENDROOT
BRANCH   1   2
ATOM      2  N   UNL     1       5.442   5.776  18.205  0.00  0.00    +0.000 NA
ATOM      3  C   UNL     1       5.861   6.744  17.181  0.00  0.00    +0.000 C 
ATOM      4  C   UNL     1       7.360   6.442  17.155  0.00  0.00    +0.000 C 
ATOM      5  C   UNL     1       7.460   4.946  17.443  0.00  0.00    +0.000 C 
ATOM      6  C   UNL     1       6.019   4.518  17.712  0.00  0.00    +0.000 C 
ATOM      7  C   UNL     1       5.326   3.999  16.444  0.00  0.00    +0.000 C 
ATOM      8  C   UNL     1       5.182   5.044  15.310  0.00  0.00    +0.000 C 
ATOM      9  C   UNL     1       5.183   6.511  15.814  0.00  0.00    +0.000 C 
BRANCH   8  10
ATOM     10  C   UNL     1       6.061   4.700  14.111  0.00  0.00    +0.000 A 
ATOM     11  C   UNL     1       7.197   5.413  13.722  0.00  0.00    +0.000 A 
ATOM     12  C   UNL     1       7.910   5.052  12.574  0.00  0.00    +0.000 A 
ATOM     13  C   UNL     1       7.508   3.964  11.794  0.00  0.00    +0.000 A 
ATOM     14  C   UNL     1       6.377   3.229  12.162  0.00  0.00    +0.000 A 
ATOM     15  C   UNL     1       5.668   3.609  13.308  0.00  0.00    +0.000 A 
BRANCH  14  16
ATOM     16  C   UNL     1       5.868   2.051  11.407  0.00  0.00    +0.000 C 
ATOM     17  N   UNL     1       6.734   1.057  11.071  0.00  0.00    +0.000 N 
ATOM     18  O   UNL     1       4.683   1.964  11.075  0.00  0.00    +0.000 OA
ATOM     19  H   UNL     1       7.727   1.063  11.244  0.00  0.00    +0.000 HD
ATOM     20  H   UNL     1       6.350   0.284  10.535  0.00  0.00    +0.000 HD
ENDBRANCH  14  16
ENDBRANCH   8  10
ENDBRANCH   1   2
BRANCH   1  21
ATOM     21  C   UNL     1       3.519   7.169  18.973  0.00  0.00    +0.000 C 
BRANCH  21  25
ATOM     22  N   UNL     1       2.214   5.165  20.408  0.00  0.00    +0.000 N 
ATOM     23  C   UNL     1       1.624   6.400  20.460  0.00  0.00    +0.000 C 
ATOM     24  O   UNL     1       0.678   6.638  21.202  0.00  0.00    +0.000 OA
ATOM     25  N   UNL     1       2.209   7.346  19.606  0.00  0.00    +0.000 N 
ATOM     26  H   UNL     1       2.361   4.881  19.467  0.00  0.00    +0.000 HD
BRANCH  22  27
ATOM     27  C   UNL     1       1.819   4.030  21.215  0.00  0.00    +0.000 C 
BRANCH  27  28
ATOM     28  C   UNL     1       1.399   2.870  20.316  0.00  0.00    +0.000 C 
BRANCH  28  29
ATOM     29  C   UNL     1       1.137   3.344  18.889  0.00  0.00    +0.000 C 
BRANCH  29  31
ATOM     30  C   UNL     1       3.047   1.743  18.611  0.00  0.00    +0.000 C 
ATOM     31  C   UNL     1       2.184   2.789  17.927  0.00  0.00    +0.000 C 
ENDBRANCH  29  31
ENDBRANCH  28  29
ENDBRANCH  27  28
ENDBRANCH  22  27
BRANCH  25  32
ATOM     32  C   UNL     1       1.726   8.729  19.696  0.00  0.00    +0.000 C 
BRANCH  32  33
ATOM     33  C   UNL     1       1.332   9.513  18.403  0.00  0.00    +0.000 C 
ATOM     34  C   UNL     1      -0.143   9.878  18.239  0.00  0.00    +0.000 C 
ATOM     35  C   UNL     1      -0.564  11.142  18.971  0.00  0.00    +0.000 C 
ATOM     36  C   UNL     1       0.348  12.347  18.756  0.00  0.00    +0.000 C 
ATOM     37  C   UNL     1       1.838  12.068  18.580  0.00  0.00    +0.000 C 
ATOM     38  C   UNL     1       2.207  10.710  17.994  0.00  0.00    +0.000 C 
ENDBRANCH  32  33
ENDBRANCH  25  32
ENDBRANCH  21  25
ENDBRANCH   1  21
TORSDOF 11
ENDMDL
