MODEL 1
REMARK VINA RESULT:      -8.8      0.000      0.000
REMARK  Name = 
REMARK  9 active torsions:
REMARK  status: ('A' for Active; 'I' for Inactive)
REMARK    1  A    between atoms: C_1  and  C_2
REMARK    2  A    between atoms: C_7  and  N_8
REMARK    3  A    between atoms: C_14  and  C_15
REMARK    4  A    between atoms: C_14  and  C_16
REMARK    5  A    between atoms: C_18  and  N_19
REMARK    6  A    between atoms: N_19  and  C_20
REMARK    7  A    between atoms: N_23  and  C_24
REMARK    8  A    between atoms: C_24  and  C_25
REMARK    9  A    between atoms: C_24  and  C_26
REMARK                            x       y       z     vdW  Elec       q    Type
REMARK                         _______ _______ _______ _____ _____    ______ ____
ROOT
ATOM      1  N   UNL     1       1.627   8.567  19.664  0.00  0.00    +0.000 N 
ATOM      2  N   UNL     1       1.967   9.204  18.516  0.00  0.00    +0.000 NA
ATOM      3  C   UNL     1       2.657   8.301  17.819  0.00  0.00    +0.000 A 
ATOM      4  C   UNL     1       2.734   7.050  18.457  0.00  0.00    +0.000 A 
ATOM      5  C   UNL     1       2.015   7.237  19.616  0.00  0.00    +0.000 A 
ATOM      6  C   UNL     1       1.581   6.191  20.563  0.00  0.00    +0.000 C 
ATOM      7  C   UNL     1       1.983   4.752  20.165  0.00  0.00    +0.000 C 
ATOM      8  C   UNL     1       0.700   3.895  20.069  0.00  0.00    +0.000 C 
ATOM      9  C   UNL     1       2.828   4.190  21.337  0.00  0.00    +0.000 C 
ATOM     10  C   UNL     1       2.787   4.547  18.845  0.00  0.00    +0.000 C 
ATOM     11  C   UNL     1       3.273   5.747  17.989  0.00  0.00    +0.000 C 
ENDROOT
BRANCH   1  18
ATOM     12  C   UNL     1      -0.772  10.265  19.070  0.00  0.00    +0.000 C 
ATOM     13  C   UNL     1      -0.249   9.991  20.453  0.00  0.00    +0.000 A 
ATOM     14  C   UNL     1      -0.989  10.471  21.552  0.00  0.00    +0.000 A 
ATOM     15  C   UNL     1      -0.615  10.183  22.866  0.00  0.00    +0.000 A 
ATOM     16  C   UNL     1       0.533   9.446  23.112  0.00  0.00    +0.000 A 
ATOM     17  C   UNL     1       1.296   8.988  22.042  0.00  0.00    +0.000 A 
ATOM     18  C   UNL     1       0.895   9.209  20.709  0.00  0.00    +0.000 A 
ENDBRANCH   1  18
BRANCH  11  19
ATOM     19  N   UNL     1       4.744   5.820  17.933  0.00  0.00    +0.000 NA
ATOM     20  H   UNL     1       5.007   6.382  17.124  0.00  0.00    +0.000 HD
BRANCH  19  21
ATOM     21  C   UNL     1       5.422   4.503  17.855  0.00  0.00    +0.000 C 
ATOM     22  C   UNL     1       6.896   4.651  17.465  0.00  0.00    +0.000 C 
ATOM     23  C   UNL     1       7.072   5.099  16.017  0.00  0.00    +0.000 C 
ATOM     24  N   UNL     1       6.405   4.189  15.060  0.00  0.00    +0.000 NA
ATOM     25  C   UNL     1       4.988   3.985  15.422  0.00  0.00    +0.000 C 
ATOM     26  C   UNL     1       4.802   3.522  16.860  0.00  0.00    +0.000 C 
BRANCH  24  27
ATOM     27  C   UNL     1       6.551   4.665  13.660  0.00  0.00    +0.000 C 
ATOM     28  C   UNL     1       7.956   5.221  13.370  0.00  0.00    +0.000 C 
ATOM     29  C   UNL     1       6.278   3.549  12.635  0.00  0.00    +0.000 C 
ENDBRANCH  24  27
ENDBRANCH  19  21
ENDBRANCH  11  19
TORSDOF 4
ENDMDL
MODEL 2
REMARK VINA RESULT:      -8.4      0.959      1.453
REMARK  Name = 
REMARK  9 active torsions:
REMARK  status: ('A' for Active; 'I' for Inactive)
REMARK    1  A    between atoms: C_1  and  C_2
REMARK    2  A    between atoms: C_7  and  N_8
REMARK    3  A    between atoms: C_14  and  C_15
REMARK    4  A    between atoms: C_14  and  C_16
REMARK    5  A    between atoms: C_18  and  N_19
REMARK    6  A    between atoms: N_19  and  C_20
REMARK    7  A    between atoms: N_23  and  C_24
REMARK    8  A    between atoms: C_24  and  C_25
REMARK    9  A    between atoms: C_24  and  C_26
REMARK                            x       y       z     vdW  Elec       q    Type
REMARK                         _______ _______ _______ _____ _____    ______ ____
ROOT
ATOM      1  N   UNL     1       1.732   8.440  19.679  0.00  0.00    +0.000 N 
ATOM      2  N   UNL     1       2.150   9.049  18.541  0.00  0.00    +0.000 NA
ATOM      3  C   UNL     1       2.816   8.104  17.876  0.00  0.00    +0.000 A 
ATOM      4  C   UNL     1       2.799   6.856  18.523  0.00  0.00    +0.000 A 
ATOM      5  C   UNL     1       2.047   7.090  19.652  0.00  0.00    +0.000 A 
ATOM      6  C   UNL     1       1.521   6.077  20.588  0.00  0.00    +0.000 C 
ATOM      7  C   UNL     1       1.857   4.615  20.214  0.00  0.00    +0.000 C 
ATOM      8  C   UNL     1       0.534   3.829  20.072  0.00  0.00    +0.000 C 
ATOM      9  C   UNL     1       2.625   4.017  21.421  0.00  0.00    +0.000 C 
ATOM     10  C   UNL     1       2.700   4.357  18.927  0.00  0.00    +0.000 C 
ATOM     11  C   UNL     1       3.283   5.522  18.084  0.00  0.00    +0.000 C 
ENDROOT
BRANCH   1  18
ATOM     12  C   UNL     1      -0.576  10.225  18.985  0.00  0.00    +0.000 C 
ATOM     13  C   UNL     1      -0.106   9.953  20.387  0.00  0.00    +0.000 A 
ATOM     14  C   UNL     1      -0.858  10.481  21.456  0.00  0.00    +0.000 A 
ATOM     15  C   UNL     1      -0.536  10.200  22.785  0.00  0.00    +0.000 A 
ATOM     16  C   UNL     1       0.573   9.421  23.078  0.00  0.00    +0.000 A 
ATOM     17  C   UNL     1       1.347   8.914  22.038  0.00  0.00    +0.000 A 
ATOM     18  C   UNL     1       0.996   9.129  20.691  0.00  0.00    +0.000 A 
ENDBRANCH   1  18
BRANCH  11  19
ATOM     19  N   UNL     1       4.757   5.513  18.085  0.00  0.00    +0.000 NA
ATOM     20  H   UNL     1       5.077   5.459  19.051  0.00  0.00    +0.000 HD
BRANCH  19  21
ATOM     21  C   UNL     1       5.380   6.689  17.429  0.00  0.00    +0.000 C 
ATOM     22  C   UNL     1       4.850   6.885  16.005  0.00  0.00    +0.000 C 
ATOM     23  C   UNL     1       5.331   5.795  15.051  0.00  0.00    +0.000 C 
ATOM     24  N   UNL     1       6.806   5.690  15.011  0.00  0.00    +0.000 NA
ATOM     25  C   UNL     1       7.363   5.539  16.371  0.00  0.00    +0.000 C 
ATOM     26  C   UNL     1       6.903   6.632  17.327  0.00  0.00    +0.000 C 
BRANCH  24  27
ATOM     27  C   UNL     1       7.252   4.596  14.111  0.00  0.00    +0.000 C 
ATOM     28  C   UNL     1       6.084   3.722  13.621  0.00  0.00    +0.000 C 
ATOM     29  C   UNL     1       7.981   5.129  12.865  0.00  0.00    +0.000 C 
ENDBRANCH  24  27
ENDBRANCH  19  21
ENDBRANCH  11  19
TORSDOF 4
ENDMDL
MODEL 3
REMARK VINA RESULT:      -8.1      4.247     10.520
REMARK  Name = 
REMARK  9 active torsions:
REMARK  status: ('A' for Active; 'I' for Inactive)
REMARK    1  A    between atoms: C_1  and  C_2
REMARK    2  A    between atoms: C_7  and  N_8
REMARK    3  A    between atoms: C_14  and  C_15
REMARK    4  A    between atoms: C_14  and  C_16
REMARK    5  A    between atoms: C_18  and  N_19
REMARK    6  A    between atoms: N_19  and  C_20
REMARK    7  A    between atoms: N_23  and  C_24
REMARK    8  A    between atoms: C_24  and  C_25
REMARK    9  A    between atoms: C_24  and  C_26
REMARK                            x       y       z     vdW  Elec       q    Type
REMARK                         _______ _______ _______ _____ _____    ______ ____
ROOT
ATOM      1  N   UNL     1       0.283  10.692  18.778  0.00  0.00    +0.000 N 
ATOM      2  N   UNL     1      -0.964  10.626  18.249  0.00  0.00    +0.000 NA
ATOM      3  C   UNL     1      -1.417  11.880  18.289  0.00  0.00    +0.000 A 
ATOM      4  C   UNL     1      -0.469  12.794  18.781  0.00  0.00    +0.000 A 
ATOM      5  C   UNL     1       0.633  12.009  19.035  0.00  0.00    +0.000 A 
ATOM      6  C   UNL     1       1.994  12.478  19.361  0.00  0.00    +0.000 C 
ATOM      7  C   UNL     1       2.158  14.014  19.392  0.00  0.00    +0.000 C 
ATOM      8  C   UNL     1       3.262  14.410  18.386  0.00  0.00    +0.000 C 
ATOM      9  C   UNL     1       2.674  14.374  20.810  0.00  0.00    +0.000 C 
ATOM     10  C   UNL     1       0.908  14.898  19.092  0.00  0.00    +0.000 C 
ATOM     11  C   UNL     1      -0.496  14.277  18.866  0.00  0.00    +0.000 C 
ENDROOT
BRANCH   1  18
ATOM     12  C   UNL     1       0.421   9.237  21.396  0.00  0.00    +0.000 C 
ATOM     13  C   UNL     1       1.169   8.827  20.158  0.00  0.00    +0.000 A 
ATOM     14  C   UNL     1       1.901   7.623  20.190  0.00  0.00    +0.000 A 
ATOM     15  C   UNL     1       2.549   7.131  19.055  0.00  0.00    +0.000 A 
ATOM     16  C   UNL     1       2.518   7.856  17.873  0.00  0.00    +0.000 A 
ATOM     17  C   UNL     1       1.827   9.063  17.828  0.00  0.00    +0.000 A 
ATOM     18  C   UNL     1       1.108   9.538  18.943  0.00  0.00    +0.000 A 
ENDBRANCH   1  18
BRANCH  11  19
ATOM     19  N   UNL     1      -1.451  14.688  19.912  0.00  0.00    +0.000 NA
ATOM     20  H   UNL     1      -1.922  15.537  19.601  0.00  0.00    +0.000 HD
BRANCH  19  21
ATOM     21  C   UNL     1      -0.841  14.928  21.242  0.00  0.00    +0.000 C 
ATOM     22  C   UNL     1      -0.790  13.645  22.077  0.00  0.00    +0.000 C 
ATOM     23  C   UNL     1      -2.175  13.188  22.526  0.00  0.00    +0.000 C 
ATOM     24  N   UNL     1      -2.896  14.234  23.285  0.00  0.00    +0.000 NA
ATOM     25  C   UNL     1      -2.934  15.504  22.532  0.00  0.00    +0.000 C 
ATOM     26  C   UNL     1      -1.555  15.977  22.094  0.00  0.00    +0.000 C 
BRANCH  24  27
ATOM     27  C   UNL     1      -4.257  13.786  23.676  0.00  0.00    +0.000 C 
ATOM     28  C   UNL     1      -5.150  13.484  22.460  0.00  0.00    +0.000 C 
ATOM     29  C   UNL     1      -4.224  12.517  24.547  0.00  0.00    +0.000 C 
ENDBRANCH  24  27
ENDBRANCH  19  21
ENDBRANCH  11  19
TORSDOF 4
ENDMDL
MODEL 4
REMARK VINA RESULT:      -8.1      2.284      3.961
REMARK  Name = 
REMARK  9 active torsions:
REMARK  status: ('A' for Active; 'I' for Inactive)
REMARK    1  A    between atoms: C_1  and  C_2
REMARK    2  A    between atoms: C_7  and  N_8
REMARK    3  A    between atoms: C_14  and  C_15
REMARK    4  A    between atoms: C_14  and  C_16
REMARK    5  A    between atoms: C_18  and  N_19
REMARK    6  A    between atoms: N_19  and  C_20
REMARK    7  A    between atoms: N_23  and  C_24
REMARK    8  A    between atoms: C_24  and  C_25
REMARK    9  A    between atoms: C_24  and  C_26
REMARK                            x       y       z     vdW  Elec       q    Type
REMARK                         _______ _______ _______ _____ _____    ______ ____
ROOT
ATOM      1  N   UNL     1       1.519  10.820  18.588  0.00  0.00    +0.000 N 
ATOM      2  N   UNL     1       1.697  10.150  17.422  0.00  0.00    +0.000 NA
ATOM      3  C   UNL     1       1.819   8.871  17.781  0.00  0.00    +0.000 A 
ATOM      4  C   UNL     1       1.666   8.668  19.163  0.00  0.00    +0.000 A 
ATOM      5  C   UNL     1       1.419   9.932  19.649  0.00  0.00    +0.000 A 
ATOM      6  C   UNL     1       0.964  10.282  21.009  0.00  0.00    +0.000 C 
ATOM      7  C   UNL     1       0.740   9.073  21.946  0.00  0.00    +0.000 C 
ATOM      8  C   UNL     1      -0.721   9.108  22.450  0.00  0.00    +0.000 C 
ATOM      9  C   UNL     1       1.659   9.292  23.176  0.00  0.00    +0.000 C 
ATOM     10  C   UNL     1       1.011   7.643  21.385  0.00  0.00    +0.000 C 
ATOM     11  C   UNL     1       1.589   7.418  19.963  0.00  0.00    +0.000 C 
ENDROOT
BRANCH   1  18
ATOM     12  C   UNL     1      -1.178  12.119  18.413  0.00  0.00    +0.000 C 
ATOM     13  C   UNL     1       0.114  12.868  18.586  0.00  0.00    +0.000 A 
ATOM     14  C   UNL     1       0.054  14.262  18.787  0.00  0.00    +0.000 A 
ATOM     15  C   UNL     1       1.203  15.013  19.042  0.00  0.00    +0.000 A 
ATOM     16  C   UNL     1       2.444  14.395  19.057  0.00  0.00    +0.000 A 
ATOM     17  C   UNL     1       2.529  13.024  18.831  0.00  0.00    +0.000 A 
ATOM     18  C   UNL     1       1.374  12.240  18.643  0.00  0.00    +0.000 A 
ENDBRANCH   1  18
BRANCH  11  19
ATOM     19  N   UNL     1       2.920   6.784  20.007  0.00  0.00    +0.000 NA
ATOM     20  H   UNL     1       3.571   7.368  19.483  0.00  0.00    +0.000 HD
BRANCH  19  21
ATOM     21  C   UNL     1       2.961   5.403  19.469  0.00  0.00    +0.000 C 
ATOM     22  C   UNL     1       4.266   4.692  19.842  0.00  0.00    +0.000 C 
ATOM     23  C   UNL     1       5.473   5.272  19.110  0.00  0.00    +0.000 C 
ATOM     24  N   UNL     1       5.308   5.245  17.640  0.00  0.00    +0.000 NA
ATOM     25  C   UNL     1       4.040   5.887  17.238  0.00  0.00    +0.000 C 
ATOM     26  C   UNL     1       2.827   5.304  17.949  0.00  0.00    +0.000 C 
BRANCH  24  27
ATOM     27  C   UNL     1       6.474   5.852  16.949  0.00  0.00    +0.000 C 
ATOM     28  C   UNL     1       7.533   6.381  17.932  0.00  0.00    +0.000 C 
ATOM     29  C   UNL     1       7.176   4.855  16.009  0.00  0.00    +0.000 C 
ENDBRANCH  24  27
ENDBRANCH  19  21
ENDBRANCH  11  19
TORSDOF 4
ENDMDL
MODEL 5
REMARK VINA RESULT:      -7.9      1.652      2.469
REMARK  Name = 
REMARK  9 active torsions:
REMARK  status: ('A' for Active; 'I' for Inactive)
REMARK    1  A    between atoms: C_1  and  C_2
REMARK    2  A    between atoms: C_7  and  N_8
REMARK    3  A    between atoms: C_14  and  C_15
REMARK    4  A    between atoms: C_14  and  C_16
REMARK    5  A    between atoms: C_18  and  N_19
REMARK    6  A    between atoms: N_19  and  C_20
REMARK    7  A    between atoms: N_23  and  C_24
REMARK    8  A    between atoms: C_24  and  C_25
REMARK    9  A    between atoms: C_24  and  C_26
REMARK                            x       y       z     vdW  Elec       q    Type
REMARK                         _______ _______ _______ _____ _____    ______ ____
ROOT
ATOM      1  N   UNL     1       1.862   8.045  19.572  0.00  0.00    +0.000 N 
ATOM      2  N   UNL     1       2.376   8.552  18.424  0.00  0.00    +0.000 NA
ATOM      3  C   UNL     1       2.997   7.522  17.847  0.00  0.00    +0.000 A 
ATOM      4  C   UNL     1       2.857   6.320  18.562  0.00  0.00    +0.000 A 
ATOM      5  C   UNL     1       2.075   6.676  19.638  0.00  0.00    +0.000 A 
ATOM      6  C   UNL     1       1.432   5.762  20.602  0.00  0.00    +0.000 C 
ATOM      7  C   UNL     1       1.673   4.260  20.329  0.00  0.00    +0.000 C 
ATOM      8  C   UNL     1       0.303   3.565  20.168  0.00  0.00    +0.000 C 
ATOM      9  C   UNL     1       2.339   3.681  21.604  0.00  0.00    +0.000 C 
ATOM     10  C   UNL     1       2.551   3.864  19.101  0.00  0.00    +0.000 C 
ATOM     11  C   UNL     1       3.258   4.930  18.223  0.00  0.00    +0.000 C 
ENDROOT
BRANCH   1  18
ATOM     12  C   UNL     1      -0.231   9.989  18.662  0.00  0.00    +0.000 C 
ATOM     13  C   UNL     1       0.132   9.747  20.100  0.00  0.00    +0.000 A 
ATOM     14  C   UNL     1      -0.627  10.392  21.097  0.00  0.00    +0.000 A 
ATOM     15  C   UNL     1      -0.408  10.150  22.455  0.00  0.00    +0.000 A 
ATOM     16  C   UNL     1       0.607   9.291  22.848  0.00  0.00    +0.000 A 
ATOM     17  C   UNL     1       1.390   8.667  21.880  0.00  0.00    +0.000 A 
ATOM     18  C   UNL     1       1.136   8.845  20.506  0.00  0.00    +0.000 A 
ENDBRANCH   1  18
BRANCH  11  19
ATOM     19  N   UNL     1       4.725   4.814  18.297  0.00  0.00    +0.000 NA
ATOM     20  H   UNL     1       5.086   5.619  18.808  0.00  0.00    +0.000 HD
BRANCH  19  21
ATOM     21  C   UNL     1       5.402   4.728  16.980  0.00  0.00    +0.000 C 
ATOM     22  C   UNL     1       6.894   4.414  17.134  0.00  0.00    +0.000 C 
ATOM     23  C   UNL     1       7.675   5.581  17.731  0.00  0.00    +0.000 C 
ATOM     24  N   UNL     1       7.519   6.825  16.946  0.00  0.00    +0.000 NA
ATOM     25  C   UNL     1       6.092   7.145  16.739  0.00  0.00    +0.000 C 
ATOM     26  C   UNL     1       5.306   5.993  16.128  0.00  0.00    +0.000 C 
BRANCH  24  27
ATOM     27  C   UNL     1       8.251   7.958  17.566  0.00  0.00    +0.000 C 
ATOM     28  C   UNL     1       7.473   9.283  17.477  0.00  0.00    +0.000 C 
ATOM     29  C   UNL     1       8.561   7.706  19.053  0.00  0.00    +0.000 C 
ENDBRANCH  24  27
ENDBRANCH  19  21
ENDBRANCH  11  19
TORSDOF 4
ENDMDL
MODEL 6
REMARK VINA RESULT:      -7.9      2.930      8.778
REMARK  Name = 
REMARK  9 active torsions:
REMARK  status: ('A' for Active; 'I' for Inactive)
REMARK    1  A    between atoms: C_1  and  C_2
REMARK    2  A    between atoms: C_7  and  N_8
REMARK    3  A    between atoms: C_14  and  C_15
REMARK    4  A    between atoms: C_14  and  C_16
REMARK    5  A    between atoms: C_18  and  N_19
REMARK    6  A    between atoms: N_19  and  C_20
REMARK    7  A    between atoms: N_23  and  C_24
REMARK    8  A    between atoms: C_24  and  C_25
REMARK    9  A    between atoms: C_24  and  C_26
REMARK                            x       y       z     vdW  Elec       q    Type
REMARK                         _______ _______ _______ _____ _____    ______ ____
ROOT
ATOM      1  N   UNL     1       2.595   7.397  18.425  0.00  0.00    +0.000 N 
ATOM      2  N   UNL     1       2.745   8.085  17.265  0.00  0.00    +0.000 NA
ATOM      3  C   UNL     1       1.925   9.129  17.382  0.00  0.00    +0.000 A 
ATOM      4  C   UNL     1       1.271   9.183  18.626  0.00  0.00    +0.000 A 
ATOM      5  C   UNL     1       1.765   8.087  19.296  0.00  0.00    +0.000 A 
ATOM      6  C   UNL     1       1.590   7.775  20.728  0.00  0.00    +0.000 C 
ATOM      7  C   UNL     1       0.777   8.823  21.522  0.00  0.00    +0.000 C 
ATOM      8  C   UNL     1       1.648   9.336  22.691  0.00  0.00    +0.000 C 
ATOM      9  C   UNL     1      -0.429   8.069  22.140  0.00  0.00    +0.000 C 
ATOM     10  C   UNL     1       0.230  10.069  20.759  0.00  0.00    +0.000 C 
ATOM     11  C   UNL     1       0.397  10.225  19.224  0.00  0.00    +0.000 C 
ENDROOT
BRANCH   1  18
ATOM     12  C   UNL     1       1.370   4.736  17.787  0.00  0.00    +0.000 C 
ATOM     13  C   UNL     1       2.741   4.918  18.375  0.00  0.00    +0.000 A 
ATOM     14  C   UNL     1       3.552   3.777  18.542  0.00  0.00    +0.000 A 
ATOM     15  C   UNL     1       4.868   3.876  18.999  0.00  0.00    +0.000 A 
ATOM     16  C   UNL     1       5.388   5.114  19.344  0.00  0.00    +0.000 A 
ATOM     17  C   UNL     1       4.594   6.250  19.216  0.00  0.00    +0.000 A 
ATOM     18  C   UNL     1       3.290   6.177  18.689  0.00  0.00    +0.000 A 
ENDBRANCH   1  18
BRANCH  11  19
ATOM     19  N   UNL     1      -0.904  10.227  18.530  0.00  0.00    +0.000 NA
ATOM     20  H   UNL     1      -0.878   9.518  17.798  0.00  0.00    +0.000 HD
BRANCH  19  21
ATOM     21  C   UNL     1      -1.282  11.531  17.935  0.00  0.00    +0.000 C 
ATOM     22  C   UNL     1      -1.824  12.497  18.993  0.00  0.00    +0.000 C 
ATOM     23  C   UNL     1      -3.189  12.070  19.523  0.00  0.00    +0.000 C 
ATOM     24  N   UNL     1      -4.191  11.918  18.445  0.00  0.00    +0.000 NA
ATOM     25  C   UNL     1      -3.692  11.024  17.381  0.00  0.00    +0.000 C 
ATOM     26  C   UNL     1      -2.338  11.450  16.833  0.00  0.00    +0.000 C 
BRANCH  24  27
ATOM     27  C   UNL     1      -5.501  11.461  18.977  0.00  0.00    +0.000 C 
ATOM     28  C   UNL     1      -5.879  12.161  20.294  0.00  0.00    +0.000 C 
ATOM     29  C   UNL     1      -6.649  11.705  17.981  0.00  0.00    +0.000 C 
ENDBRANCH  24  27
ENDBRANCH  19  21
ENDBRANCH  11  19
TORSDOF 4
ENDMDL
MODEL 7
REMARK VINA RESULT:      -7.7      4.351      9.526
REMARK  Name = 
REMARK  9 active torsions:
REMARK  status: ('A' for Active; 'I' for Inactive)
REMARK    1  A    between atoms: C_1  and  C_2
REMARK    2  A    between atoms: C_7  and  N_8
REMARK    3  A    between atoms: C_14  and  C_15
REMARK    4  A    between atoms: C_14  and  C_16
REMARK    5  A    between atoms: C_18  and  N_19
REMARK    6  A    between atoms: N_19  and  C_20
REMARK    7  A    between atoms: N_23  and  C_24
REMARK    8  A    between atoms: C_24  and  C_25
REMARK    9  A    between atoms: C_24  and  C_26
REMARK                            x       y       z     vdW  Elec       q    Type
REMARK                         _______ _______ _______ _____ _____    ______ ____
ROOT
ATOM      1  N   UNL     1       0.647   9.985  20.181  0.00  0.00    +0.000 N 
ATOM      2  N   UNL     1       1.005  10.720  21.264  0.00  0.00    +0.000 NA
ATOM      3  C   UNL     1       0.269  11.829  21.180  0.00  0.00    +0.000 A 
ATOM      4  C   UNL     1      -0.619  11.821  20.090  0.00  0.00    +0.000 A 
ATOM      5  C   UNL     1      -0.393  10.599  19.499  0.00  0.00    +0.000 A 
ATOM      6  C   UNL     1      -1.204   9.967  18.441  0.00  0.00    +0.000 C 
ATOM      7  C   UNL     1      -2.434  10.788  17.992  0.00  0.00    +0.000 C 
ATOM      8  C   UNL     1      -3.700   9.924  18.192  0.00  0.00    +0.000 C 
ATOM      9  C   UNL     1      -2.273  11.026  16.468  0.00  0.00    +0.000 C 
ATOM     10  C   UNL     1      -2.691  12.167  18.674  0.00  0.00    +0.000 C 
ATOM     11  C   UNL     1      -1.698  12.767  19.704  0.00  0.00    +0.000 C 
ENDROOT
BRANCH   1  18
ATOM     12  C   UNL     1       2.214   9.548  17.663  0.00  0.00    +0.000 C 
ATOM     13  C   UNL     1       1.996   8.499  18.718  0.00  0.00    +0.000 A 
ATOM     14  C   UNL     1       2.656   7.262  18.574  0.00  0.00    +0.000 A 
ATOM     15  C   UNL     1       2.573   6.272  19.555  0.00  0.00    +0.000 A 
ATOM     16  C   UNL     1       1.792   6.478  20.681  0.00  0.00    +0.000 A 
ATOM     17  C   UNL     1       1.108   7.681  20.829  0.00  0.00    +0.000 A 
ATOM     18  C   UNL     1       1.237   8.718  19.885  0.00  0.00    +0.000 A 
ENDBRANCH   1  18
BRANCH  11  19
ATOM     19  N   UNL     1      -1.096  14.022  19.218  0.00  0.00    +0.000 NA
ATOM     20  H   UNL     1      -0.154  13.818  18.885  0.00  0.00    +0.000 HD
BRANCH  19  21
ATOM     21  C   UNL     1      -1.035  15.106  20.227  0.00  0.00    +0.000 C 
ATOM     22  C   UNL     1      -1.602  16.419  19.678  0.00  0.00    +0.000 C 
ATOM     23  C   UNL     1      -0.708  17.036  18.607  0.00  0.00    +0.000 C 
ATOM     24  N   UNL     1       0.672  17.266  19.088  0.00  0.00    +0.000 NA
ATOM     25  C   UNL     1       1.246  16.033  19.663  0.00  0.00    +0.000 C 
ATOM     26  C   UNL     1       0.369  15.418  20.746  0.00  0.00    +0.000 C 
BRANCH  24  27
ATOM     27  C   UNL     1       1.537  17.826  18.018  0.00  0.00    +0.000 C 
ATOM     28  C   UNL     1       2.590  16.820  17.524  0.00  0.00    +0.000 C 
ATOM     29  C   UNL     1       0.725  18.281  16.792  0.00  0.00    +0.000 C 
ENDBRANCH  24  27
ENDBRANCH  19  21
ENDBRANCH  11  19
TORSDOF 4
ENDMDL
MODEL 8
REMARK VINA RESULT:      -7.7      4.488     11.027
REMARK  Name = 
REMARK  9 active torsions:
REMARK  status: ('A' for Active; 'I' for Inactive)
REMARK    1  A    between atoms: C_1  and  C_2
REMARK    2  A    between atoms: C_7  and  N_8
REMARK    3  A    between atoms: C_14  and  C_15
REMARK    4  A    between atoms: C_14  and  C_16
REMARK    5  A    between atoms: C_18  and  N_19
REMARK    6  A    between atoms: N_19  and  C_20
REMARK    7  A    between atoms: N_23  and  C_24
REMARK    8  A    between atoms: C_24  and  C_25
REMARK    9  A    between atoms: C_24  and  C_26
REMARK                            x       y       z     vdW  Elec       q    Type
REMARK                         _______ _______ _______ _____ _____    ______ ____
ROOT
ATOM      1  N   UNL     1       0.216  10.778  18.818  0.00  0.00    +0.000 N 
ATOM      2  N   UNL     1      -1.031  10.709  18.290  0.00  0.00    +0.000 NA
ATOM      3  C   UNL     1      -1.501  11.955  18.362  0.00  0.00    +0.000 A 
ATOM      4  C   UNL     1      -0.564  12.869  18.875  0.00  0.00    +0.000 A 
ATOM      5  C   UNL     1       0.549  12.093  19.107  0.00  0.00    +0.000 A 
ATOM      6  C   UNL     1       1.904  12.572  19.442  0.00  0.00    +0.000 C 
ATOM      7  C   UNL     1       2.048  14.110  19.512  0.00  0.00    +0.000 C 
ATOM      8  C   UNL     1       3.145  14.545  18.513  0.00  0.00    +0.000 C 
ATOM      9  C   UNL     1       2.562  14.441  20.937  0.00  0.00    +0.000 C 
ATOM     10  C   UNL     1       0.785  14.983  19.236  0.00  0.00    +0.000 C 
ATOM     11  C   UNL     1      -0.611  14.350  18.997  0.00  0.00    +0.000 C 
ENDROOT
BRANCH   1  18
ATOM     12  C   UNL     1       0.352   9.240  21.389  0.00  0.00    +0.000 C 
ATOM     13  C   UNL     1       1.117   8.882  20.145  0.00  0.00    +0.000 A 
ATOM     14  C   UNL     1       1.867   7.688  20.144  0.00  0.00    +0.000 A 
ATOM     15  C   UNL     1       2.532   7.244  19.001  0.00  0.00    +0.000 A 
ATOM     16  C   UNL     1       2.502   8.007  17.843  0.00  0.00    +0.000 A 
ATOM     17  C   UNL     1       1.792   9.204  17.831  0.00  0.00    +0.000 A 
ATOM     18  C   UNL     1       1.057   9.632  18.954  0.00  0.00    +0.000 A 
ENDBRANCH   1  18
BRANCH  11  19
ATOM     19  N   UNL     1      -1.569  14.722  20.054  0.00  0.00    +0.000 NA
ATOM     20  H   UNL     1      -1.603  15.739  20.112  0.00  0.00    +0.000 HD
BRANCH  19  21
ATOM     21  C   UNL     1      -1.255  14.166  21.392  0.00  0.00    +0.000 C 
ATOM     22  C   UNL     1      -2.390  13.279  21.914  0.00  0.00    +0.000 C 
ATOM     23  C   UNL     1      -3.636  14.083  22.273  0.00  0.00    +0.000 C 
ATOM     24  N   UNL     1      -3.357  15.147  23.263  0.00  0.00    +0.000 NA
ATOM     25  C   UNL     1      -2.239  16.003  22.818  0.00  0.00    +0.000 C 
ATOM     26  C   UNL     1      -0.984  15.213  22.472  0.00  0.00    +0.000 C 
BRANCH  24  27
ATOM     27  C   UNL     1      -4.572  15.944  23.567  0.00  0.00    +0.000 C 
ATOM     28  C   UNL     1      -5.835  15.073  23.685  0.00  0.00    +0.000 C 
ATOM     29  C   UNL     1      -4.435  16.735  24.880  0.00  0.00    +0.000 C 
ENDBRANCH  24  27
ENDBRANCH  19  21
ENDBRANCH  11  19
TORSDOF 4
ENDMDL
MODEL 9
REMARK VINA RESULT:      -7.7      2.019      4.527
REMARK  Name = 
REMARK  9 active torsions:
REMARK  status: ('A' for Active; 'I' for Inactive)
REMARK    1  A    between atoms: C_1  and  C_2
REMARK    2  A    between atoms: C_7  and  N_8
REMARK    3  A    between atoms: C_14  and  C_15
REMARK    4  A    between atoms: C_14  and  C_16
REMARK    5  A    between atoms: C_18  and  N_19
REMARK    6  A    between atoms: N_19  and  C_20
REMARK    7  A    between atoms: N_23  and  C_24
REMARK    8  A    between atoms: C_24  and  C_25
REMARK    9  A    between atoms: C_24  and  C_26
REMARK                            x       y       z     vdW  Elec       q    Type
REMARK                         _______ _______ _______ _____ _____    ______ ____
ROOT
ATOM      1  N   UNL     1       3.350   5.398  18.155  0.00  0.00    +0.000 N 
ATOM      2  N   UNL     1       2.785   4.205  17.845  0.00  0.00    +0.000 NA
ATOM      3  C   UNL     1       3.785   3.474  17.352  0.00  0.00    +0.000 A 
ATOM      4  C   UNL     1       5.024   4.139  17.383  0.00  0.00    +0.000 A 
ATOM      5  C   UNL     1       4.722   5.353  17.957  0.00  0.00    +0.000 A 
ATOM      6  C   UNL     1       5.683   6.367  18.434  0.00  0.00    +0.000 C 
ATOM      7  C   UNL     1       7.170   5.976  18.269  0.00  0.00    +0.000 C 
ATOM      8  C   UNL     1       7.846   6.024  19.658  0.00  0.00    +0.000 C 
ATOM      9  C   UNL     1       7.822   7.080  17.399  0.00  0.00    +0.000 C 
ATOM     10  C   UNL     1       7.504   4.593  17.629  0.00  0.00    +0.000 C 
ATOM     11  C   UNL     1       6.396   3.661  17.071  0.00  0.00    +0.000 C 
ENDROOT
BRANCH   1  18
ATOM     12  C   UNL     1       2.254   5.310  20.945  0.00  0.00    +0.000 C 
ATOM     13  C   UNL     1       2.094   6.475  20.008  0.00  0.00    +0.000 A 
ATOM     14  C   UNL     1       1.485   7.647  20.499  0.00  0.00    +0.000 A 
ATOM     15  C   UNL     1       1.380   8.799  19.718  0.00  0.00    +0.000 A 
ATOM     16  C   UNL     1       1.841   8.792  18.411  0.00  0.00    +0.000 A 
ATOM     17  C   UNL     1       2.420   7.635  17.895  0.00  0.00    +0.000 A 
ATOM     18  C   UNL     1       2.598   6.488  18.692  0.00  0.00    +0.000 A 
ENDBRANCH   1  18
BRANCH  11  19
ATOM     19  N   UNL     1       6.525   3.467  15.616  0.00  0.00    +0.000 NA
ATOM     20  H   UNL     1       7.397   2.969  15.434  0.00  0.00    +0.000 HD
BRANCH  19  21
ATOM     21  C   UNL     1       6.505   4.720  14.824  0.00  0.00    +0.000 C 
ATOM     22  C   UNL     1       5.102   5.026  14.290  0.00  0.00    +0.000 C 
ATOM     23  C   UNL     1       4.668   4.047  13.203  0.00  0.00    +0.000 C 
ATOM     24  N   UNL     1       5.620   4.002  12.071  0.00  0.00    +0.000 NA
ATOM     25  C   UNL     1       6.995   3.749  12.545  0.00  0.00    +0.000 C 
ATOM     26  C   UNL     1       7.445   4.731  13.618  0.00  0.00    +0.000 C 
BRANCH  24  27
ATOM     27  C   UNL     1       5.203   3.013  11.044  0.00  0.00    +0.000 C 
ATOM     28  C   UNL     1       5.718   1.596  11.347  0.00  0.00    +0.000 C 
ATOM     29  C   UNL     1       3.671   2.926  10.910  0.00  0.00    +0.000 C 
ENDBRANCH  24  27
ENDBRANCH  19  21
ENDBRANCH  11  19
TORSDOF 4
ENDMDL
