MODEL 1
REMARK VINA RESULT:      -7.0      0.000      0.000
REMARK  Name = 
REMARK  9 active torsions:
REMARK  status: ('A' for Active; 'I' for Inactive)
REMARK    1  A    between atoms: C_1  and  C_2
REMARK    2  A    between atoms: C_2  and  O_3
REMARK    3  A    between atoms: O_3  and  C_4
REMARK    4  A    between atoms: C_4  and  C_6
REMARK    5  A    between atoms: C_6  and  C_7
REMARK    6  A    between atoms: C_7  and  C_8
REMARK    7  A    between atoms: C_13  and  O_14
REMARK    8  A    between atoms: O_14  and  C_15
REMARK    9  A    between atoms: C_18  and  C_19
REMARK                            x       y       z     vdW  Elec       q    Type
REMARK                         _______ _______ _______ _____ _____    ______ ____
ROOT
ATOM      1  C   UNL     1       6.632   4.463  15.391  0.00  0.00    +0.000 C 
ATOM      2  O   UNL     1       7.817   4.781  15.517  0.00  0.00    +0.000 OA
ATOM      3  N   UNL     1       5.618   5.109  16.078  0.00  0.00    +0.000 N 
ATOM      4  C   UNL     1       5.961   6.236  16.952  0.00  0.00    +0.000 C 
ATOM      5  C   UNL     1       5.480   5.980  18.375  0.00  0.00    +0.000 C 
ATOM      6  C   UNL     1       3.972   5.699  18.404  0.00  0.00    +0.000 C 
ATOM      7  C   UNL     1       3.655   4.533  17.461  0.00  0.00    +0.000 C 
ATOM      8  C   UNL     1       4.191   4.782  16.050  0.00  0.00    +0.000 C 
ENDROOT
BRANCH   1   9
ATOM      9  C   UNL     1       6.256   3.373  14.391  0.00  0.00    +0.000 C 
BRANCH   9  10
ATOM     10  C   UNL     1       6.430   3.848  12.950  0.00  0.00    +0.000 C 
BRANCH  10  11
ATOM     11  C   UNL     1       5.537   3.033  12.044  0.00  0.00    +0.000 C 
ATOM     12  O   UNL     1       5.823   1.930  11.599  0.00  0.00    +0.000 OA
BRANCH  11  13
ATOM     13  O   UNL     1       4.401   3.729  11.770  0.00  0.00    +0.000 OA
BRANCH  13  15
ATOM     14  C   UNL     1       3.112   4.092   9.794  0.00  0.00    +0.000 C 
ATOM     15  C   UNL     1       3.508   3.081  10.855  0.00  0.00    +0.000 C 
ENDBRANCH  13  15
ENDBRANCH  11  13
ENDBRANCH  10  11
ENDBRANCH   9  10
ENDBRANCH   1   9
BRANCH   6  16
ATOM     16  O   UNL     1       3.213   6.834  17.949  0.00  0.00    +0.000 OA
BRANCH  16  17
ATOM     17  C   UNL     1       2.454   7.433  18.931  0.00  0.00    +0.000 A 
ATOM     18  C   UNL     1       1.855   8.641  18.614  0.00  0.00    +0.000 A 
ATOM     19  C   UNL     1       1.070   9.263  19.583  0.00  0.00    +0.000 A 
ATOM     20  C   UNL     1       0.925   8.668  20.842  0.00  0.00    +0.000 A 
ATOM     21  C   UNL     1       1.597   7.476  21.067  0.00  0.00    +0.000 A 
ATOM     22  N   UNL     1       2.354   6.846  20.141  0.00  0.00    +0.000 NA
BRANCH  20  23
ATOM     23  C   UNL     1       0.081   9.253  21.930  0.00  0.00    +0.000 C 
ATOM     24  F   UNL     1       0.745   9.417  23.106  0.00  0.00    +0.000 F 
ATOM     25  F   UNL     1      -0.407  10.482  21.603  0.00  0.00    +0.000 F 
ATOM     26  F   UNL     1      -1.007   8.486  22.217  0.00  0.00    +0.000 F 
ENDBRANCH  20  23
ENDBRANCH  16  17
ENDBRANCH   6  16
TORSDOF 8
ENDMDL
MODEL 2
REMARK VINA RESULT:      -6.8      2.915      4.330
REMARK  Name = 
REMARK  9 active torsions:
REMARK  status: ('A' for Active; 'I' for Inactive)
REMARK    1  A    between atoms: C_1  and  C_2
REMARK    2  A    between atoms: C_2  and  O_3
REMARK    3  A    between atoms: O_3  and  C_4
REMARK    4  A    between atoms: C_4  and  C_6
REMARK    5  A    between atoms: C_6  and  C_7
REMARK    6  A    between atoms: C_7  and  C_8
REMARK    7  A    between atoms: C_13  and  O_14
REMARK    8  A    between atoms: O_14  and  C_15
REMARK    9  A    between atoms: C_18  and  C_19
REMARK                            x       y       z     vdW  Elec       q    Type
REMARK                         _______ _______ _______ _____ _____    ______ ____
ROOT
ATOM      1  C   UNL     1       4.433   4.486  17.700  0.00  0.00    +0.000 C 
ATOM      2  O   UNL     1       4.762   3.430  18.243  0.00  0.00    +0.000 OA
ATOM      3  N   UNL     1       3.809   5.510  18.394  0.00  0.00    +0.000 N 
ATOM      4  C   UNL     1       3.571   5.347  19.832  0.00  0.00    +0.000 C 
ATOM      5  C   UNL     1       2.088   5.496  20.153  0.00  0.00    +0.000 C 
ATOM      6  C   UNL     1       1.551   6.843  19.655  0.00  0.00    +0.000 C 
ATOM      7  C   UNL     1       1.841   6.982  18.156  0.00  0.00    +0.000 C 
ATOM      8  C   UNL     1       3.325   6.776  17.844  0.00  0.00    +0.000 C 
ENDROOT
BRANCH   1   9
ATOM      9  C   UNL     1       4.788   4.711  16.233  0.00  0.00    +0.000 C 
BRANCH   9  10
ATOM     10  C   UNL     1       6.023   3.913  15.823  0.00  0.00    +0.000 C 
BRANCH  10  11
ATOM     11  C   UNL     1       7.230   4.820  15.831  0.00  0.00    +0.000 C 
ATOM     12  O   UNL     1       7.665   5.404  14.848  0.00  0.00    +0.000 OA
BRANCH  11  13
ATOM     13  O   UNL     1       7.777   4.848  17.077  0.00  0.00    +0.000 OA
BRANCH  13  15
ATOM     14  C   UNL     1       7.782   5.793  19.268  0.00  0.00    +0.000 C 
ATOM     15  C   UNL     1       7.574   6.075  17.791  0.00  0.00    +0.000 C 
ENDBRANCH  13  15
ENDBRANCH  11  13
ENDBRANCH  10  11
ENDBRANCH   9  10
ENDBRANCH   1   9
BRANCH   6  16
ATOM     16  O   UNL     1       2.193   7.948  20.318  0.00  0.00    +0.000 OA
BRANCH  16  17
ATOM     17  C   UNL     1       1.316   8.849  20.883  0.00  0.00    +0.000 A 
ATOM     18  C   UNL     1       0.822   9.847  20.058  0.00  0.00    +0.000 A 
ATOM     19  C   UNL     1      -0.077  10.764  20.598  0.00  0.00    +0.000 A 
ATOM     20  C   UNL     1      -0.437  10.668  21.947  0.00  0.00    +0.000 A 
ATOM     21  C   UNL     1       0.144   9.653  22.693  0.00  0.00    +0.000 A 
ATOM     22  N   UNL     1       1.008   8.743  22.191  0.00  0.00    +0.000 NA
BRANCH  20  23
ATOM     23  C   UNL     1      -1.415  11.593  22.601  0.00  0.00    +0.000 C 
ATOM     24  F   UNL     1      -2.364  12.072  21.750  0.00  0.00    +0.000 F 
ATOM     25  F   UNL     1      -2.095  10.994  23.618  0.00  0.00    +0.000 F 
ATOM     26  F   UNL     1      -0.815  12.687  23.148  0.00  0.00    +0.000 F 
ENDBRANCH  20  23
ENDBRANCH  16  17
ENDBRANCH   6  16
TORSDOF 8
ENDMDL
MODEL 3
REMARK VINA RESULT:      -6.8      2.264      3.326
REMARK  Name = 
REMARK  9 active torsions:
REMARK  status: ('A' for Active; 'I' for Inactive)
REMARK    1  A    between atoms: C_1  and  C_2
REMARK    2  A    between atoms: C_2  and  O_3
REMARK    3  A    between atoms: O_3  and  C_4
REMARK    4  A    between atoms: C_4  and  C_6
REMARK    5  A    between atoms: C_6  and  C_7
REMARK    6  A    between atoms: C_7  and  C_8
REMARK    7  A    between atoms: C_13  and  O_14
REMARK    8  A    between atoms: O_14  and  C_15
REMARK    9  A    between atoms: C_18  and  C_19
REMARK                            x       y       z     vdW  Elec       q    Type
REMARK                         _______ _______ _______ _____ _____    ______ ____
ROOT
ATOM      1  C   UNL     1       5.729   4.542  18.299  0.00  0.00    +0.000 C 
ATOM      2  O   UNL     1       5.763   3.565  19.050  0.00  0.00    +0.000 OA
ATOM      3  N   UNL     1       4.839   5.586  18.489  0.00  0.00    +0.000 N 
ATOM      4  C   UNL     1       3.937   5.547  19.644  0.00  0.00    +0.000 C 
ATOM      5  C   UNL     1       2.483   5.635  19.196  0.00  0.00    +0.000 C 
ATOM      6  C   UNL     1       2.242   6.893  18.352  0.00  0.00    +0.000 C 
ATOM      7  C   UNL     1       3.220   6.906  17.171  0.00  0.00    +0.000 C 
ATOM      8  C   UNL     1       4.671   6.763  17.634  0.00  0.00    +0.000 C 
ENDROOT
BRANCH   1   9
ATOM      9  C   UNL     1       6.746   4.647  17.167  0.00  0.00    +0.000 C 
BRANCH   9  10
ATOM     10  C   UNL     1       6.298   3.869  15.933  0.00  0.00    +0.000 C 
BRANCH  10  11
ATOM     11  C   UNL     1       6.714   4.618  14.689  0.00  0.00    +0.000 C 
ATOM     12  O   UNL     1       7.708   5.328  14.608  0.00  0.00    +0.000 OA
BRANCH  11  13
ATOM     13  O   UNL     1       5.799   4.419  13.703  0.00  0.00    +0.000 OA
BRANCH  13  15
ATOM     14  C   UNL     1       5.062   3.091  11.861  0.00  0.00    +0.000 C 
ATOM     15  C   UNL     1       6.272   3.640  12.596  0.00  0.00    +0.000 C 
ENDBRANCH  13  15
ENDBRANCH  11  13
ENDBRANCH  10  11
ENDBRANCH   9  10
ENDBRANCH   1   9
BRANCH   6  16
ATOM     16  O   UNL     1       2.475   8.094  19.111  0.00  0.00    +0.000 OA
BRANCH  16  17
ATOM     17  C   UNL     1       1.397   8.951  19.149  0.00  0.00    +0.000 A 
ATOM     18  C   UNL     1       0.817   9.177  20.387  0.00  0.00    +0.000 A 
ATOM     19  C   UNL     1      -0.266  10.051  20.459  0.00  0.00    +0.000 A 
ATOM     20  C   UNL     1      -0.747  10.653  19.291  0.00  0.00    +0.000 A 
ATOM     21  C   UNL     1      -0.116  10.330  18.098  0.00  0.00    +0.000 A 
ATOM     22  N   UNL     1       0.943   9.496  18.003  0.00  0.00    +0.000 NA
BRANCH  20  23
ATOM     23  C   UNL     1      -1.887  11.623  19.281  0.00  0.00    +0.000 C 
ATOM     24  F   UNL     1      -2.251  12.047  20.521  0.00  0.00    +0.000 F 
ATOM     25  F   UNL     1      -1.602  12.749  18.570  0.00  0.00    +0.000 F 
ATOM     26  F   UNL     1      -3.012  11.102  18.717  0.00  0.00    +0.000 F 
ENDBRANCH  20  23
ENDBRANCH  16  17
ENDBRANCH   6  16
TORSDOF 8
ENDMDL
MODEL 4
REMARK VINA RESULT:      -6.7      1.840      2.807
REMARK  Name = 
REMARK  9 active torsions:
REMARK  status: ('A' for Active; 'I' for Inactive)
REMARK    1  A    between atoms: C_1  and  C_2
REMARK    2  A    between atoms: C_2  and  O_3
REMARK    3  A    between atoms: O_3  and  C_4
REMARK    4  A    between atoms: C_4  and  C_6
REMARK    5  A    between atoms: C_6  and  C_7
REMARK    6  A    between atoms: C_7  and  C_8
REMARK    7  A    between atoms: C_13  and  O_14
REMARK    8  A    between atoms: O_14  and  C_15
REMARK    9  A    between atoms: C_18  and  C_19
REMARK                            x       y       z     vdW  Elec       q    Type
REMARK                         _______ _______ _______ _____ _____    ______ ____
ROOT
ATOM      1  C   UNL     1       4.689   4.223  17.008  0.00  0.00    +0.000 C 
ATOM      2  O   UNL     1       4.303   3.053  17.031  0.00  0.00    +0.000 OA
ATOM      3  N   UNL     1       4.104   5.207  17.790  0.00  0.00    +0.000 N 
ATOM      4  C   UNL     1       3.020   4.833  18.703  0.00  0.00    +0.000 C 
ATOM      5  C   UNL     1       1.763   5.644  18.408  0.00  0.00    +0.000 C 
ATOM      6  C   UNL     1       2.049   7.149  18.480  0.00  0.00    +0.000 C 
ATOM      7  C   UNL     1       3.203   7.491  17.529  0.00  0.00    +0.000 C 
ATOM      8  C   UNL     1       4.439   6.632  17.803  0.00  0.00    +0.000 C 
ENDROOT
BRANCH   1   9
ATOM      9  C   UNL     1       5.895   4.595  16.152  0.00  0.00    +0.000 C 
BRANCH   9  10
ATOM     10  C   UNL     1       5.606   4.413  14.663  0.00  0.00    +0.000 C 
BRANCH  10  11
ATOM     11  C   UNL     1       6.854   4.720  13.870  0.00  0.00    +0.000 C 
ATOM     12  O   UNL     1       7.781   5.410  14.274  0.00  0.00    +0.000 OA
BRANCH  11  13
ATOM     13  O   UNL     1       6.767   4.154  12.637  0.00  0.00    +0.000 OA
BRANCH  13  15
ATOM     14  C   UNL     1       5.983   2.151  11.602  0.00  0.00    +0.000 C 
ATOM     15  C   UNL     1       5.589   3.367  12.421  0.00  0.00    +0.000 C 
ENDBRANCH  13  15
ENDBRANCH  11  13
ENDBRANCH  10  11
ENDBRANCH   9  10
ENDBRANCH   1   9
BRANCH   6  16
ATOM     16  O   UNL     1       2.454   7.550  19.802  0.00  0.00    +0.000 OA
BRANCH  16  17
ATOM     17  C   UNL     1       1.610   8.465  20.394  0.00  0.00    +0.000 A 
ATOM     18  C   UNL     1       1.068   9.441  19.573  0.00  0.00    +0.000 A 
ATOM     19  C   UNL     1       0.200  10.372  20.141  0.00  0.00    +0.000 A 
ATOM     20  C   UNL     1      -0.082  10.309  21.510  0.00  0.00    +0.000 A 
ATOM     21  C   UNL     1       0.542   9.313  22.247  0.00  0.00    +0.000 A 
ATOM     22  N   UNL     1       1.378   8.392  21.719  0.00  0.00    +0.000 NA
BRANCH  20  23
ATOM     23  C   UNL     1      -1.023  11.251  22.195  0.00  0.00    +0.000 C 
ATOM     24  F   UNL     1      -1.654  10.704  23.269  0.00  0.00    +0.000 F 
ATOM     25  F   UNL     1      -0.392  12.365  22.661  0.00  0.00    +0.000 F 
ATOM     26  F   UNL     1      -2.008  11.700  21.368  0.00  0.00    +0.000 F 
ENDBRANCH  20  23
ENDBRANCH  16  17
ENDBRANCH   6  16
TORSDOF 8
ENDMDL
MODEL 5
REMARK VINA RESULT:      -6.7      2.507      3.664
REMARK  Name = 
REMARK  9 active torsions:
REMARK  status: ('A' for Active; 'I' for Inactive)
REMARK    1  A    between atoms: C_1  and  C_2
REMARK    2  A    between atoms: C_2  and  O_3
REMARK    3  A    between atoms: O_3  and  C_4
REMARK    4  A    between atoms: C_4  and  C_6
REMARK    5  A    between atoms: C_6  and  C_7
REMARK    6  A    between atoms: C_7  and  C_8
REMARK    7  A    between atoms: C_13  and  O_14
REMARK    8  A    between atoms: O_14  and  C_15
REMARK    9  A    between atoms: C_18  and  C_19
REMARK                            x       y       z     vdW  Elec       q    Type
REMARK                         _______ _______ _______ _____ _____    ______ ____
ROOT
ATOM      1  C   UNL     1       5.480   4.341  18.664  0.00  0.00    +0.000 C 
ATOM      2  O   UNL     1       5.261   3.281  19.252  0.00  0.00    +0.000 OA
ATOM      3  N   UNL     1       4.656   5.446  18.804  0.00  0.00    +0.000 N 
ATOM      4  C   UNL     1       3.510   5.363  19.714  0.00  0.00    +0.000 C 
ATOM      5  C   UNL     1       2.211   5.666  18.976  0.00  0.00    +0.000 C 
ATOM      6  C   UNL     1       2.274   7.037  18.292  0.00  0.00    +0.000 C 
ATOM      7  C   UNL     1       3.498   7.089  17.369  0.00  0.00    +0.000 C 
ATOM      8  C   UNL     1       4.785   6.730  18.114  0.00  0.00    +0.000 C 
ENDROOT
BRANCH   1   9
ATOM      9  C   UNL     1       6.738   4.473  17.810  0.00  0.00    +0.000 C 
BRANCH   9  10
ATOM     10  C   UNL     1       6.460   4.150  16.344  0.00  0.00    +0.000 C 
BRANCH  10  11
ATOM     11  C   UNL     1       6.919   5.303  15.482  0.00  0.00    +0.000 C 
ATOM     12  O   UNL     1       7.663   6.198  15.860  0.00  0.00    +0.000 OA
BRANCH  11  13
ATOM     13  O   UNL     1       6.348   5.213  14.251  0.00  0.00    +0.000 OA
BRANCH  13  15
ATOM     14  C   UNL     1       6.651   3.843  12.320  0.00  0.00    +0.000 C 
ATOM     15  C   UNL     1       6.182   3.875  13.764  0.00  0.00    +0.000 C 
ENDBRANCH  13  15
ENDBRANCH  11  13
ENDBRANCH  10  11
ENDBRANCH   9  10
ENDBRANCH   1   9
BRANCH   6  16
ATOM     16  O   UNL     1       2.418   8.102  19.251  0.00  0.00    +0.000 OA
BRANCH  16  17
ATOM     17  C   UNL     1       1.362   8.986  19.270  0.00  0.00    +0.000 A 
ATOM     18  C   UNL     1       0.856   9.387  18.044  0.00  0.00    +0.000 A 
ATOM     19  C   UNL     1      -0.222  10.271  18.032  0.00  0.00    +0.000 A 
ATOM     20  C   UNL     1      -0.744  10.740  19.242  0.00  0.00    +0.000 A 
ATOM     21  C   UNL     1      -0.140  10.303  20.412  0.00  0.00    +0.000 A 
ATOM     22  N   UNL     1       0.897   9.438  20.452  0.00  0.00    +0.000 NA
BRANCH  20  23
ATOM     23  C   UNL     1      -1.916  11.669  19.321  0.00  0.00    +0.000 C 
ATOM     24  F   UNL     1      -1.679  12.892  18.774  0.00  0.00    +0.000 F 
ATOM     25  F   UNL     1      -3.010  11.177  18.676  0.00  0.00    +0.000 F 
ATOM     26  F   UNL     1      -2.313  11.902  20.603  0.00  0.00    +0.000 F 
ENDBRANCH  20  23
ENDBRANCH  16  17
ENDBRANCH   6  16
TORSDOF 8
ENDMDL
MODEL 6
REMARK VINA RESULT:      -6.7      1.968      3.245
REMARK  Name = 
REMARK  9 active torsions:
REMARK  status: ('A' for Active; 'I' for Inactive)
REMARK    1  A    between atoms: C_1  and  C_2
REMARK    2  A    between atoms: C_2  and  O_3
REMARK    3  A    between atoms: O_3  and  C_4
REMARK    4  A    between atoms: C_4  and  C_6
REMARK    5  A    between atoms: C_6  and  C_7
REMARK    6  A    between atoms: C_7  and  C_8
REMARK    7  A    between atoms: C_13  and  O_14
REMARK    8  A    between atoms: O_14  and  C_15
REMARK    9  A    between atoms: C_18  and  C_19
REMARK                            x       y       z     vdW  Elec       q    Type
REMARK                         _______ _______ _______ _____ _____    ______ ____
ROOT
ATOM      1  C   UNL     1       4.662   4.881  17.574  0.00  0.00    +0.000 C 
ATOM      2  O   UNL     1       4.869   3.738  17.987  0.00  0.00    +0.000 OA
ATOM      3  N   UNL     1       3.992   5.828  18.331  0.00  0.00    +0.000 N 
ATOM      4  C   UNL     1       3.552   5.471  19.683  0.00  0.00    +0.000 C 
ATOM      5  C   UNL     1       2.046   5.664  19.828  0.00  0.00    +0.000 C 
ATOM      6  C   UNL     1       1.640   7.101  19.477  0.00  0.00    +0.000 C 
ATOM      7  C   UNL     1       2.140   7.440  18.068  0.00  0.00    +0.000 C 
ATOM      8  C   UNL     1       3.642   7.190  17.923  0.00  0.00    +0.000 C 
ENDROOT
BRANCH   1   9
ATOM      9  C   UNL     1       5.225   5.296  16.218  0.00  0.00    +0.000 C 
BRANCH   9  10
ATOM     10  C   UNL     1       6.570   4.629  15.939  0.00  0.00    +0.000 C 
BRANCH  10  11
ATOM     11  C   UNL     1       6.893   4.751  14.468  0.00  0.00    +0.000 C 
ATOM     12  O   UNL     1       7.845   5.374  14.017  0.00  0.00    +0.000 OA
BRANCH  11  13
ATOM     13  O   UNL     1       5.947   4.106  13.734  0.00  0.00    +0.000 OA
BRANCH  13  15
ATOM     14  C   UNL     1       5.201   3.098  11.703  0.00  0.00    +0.000 C 
ATOM     15  C   UNL     1       6.408   3.605  12.472  0.00  0.00    +0.000 C 
ENDBRANCH  13  15
ENDBRANCH  11  13
ENDBRANCH  10  11
ENDBRANCH   9  10
ENDBRANCH   1   9
BRANCH   6  16
ATOM     16  O   UNL     1       2.230   8.055  20.380  0.00  0.00    +0.000 OA
BRANCH  16  17
ATOM     17  C   UNL     1       1.326   8.933  20.938  0.00  0.00    +0.000 A 
ATOM     18  C   UNL     1       0.925  10.003  20.155  0.00  0.00    +0.000 A 
ATOM     19  C   UNL     1       0.001  10.900  20.688  0.00  0.00    +0.000 A 
ATOM     20  C   UNL     1      -0.476  10.710  21.990  0.00  0.00    +0.000 A 
ATOM     21  C   UNL     1       0.019   9.625  22.700  0.00  0.00    +0.000 A 
ATOM     22  N   UNL     1       0.905   8.735  22.203  0.00  0.00    +0.000 NA
BRANCH  20  23
ATOM     23  C   UNL     1      -1.488  11.608  22.630  0.00  0.00    +0.000 C 
ATOM     24  F   UNL     1      -2.438  12.060  21.766  0.00  0.00    +0.000 F 
ATOM     25  F   UNL     1      -2.164  10.991  23.638  0.00  0.00    +0.000 F 
ATOM     26  F   UNL     1      -0.926  12.718  23.183  0.00  0.00    +0.000 F 
ENDBRANCH  20  23
ENDBRANCH  16  17
ENDBRANCH   6  16
TORSDOF 8
ENDMDL
MODEL 7
REMARK VINA RESULT:      -6.7      3.253      4.592
REMARK  Name = 
REMARK  9 active torsions:
REMARK  status: ('A' for Active; 'I' for Inactive)
REMARK    1  A    between atoms: C_1  and  C_2
REMARK    2  A    between atoms: C_2  and  O_3
REMARK    3  A    between atoms: O_3  and  C_4
REMARK    4  A    between atoms: C_4  and  C_6
REMARK    5  A    between atoms: C_6  and  C_7
REMARK    6  A    between atoms: C_7  and  C_8
REMARK    7  A    between atoms: C_13  and  O_14
REMARK    8  A    between atoms: O_14  and  C_15
REMARK    9  A    between atoms: C_18  and  C_19
REMARK                            x       y       z     vdW  Elec       q    Type
REMARK                         _______ _______ _______ _____ _____    ______ ____
ROOT
ATOM      1  C   UNL     1       4.636   4.396  17.814  0.00  0.00    +0.000 C 
ATOM      2  O   UNL     1       4.915   3.363  18.426  0.00  0.00    +0.000 OA
ATOM      3  N   UNL     1       3.977   5.455  18.417  0.00  0.00    +0.000 N 
ATOM      4  C   UNL     1       3.637   5.359  19.840  0.00  0.00    +0.000 C 
ATOM      5  C   UNL     1       2.137   5.534  20.049  0.00  0.00    +0.000 C 
ATOM      6  C   UNL     1       1.650   6.861  19.455  0.00  0.00    +0.000 C 
ATOM      7  C   UNL     1       2.047   6.931  17.975  0.00  0.00    +0.000 C 
ATOM      8  C   UNL     1       3.546   6.699  17.778  0.00  0.00    +0.000 C 
ENDROOT
BRANCH   1   9
ATOM      9  C   UNL     1       5.095   4.552  16.368  0.00  0.00    +0.000 C 
BRANCH   9  10
ATOM     10  C   UNL     1       6.116   5.678  16.219  0.00  0.00    +0.000 C 
BRANCH  10  11
ATOM     11  C   UNL     1       7.322   5.376  17.076  0.00  0.00    +0.000 C 
ATOM     12  O   UNL     1       7.994   4.357  16.994  0.00  0.00    +0.000 OA
BRANCH  11  13
ATOM     13  O   UNL     1       7.515   6.382  17.972  0.00  0.00    +0.000 OA
BRANCH  13  15
ATOM     14  C   UNL     1       8.229   8.659  17.988  0.00  0.00    +0.000 C 
ATOM     15  C   UNL     1       7.175   7.688  17.488  0.00  0.00    +0.000 C 
ENDBRANCH  13  15
ENDBRANCH  11  13
ENDBRANCH  10  11
ENDBRANCH   9  10
ENDBRANCH   1   9
BRANCH   6  16
ATOM     16  O   UNL     1       2.256   7.990  20.111  0.00  0.00    +0.000 OA
BRANCH  16  17
ATOM     17  C   UNL     1       1.353   8.843  20.710  0.00  0.00    +0.000 A 
ATOM     18  C   UNL     1       1.210   8.742  22.084  0.00  0.00    +0.000 A 
ATOM     19  C   UNL     1       0.314   9.601  22.719  0.00  0.00    +0.000 A 
ATOM     20  C   UNL     1      -0.424  10.515  21.959  0.00  0.00    +0.000 A 
ATOM     21  C   UNL     1      -0.231  10.508  20.585  0.00  0.00    +0.000 A 
ATOM     22  N   UNL     1       0.640   9.695  19.946  0.00  0.00    +0.000 NA
BRANCH  20  23
ATOM     23  C   UNL     1      -1.386  11.490  22.561  0.00  0.00    +0.000 C 
ATOM     24  F   UNL     1      -2.248  12.033  21.658  0.00  0.00    +0.000 F 
ATOM     25  F   UNL     1      -2.164  10.922  23.524  0.00  0.00    +0.000 F 
ATOM     26  F   UNL     1      -0.760  12.541  23.160  0.00  0.00    +0.000 F 
ENDBRANCH  20  23
ENDBRANCH  16  17
ENDBRANCH   6  16
TORSDOF 8
ENDMDL
MODEL 8
REMARK VINA RESULT:      -6.6      0.796      1.338
REMARK  Name = 
REMARK  9 active torsions:
REMARK  status: ('A' for Active; 'I' for Inactive)
REMARK    1  A    between atoms: C_1  and  C_2
REMARK    2  A    between atoms: C_2  and  O_3
REMARK    3  A    between atoms: O_3  and  C_4
REMARK    4  A    between atoms: C_4  and  C_6
REMARK    5  A    between atoms: C_6  and  C_7
REMARK    6  A    between atoms: C_7  and  C_8
REMARK    7  A    between atoms: C_13  and  O_14
REMARK    8  A    between atoms: O_14  and  C_15
REMARK    9  A    between atoms: C_18  and  C_19
REMARK                            x       y       z     vdW  Elec       q    Type
REMARK                         _______ _______ _______ _____ _____    ______ ____
ROOT
ATOM      1  C   UNL     1       6.517   4.837  14.960  0.00  0.00    +0.000 C 
ATOM      2  O   UNL     1       7.545   5.505  14.825  0.00  0.00    +0.000 OA
ATOM      3  N   UNL     1       5.465   5.257  15.757  0.00  0.00    +0.000 N 
ATOM      4  C   UNL     1       5.561   6.557  16.429  0.00  0.00    +0.000 C 
ATOM      5  C   UNL     1       5.404   6.398  17.937  0.00  0.00    +0.000 C 
ATOM      6  C   UNL     1       4.084   5.696  18.281  0.00  0.00    +0.000 C 
ATOM      7  C   UNL     1       4.015   4.355  17.541  0.00  0.00    +0.000 C 
ATOM      8  C   UNL     1       4.228   4.526  16.036  0.00  0.00    +0.000 C 
ENDROOT
BRANCH   1   9
ATOM      9  C   UNL     1       6.360   3.543  14.168  0.00  0.00    +0.000 C 
BRANCH   9  10
ATOM     10  C   UNL     1       5.219   3.636  13.157  0.00  0.00    +0.000 C 
BRANCH  10  11
ATOM     11  C   UNL     1       5.575   2.837  11.926  0.00  0.00    +0.000 C 
ATOM     12  O   UNL     1       6.691   2.401  11.680  0.00  0.00    +0.000 OA
BRANCH  11  13
ATOM     13  O   UNL     1       4.484   2.719  11.122  0.00  0.00    +0.000 OA
BRANCH  13  15
ATOM     14  C   UNL     1       2.930   3.771   9.646  0.00  0.00    +0.000 C 
ATOM     15  C   UNL     1       3.768   3.942  10.900  0.00  0.00    +0.000 C 
ENDBRANCH  13  15
ENDBRANCH  11  13
ENDBRANCH  10  11
ENDBRANCH   9  10
ENDBRANCH   1   9
BRANCH   6  16
ATOM     16  O   UNL     1       2.946   6.472  17.864  0.00  0.00    +0.000 OA
BRANCH  16  17
ATOM     17  C   UNL     1       2.316   7.140  18.892  0.00  0.00    +0.000 A 
ATOM     18  C   UNL     1       2.083   6.425  20.055  0.00  0.00    +0.000 A 
ATOM     19  C   UNL     1       1.460   7.079  21.117  0.00  0.00    +0.000 A 
ATOM     20  C   UNL     1       1.072   8.416  20.974  0.00  0.00    +0.000 A 
ATOM     21  C   UNL     1       1.319   9.027  19.754  0.00  0.00    +0.000 A 
ATOM     22  N   UNL     1       1.933   8.420  18.714  0.00  0.00    +0.000 NA
BRANCH  20  23
ATOM     23  C   UNL     1       0.422   9.200  22.071  0.00  0.00    +0.000 C 
ATOM     24  F   UNL     1      -0.729   8.639  22.534  0.00  0.00    +0.000 F 
ATOM     25  F   UNL     1       1.231   9.339  23.158  0.00  0.00    +0.000 F 
ATOM     26  F   UNL     1       0.095  10.465  21.687  0.00  0.00    +0.000 F 
ENDBRANCH  20  23
ENDBRANCH  16  17
ENDBRANCH   6  16
TORSDOF 8
ENDMDL
MODEL 9
REMARK VINA RESULT:      -6.4      2.873      4.244
REMARK  Name = 
REMARK  9 active torsions:
REMARK  status: ('A' for Active; 'I' for Inactive)
REMARK    1  A    between atoms: C_1  and  C_2
REMARK    2  A    between atoms: C_2  and  O_3
REMARK    3  A    between atoms: O_3  and  C_4
REMARK    4  A    between atoms: C_4  and  C_6
REMARK    5  A    between atoms: C_6  and  C_7
REMARK    6  A    between atoms: C_7  and  C_8
REMARK    7  A    between atoms: C_13  and  O_14
REMARK    8  A    between atoms: O_14  and  C_15
REMARK    9  A    between atoms: C_18  and  C_19
REMARK                            x       y       z     vdW  Elec       q    Type
REMARK                         _______ _______ _______ _____ _____    ______ ____
ROOT
ATOM      1  C   UNL     1       4.650   4.032  17.597  0.00  0.00    +0.000 C 
ATOM      2  O   UNL     1       5.176   3.062  18.148  0.00  0.00    +0.000 OA
ATOM      3  N   UNL     1       3.992   5.019  18.312  0.00  0.00    +0.000 N 
ATOM      4  C   UNL     1       3.957   4.928  19.775  0.00  0.00    +0.000 C 
ATOM      5  C   UNL     1       2.518   4.921  20.281  0.00  0.00    +0.000 C 
ATOM      6  C   UNL     1       1.756   6.157  19.787  0.00  0.00    +0.000 C 
ATOM      7  C   UNL     1       1.838   6.226  18.257  0.00  0.00    +0.000 C 
ATOM      8  C   UNL     1       3.285   6.177  17.764  0.00  0.00    +0.000 C 
ENDROOT
BRANCH   1   9
ATOM      9  C   UNL     1       4.788   4.196  16.086  0.00  0.00    +0.000 C 
BRANCH   9  10
ATOM     10  C   UNL     1       6.135   3.679  15.585  0.00  0.00    +0.000 C 
BRANCH  10  11
ATOM     11  C   UNL     1       7.144   4.803  15.615  0.00  0.00    +0.000 C 
ATOM     12  O   UNL     1       7.456   5.480  14.645  0.00  0.00    +0.000 OA
BRANCH  11  13
ATOM     13  O   UNL     1       7.676   4.911  16.862  0.00  0.00    +0.000 OA
BRANCH  13  15
ATOM     14  C   UNL     1       7.746   5.999  18.985  0.00  0.00    +0.000 C 
ATOM     15  C   UNL     1       7.435   6.168  17.508  0.00  0.00    +0.000 C 
ENDBRANCH  13  15
ENDBRANCH  11  13
ENDBRANCH  10  11
ENDBRANCH   9  10
ENDBRANCH   1   9
BRANCH   6  16
ATOM     16  O   UNL     1       2.329   7.374  20.300  0.00  0.00    +0.000 OA
BRANCH  16  17
ATOM     17  C   UNL     1       1.456   8.441  20.316  0.00  0.00    +0.000 A 
ATOM     18  C   UNL     1       0.653   8.578  21.437  0.00  0.00    +0.000 A 
ATOM     19  C   UNL     1      -0.229   9.656  21.488  0.00  0.00    +0.000 A 
ATOM     20  C   UNL     1      -0.294  10.547  20.411  0.00  0.00    +0.000 A 
ATOM     21  C   UNL     1       0.528  10.297  19.322  0.00  0.00    +0.000 A 
ATOM     22  N   UNL     1       1.401   9.268  19.253  0.00  0.00    +0.000 NA
BRANCH  20  23
ATOM     23  C   UNL     1      -1.193  11.745  20.395  0.00  0.00    +0.000 C 
ATOM     24  F   UNL     1      -2.282  11.597  19.593  0.00  0.00    +0.000 F 
ATOM     25  F   UNL     1      -1.679  12.044  21.631  0.00  0.00    +0.000 F 
ATOM     26  F   UNL     1      -0.558  12.869  19.962  0.00  0.00    +0.000 F 
ENDBRANCH  20  23
ENDBRANCH  16  17
ENDBRANCH   6  16
TORSDOF 8
ENDMDL
