MODEL 1
REMARK VINA RESULT:      -8.9      0.000      0.000
REMARK  Name = 
REMARK  5 active torsions:
REMARK  status: ('A' for Active; 'I' for Inactive)
REMARK    1  A    between atoms: C_1  and  C_2
REMARK    2  A    between atoms: C_5  and  N_6
REMARK    3  A    between atoms: N_6  and  C_7
REMARK    4  A    between atoms: N_16  and  C_17
REMARK    5  A    between atoms: C_17  and  C_18
REMARK                            x       y       z     vdW  Elec       q    Type
REMARK                         _______ _______ _______ _____ _____    ______ ____
ROOT
ATOM      1  C   UNL     1       2.655   7.331  18.563  0.00  0.00    +0.000 C 
ATOM      2  C   UNL     1       2.656   8.689  17.821  0.00  0.00    +0.000 C 
ATOM      3  C   UNL     1       1.419   9.545  18.084  0.00  0.00    +0.000 C 
ATOM      4  C   UNL     1       1.018   9.546  19.518  0.00  0.00    +0.000 A 
ATOM      5  C   UNL     1       1.478   8.608  20.418  0.00  0.00    +0.000 A 
ATOM      6  S   UNL     1       0.949   8.932  22.008  0.00  0.00    +0.000 S 
ATOM      7  C   UNL     1       0.004  10.264  21.491  0.00  0.00    +0.000 A 
ATOM      8  N   UNL     1      -0.750  10.998  22.349  0.00  0.00    +0.000 NA
ATOM      9  C   UNL     1      -1.440  11.939  21.777  0.00  0.00    +0.000 A 
ATOM     10  N   UNL     1      -1.460  12.231  20.425  0.00  0.00    +0.000 N 
ATOM     11  C   UNL     1      -0.697  11.498  19.519  0.00  0.00    +0.000 A 
ATOM     12  O   UNL     1      -0.718  11.678  18.305  0.00  0.00    +0.000 OA
ATOM     13  C   UNL     1       0.102  10.451  20.131  0.00  0.00    +0.000 A 
ATOM     14  C   UNL     1       2.415   7.485  20.089  0.00  0.00    +0.000 C 
ENDROOT
BRANCH   1  15
ATOM     15  N   UNL     1       1.750   6.367  17.884  0.00  0.00    +0.000 N 
ATOM     16  H   UNL     1       1.483   6.670  16.946  0.00  0.00    +0.000 HD
BRANCH  15  21
ATOM     17  C   UNL     1       3.743   0.980  18.205  0.00  0.00    +0.000 C 
ATOM     18  C   UNL     1       3.211   2.373  18.039  0.00  0.00    +0.000 A 
ATOM     19  C   UNL     1       1.881   2.642  18.338  0.00  0.00    +0.000 A 
ATOM     20  C   UNL     1       1.387   3.938  18.210  0.00  0.00    +0.000 A 
ATOM     21  C   UNL     1       2.214   5.023  17.867  0.00  0.00    +0.000 A 
ATOM     22  C   UNL     1       3.522   4.724  17.459  0.00  0.00    +0.000 A 
ATOM     23  C   UNL     1       4.011   3.414  17.547  0.00  0.00    +0.000 A 
ENDBRANCH  15  21
ENDBRANCH   1  15
BRANCH  10  24
ATOM     24  C   UNL     1      -2.325  13.293  19.910  0.00  0.00    +0.000 C 
BRANCH  24  25
ATOM     25  C   UNL     1      -3.663  13.335  20.623  0.00  0.00    +0.000 A 
ATOM     26  C   UNL     1      -3.822  14.141  21.756  0.00  0.00    +0.000 A 
ATOM     27  C   UNL     1      -4.963  14.030  22.550  0.00  0.00    +0.000 A 
ATOM     28  C   UNL     1      -5.948  13.083  22.249  0.00  0.00    +0.000 A 
ATOM     29  C   UNL     1      -6.978  12.805  23.159  0.00  0.00    +0.000 A 
ATOM     30  C   UNL     1      -7.916  11.811  22.887  0.00  0.00    +0.000 A 
ATOM     31  C   UNL     1      -7.896  11.158  21.659  0.00  0.00    +0.000 A 
ATOM     32  C   UNL     1      -6.889  11.440  20.732  0.00  0.00    +0.000 A 
ATOM     33  C   UNL     1      -5.865  12.351  21.043  0.00  0.00    +0.000 A 
ATOM     34  C   UNL     1      -4.725  12.502  20.230  0.00  0.00    +0.000 A 
ENDBRANCH  24  25
ENDBRANCH  10  24
TORSDOF 4
ENDMDL
MODEL 2
REMARK VINA RESULT:      -8.8      3.027      4.588
REMARK  Name = 
REMARK  5 active torsions:
REMARK  status: ('A' for Active; 'I' for Inactive)
REMARK    1  A    between atoms: C_1  and  C_2
REMARK    2  A    between atoms: C_5  and  N_6
REMARK    3  A    between atoms: N_6  and  C_7
REMARK    4  A    between atoms: N_16  and  C_17
REMARK    5  A    between atoms: C_17  and  C_18
REMARK                            x       y       z     vdW  Elec       q    Type
REMARK                         _______ _______ _______ _____ _____    ______ ____
ROOT
ATOM      1  C   UNL     1       5.072   4.879  17.804  0.00  0.00    +0.000 C 
ATOM      2  C   UNL     1       5.405   6.354  17.480  0.00  0.00    +0.000 C 
ATOM      3  C   UNL     1       4.196   7.287  17.498  0.00  0.00    +0.000 C 
ATOM      4  C   UNL     1       3.288   7.023  18.650  0.00  0.00    +0.000 A 
ATOM      5  C   UNL     1       3.340   5.858  19.384  0.00  0.00    +0.000 A 
ATOM      6  S   UNL     1       2.269   5.890  20.713  0.00  0.00    +0.000 S 
ATOM      7  C   UNL     1       1.640   7.416  20.252  0.00  0.00    +0.000 A 
ATOM      8  N   UNL     1       0.651   8.035  20.945  0.00  0.00    +0.000 NA
ATOM      9  C   UNL     1       0.264   9.161  20.426  0.00  0.00    +0.000 A 
ATOM     10  N   UNL     1       0.762   9.744  19.274  0.00  0.00    +0.000 N 
ATOM     11  C   UNL     1       1.778   9.135  18.541  0.00  0.00    +0.000 A 
ATOM     12  O   UNL     1       2.219   9.580  17.486  0.00  0.00    +0.000 OA
ATOM     13  C   UNL     1       2.247   7.884  19.109  0.00  0.00    +0.000 A 
ATOM     14  C   UNL     1       4.286   4.723  19.134  0.00  0.00    +0.000 C 
ENDROOT
BRANCH   1  15
ATOM     15  N   UNL     1       4.448   4.216  16.629  0.00  0.00    +0.000 N 
ATOM     16  H   UNL     1       3.515   4.575  16.424  0.00  0.00    +0.000 HD
BRANCH  15  21
ATOM     17  C   UNL     1       7.558   4.530  11.800  0.00  0.00    +0.000 C 
ATOM     18  C   UNL     1       6.770   4.368  13.066  0.00  0.00    +0.000 A 
ATOM     19  C   UNL     1       7.320   4.777  14.276  0.00  0.00    +0.000 A 
ATOM     20  C   UNL     1       6.584   4.651  15.452  0.00  0.00    +0.000 A 
ATOM     21  C   UNL     1       5.252   4.201  15.456  0.00  0.00    +0.000 A 
ATOM     22  C   UNL     1       4.748   3.687  14.252  0.00  0.00    +0.000 A 
ATOM     23  C   UNL     1       5.501   3.773  13.074  0.00  0.00    +0.000 A 
ENDBRANCH  15  21
ENDBRANCH   1  15
BRANCH  10  24
ATOM     24  C   UNL     1       0.197  10.998  18.775  0.00  0.00    +0.000 C 
BRANCH  24  25
ATOM     25  C   UNL     1      -1.292  10.885  18.507  0.00  0.00    +0.000 A 
ATOM     26  C   UNL     1      -1.749  10.114  17.432  0.00  0.00    +0.000 A 
ATOM     27  C   UNL     1      -3.084  10.170  17.036  0.00  0.00    +0.000 A 
ATOM     28  C   UNL     1      -3.980  11.030  17.682  0.00  0.00    +0.000 A 
ATOM     29  C   UNL     1      -5.257  11.266  17.151  0.00  0.00    +0.000 A 
ATOM     30  C   UNL     1      -6.121  12.176  17.758  0.00  0.00    +0.000 A 
ATOM     31  C   UNL     1      -5.757  12.780  18.957  0.00  0.00    +0.000 A 
ATOM     32  C   UNL     1      -4.497  12.538  19.510  0.00  0.00    +0.000 A 
ATOM     33  C   UNL     1      -3.569  11.719  18.845  0.00  0.00    +0.000 A 
ATOM     34  C   UNL     1      -2.226  11.621  19.257  0.00  0.00    +0.000 A 
ENDBRANCH  24  25
ENDBRANCH  10  24
TORSDOF 4
ENDMDL
MODEL 3
REMARK VINA RESULT:      -8.7      2.480     10.398
REMARK  Name = 
REMARK  5 active torsions:
REMARK  status: ('A' for Active; 'I' for Inactive)
REMARK    1  A    between atoms: C_1  and  C_2
REMARK    2  A    between atoms: C_5  and  N_6
REMARK    3  A    between atoms: N_6  and  C_7
REMARK    4  A    between atoms: N_16  and  C_17
REMARK    5  A    between atoms: C_17  and  C_18
REMARK                            x       y       z     vdW  Elec       q    Type
REMARK                         _______ _______ _______ _____ _____    ______ ____
ROOT
ATOM      1  C   UNL     1      -2.352  13.625  21.938  0.00  0.00    +0.000 C 
ATOM      2  C   UNL     1      -2.537  13.198  20.463  0.00  0.00    +0.000 C 
ATOM      3  C   UNL     1      -1.356  12.422  19.884  0.00  0.00    +0.000 C 
ATOM      4  C   UNL     1      -0.819  11.407  20.831  0.00  0.00    +0.000 A 
ATOM      5  C   UNL     1      -1.110  11.422  22.179  0.00  0.00    +0.000 A 
ATOM      6  S   UNL     1      -0.457  10.069  22.990  0.00  0.00    +0.000 S 
ATOM      7  C   UNL     1       0.320   9.510  21.568  0.00  0.00    +0.000 A 
ATOM      8  N   UNL     1       1.090   8.393  21.552  0.00  0.00    +0.000 NA
ATOM      9  C   UNL     1       1.640   8.145  20.401  0.00  0.00    +0.000 A 
ATOM     10  N   UNL     1       1.505   8.901  19.251  0.00  0.00    +0.000 N 
ATOM     11  C   UNL     1       0.721  10.052  19.235  0.00  0.00    +0.000 A 
ATOM     12  O   UNL     1       0.609  10.789  18.259  0.00  0.00    +0.000 OA
ATOM     13  C   UNL     1       0.074  10.344  20.502  0.00  0.00    +0.000 A 
ATOM     14  C   UNL     1      -1.978  12.434  22.862  0.00  0.00    +0.000 C 
ENDROOT
BRANCH   1  15
ATOM     15  N   UNL     1      -1.440  14.795  22.031  0.00  0.00    +0.000 N 
ATOM     16  H   UNL     1      -0.478  14.530  22.243  0.00  0.00    +0.000 HD
BRANCH  15  21
ATOM     17  C   UNL     1      -1.410  18.630  17.742  0.00  0.00    +0.000 C 
ATOM     18  C   UNL     1      -1.471  17.583  18.815  0.00  0.00    +0.000 A 
ATOM     19  C   UNL     1      -0.472  16.619  18.895  0.00  0.00    +0.000 A 
ATOM     20  C   UNL     1      -0.510  15.660  19.903  0.00  0.00    +0.000 A 
ATOM     21  C   UNL     1      -1.486  15.677  20.916  0.00  0.00    +0.000 A 
ATOM     22  C   UNL     1      -2.548  16.580  20.763  0.00  0.00    +0.000 A 
ATOM     23  C   UNL     1      -2.536  17.521  19.724  0.00  0.00    +0.000 A 
ENDBRANCH  15  21
ENDBRANCH   1  15
BRANCH  10  24
ATOM     24  C   UNL     1       2.224   8.530  18.031  0.00  0.00    +0.000 C 
BRANCH  24  25
ATOM     25  C   UNL     1       2.753   7.110  18.092  0.00  0.00    +0.000 A 
ATOM     26  C   UNL     1       4.003   6.809  17.540  0.00  0.00    +0.000 A 
ATOM     27  C   UNL     1       4.412   5.485  17.388  0.00  0.00    +0.000 A 
ATOM     28  C   UNL     1       3.561   4.434  17.749  0.00  0.00    +0.000 A 
ATOM     29  C   UNL     1       3.862   3.112  17.392  0.00  0.00    +0.000 A 
ATOM     30  C   UNL     1       2.978   2.077  17.691  0.00  0.00    +0.000 A 
ATOM     31  C   UNL     1       1.835   2.338  18.441  0.00  0.00    +0.000 A 
ATOM     32  C   UNL     1       1.533   3.647  18.823  0.00  0.00    +0.000 A 
ATOM     33  C   UNL     1       2.351   4.717  18.422  0.00  0.00    +0.000 A 
ATOM     34  C   UNL     1       1.970   6.061  18.605  0.00  0.00    +0.000 A 
ENDBRANCH  24  25
ENDBRANCH  10  24
TORSDOF 4
ENDMDL
MODEL 4
REMARK VINA RESULT:      -8.6      2.849     10.392
REMARK  Name = 
REMARK  5 active torsions:
REMARK  status: ('A' for Active; 'I' for Inactive)
REMARK    1  A    between atoms: C_1  and  C_2
REMARK    2  A    between atoms: C_5  and  N_6
REMARK    3  A    between atoms: N_6  and  C_7
REMARK    4  A    between atoms: N_16  and  C_17
REMARK    5  A    between atoms: C_17  and  C_18
REMARK                            x       y       z     vdW  Elec       q    Type
REMARK                         _______ _______ _______ _____ _____    ______ ____
ROOT
ATOM      1  C   UNL     1      -1.673  13.701  21.258  0.00  0.00    +0.000 C 
ATOM      2  C   UNL     1      -1.695  13.246  19.780  0.00  0.00    +0.000 C 
ATOM      3  C   UNL     1      -0.551  12.309  19.398  0.00  0.00    +0.000 C 
ATOM      4  C   UNL     1      -0.292  11.271  20.433  0.00  0.00    +0.000 A 
ATOM      5  C   UNL     1      -0.771  11.372  21.722  0.00  0.00    +0.000 A 
ATOM      6  S   UNL     1      -0.422   9.980  22.647  0.00  0.00    +0.000 S 
ATOM      7  C   UNL     1       0.476   9.277  21.367  0.00  0.00    +0.000 A 
ATOM      8  N   UNL     1       1.091   8.073  21.487  0.00  0.00    +0.000 NA
ATOM      9  C   UNL     1       1.767   7.716  20.436  0.00  0.00    +0.000 A 
ATOM     10  N   UNL     1       1.898   8.440  19.264  0.00  0.00    +0.000 N 
ATOM     11  C   UNL     1       1.278   9.678  19.110  0.00  0.00    +0.000 A 
ATOM     12  O   UNL     1       1.404  10.385  18.115  0.00  0.00    +0.000 OA
ATOM     13  C   UNL     1       0.497  10.094  20.260  0.00  0.00    +0.000 A 
ATOM     14  C   UNL     1      -1.593  12.509  22.249  0.00  0.00    +0.000 C 
ENDROOT
BRANCH   1  15
ATOM     15  N   UNL     1      -0.643  14.753  21.463  0.00  0.00    +0.000 N 
ATOM     16  H   UNL     1       0.277  14.366  21.677  0.00  0.00    +0.000 HD
BRANCH  15  21
ATOM     17  C   UNL     1      -0.437  18.358  16.984  0.00  0.00    +0.000 C 
ATOM     18  C   UNL     1      -0.450  17.476  18.198  0.00  0.00    +0.000 A 
ATOM     19  C   UNL     1      -1.582  17.430  19.004  0.00  0.00    +0.000 A 
ATOM     20  C   UNL     1      -1.610  16.595  20.118  0.00  0.00    +0.000 A 
ATOM     21  C   UNL     1      -0.555  15.714  20.419  0.00  0.00    +0.000 A 
ATOM     22  C   UNL     1       0.622  15.849  19.669  0.00  0.00    +0.000 A 
ATOM     23  C   UNL     1       0.669  16.720  18.572  0.00  0.00    +0.000 A 
ENDBRANCH  15  21
ENDBRANCH   1  15
BRANCH  10  24
ATOM     24  C   UNL     1       2.733   7.937  18.172  0.00  0.00    +0.000 C 
BRANCH  24  25
ATOM     25  C   UNL     1       2.712   6.423  18.091  0.00  0.00    +0.000 A 
ATOM     26  C   UNL     1       1.567   5.767  17.624  0.00  0.00    +0.000 A 
ATOM     27  C   UNL     1       1.443   4.384  17.744  0.00  0.00    +0.000 A 
ATOM     28  C   UNL     1       2.444   3.634  18.370  0.00  0.00    +0.000 A 
ATOM     29  C   UNL     1       2.232   2.288  18.702  0.00  0.00    +0.000 A 
ATOM     30  C   UNL     1       3.204   1.563  19.389  0.00  0.00    +0.000 A 
ATOM     31  C   UNL     1       4.439   2.146  19.659  0.00  0.00    +0.000 A 
ATOM     32  C   UNL     1       4.674   3.479  19.315  0.00  0.00    +0.000 A 
ATOM     33  C   UNL     1       3.659   4.258  18.733  0.00  0.00    +0.000 A 
ATOM     34  C   UNL     1       3.786   5.651  18.569  0.00  0.00    +0.000 A 
ENDBRANCH  24  25
ENDBRANCH  10  24
TORSDOF 4
ENDMDL
MODEL 5
REMARK VINA RESULT:      -8.5      2.280     11.234
REMARK  Name = 
REMARK  5 active torsions:
REMARK  status: ('A' for Active; 'I' for Inactive)
REMARK    1  A    between atoms: C_1  and  C_2
REMARK    2  A    between atoms: C_5  and  N_6
REMARK    3  A    between atoms: N_6  and  C_7
REMARK    4  A    between atoms: N_16  and  C_17
REMARK    5  A    between atoms: C_17  and  C_18
REMARK                            x       y       z     vdW  Elec       q    Type
REMARK                         _______ _______ _______ _____ _____    ______ ____
ROOT
ATOM      1  C   UNL     1      -1.178  12.067  22.192  0.00  0.00    +0.000 C 
ATOM      2  C   UNL     1      -0.483  10.982  23.049  0.00  0.00    +0.000 C 
ATOM      3  C   UNL     1      -0.131   9.710  22.281  0.00  0.00    +0.000 C 
ATOM      4  C   UNL     1       0.441   9.995  20.935  0.00  0.00    +0.000 A 
ATOM      5  C   UNL     1       0.322  11.224  20.323  0.00  0.00    +0.000 A 
ATOM      6  S   UNL     1       1.178  11.290  18.848  0.00  0.00    +0.000 S 
ATOM      7  C   UNL     1       1.621   9.638  18.956  0.00  0.00    +0.000 A 
ATOM      8  N   UNL     1       2.350   9.017  17.995  0.00  0.00    +0.000 NA
ATOM      9  C   UNL     1       2.552   7.752  18.217  0.00  0.00    +0.000 A 
ATOM     10  N   UNL     1       2.097   7.031  19.307  0.00  0.00    +0.000 N 
ATOM     11  C   UNL     1       1.348   7.640  20.310  0.00  0.00    +0.000 A 
ATOM     12  O   UNL     1       0.875   7.039  21.270  0.00  0.00    +0.000 OA
ATOM     13  C   UNL     1       1.124   9.060  20.101  0.00  0.00    +0.000 A 
ATOM     14  C   UNL     1      -0.381  12.412  20.905  0.00  0.00    +0.000 C 
ENDROOT
BRANCH   1  15
ATOM     15  N   UNL     1      -2.605  11.717  21.967  0.00  0.00    +0.000 N 
ATOM     16  H   UNL     1      -2.853  10.807  22.356  0.00  0.00    +0.000 HD
BRANCH  15  21
ATOM     17  C   UNL     1      -6.521  15.467  23.891  0.00  0.00    +0.000 C 
ATOM     18  C   UNL     1      -5.479  14.545  23.330  0.00  0.00    +0.000 A 
ATOM     19  C   UNL     1      -4.217  14.495  23.911  0.00  0.00    +0.000 A 
ATOM     20  C   UNL     1      -3.254  13.623  23.410  0.00  0.00    +0.000 A 
ATOM     21  C   UNL     1      -3.535  12.711  22.377  0.00  0.00    +0.000 A 
ATOM     22  C   UNL     1      -4.770  12.847  21.725  0.00  0.00    +0.000 A 
ATOM     23  C   UNL     1      -5.727  13.753  22.200  0.00  0.00    +0.000 A 
ENDBRANCH  15  21
ENDBRANCH   1  15
BRANCH  10  24
ATOM     24  C   UNL     1       2.358   5.595  19.406  0.00  0.00    +0.000 C 
BRANCH  24  25
ATOM     25  C   UNL     1       3.663   5.206  18.738  0.00  0.00    +0.000 A 
ATOM     26  C   UNL     1       4.876   5.424  19.402  0.00  0.00    +0.000 A 
ATOM     27  C   UNL     1       6.089   5.280  18.729  0.00  0.00    +0.000 A 
ATOM     28  C   UNL     1       6.111   4.955  17.368  0.00  0.00    +0.000 A 
ATOM     29  C   UNL     1       7.301   5.033  16.631  0.00  0.00    +0.000 A 
ATOM     30  C   UNL     1       7.307   4.777  15.261  0.00  0.00    +0.000 A 
ATOM     31  C   UNL     1       6.143   4.339  14.635  0.00  0.00    +0.000 A 
ATOM     32  C   UNL     1       4.954   4.235  15.361  0.00  0.00    +0.000 A 
ATOM     33  C   UNL     1       4.907   4.609  16.715  0.00  0.00    +0.000 A 
ATOM     34  C   UNL     1       3.692   4.720  17.419  0.00  0.00    +0.000 A 
ENDBRANCH  24  25
ENDBRANCH  10  24
TORSDOF 4
ENDMDL
MODEL 6
REMARK VINA RESULT:      -8.3      1.296      2.439
REMARK  Name = 
REMARK  5 active torsions:
REMARK  status: ('A' for Active; 'I' for Inactive)
REMARK    1  A    between atoms: C_1  and  C_2
REMARK    2  A    between atoms: C_5  and  N_6
REMARK    3  A    between atoms: N_6  and  C_7
REMARK    4  A    between atoms: N_16  and  C_17
REMARK    5  A    between atoms: C_17  and  C_18
REMARK                            x       y       z     vdW  Elec       q    Type
REMARK                         _______ _______ _______ _____ _____    ______ ____
ROOT
ATOM      1  C   UNL     1       2.509   7.348  18.452  0.00  0.00    +0.000 C 
ATOM      2  C   UNL     1       2.339   8.696  17.713  0.00  0.00    +0.000 C 
ATOM      3  C   UNL     1       1.075   9.463  18.095  0.00  0.00    +0.000 C 
ATOM      4  C   UNL     1       0.817   9.445  19.562  0.00  0.00    +0.000 A 
ATOM      5  C   UNL     1       1.428   8.550  20.412  0.00  0.00    +0.000 A 
ATOM      6  S   UNL     1       1.034   8.846  22.046  0.00  0.00    +0.000 S 
ATOM      7  C   UNL     1      -0.051  10.103  21.624  0.00  0.00    +0.000 A 
ATOM      8  N   UNL     1      -0.769  10.787  22.551  0.00  0.00    +0.000 NA
ATOM      9  C   UNL     1      -1.577  11.672  22.049  0.00  0.00    +0.000 A 
ATOM     10  N   UNL     1      -1.750  11.951  20.705  0.00  0.00    +0.000 N 
ATOM     11  C   UNL     1      -1.028  11.269  19.729  0.00  0.00    +0.000 A 
ATOM     12  O   UNL     1      -1.180  11.438  18.523  0.00  0.00    +0.000 OA
ATOM     13  C   UNL     1      -0.099  10.287  20.261  0.00  0.00    +0.000 A 
ATOM     14  C   UNL     1       2.408   7.496  19.994  0.00  0.00    +0.000 C 
ENDROOT
BRANCH   1  15
ATOM     15  N   UNL     1       1.614   6.316  17.865  0.00  0.00    +0.000 N 
ATOM     16  H   UNL     1       1.307   6.552  16.920  0.00  0.00    +0.000 HD
BRANCH  15  21
ATOM     17  C   UNL     1       3.808   1.029  18.435  0.00  0.00    +0.000 C 
ATOM     18  C   UNL     1       3.219   2.389  18.206  0.00  0.00    +0.000 A 
ATOM     19  C   UNL     1       1.903   2.640  18.574  0.00  0.00    +0.000 A 
ATOM     20  C   UNL     1       1.357   3.908  18.387  0.00  0.00    +0.000 A 
ATOM     21  C   UNL     1       2.122   4.989  17.912  0.00  0.00    +0.000 A 
ATOM     22  C   UNL     1       3.410   4.699  17.439  0.00  0.00    +0.000 A 
ATOM     23  C   UNL     1       3.948   3.414  17.587  0.00  0.00    +0.000 A 
ENDBRANCH  15  21
ENDBRANCH   1  15
BRANCH  10  24
ATOM     24  C   UNL     1      -2.735  12.945  20.276  0.00  0.00    +0.000 C 
BRANCH  24  25
ATOM     25  C   UNL     1      -3.471  13.561  21.451  0.00  0.00    +0.000 A 
ATOM     26  C   UNL     1      -4.764  13.126  21.766  0.00  0.00    +0.000 A 
ATOM     27  C   UNL     1      -5.539  13.821  22.694  0.00  0.00    +0.000 A 
ATOM     28  C   UNL     1      -5.052  14.987  23.294  0.00  0.00    +0.000 A 
ATOM     29  C   UNL     1      -5.898  15.815  24.045  0.00  0.00    +0.000 A 
ATOM     30  C   UNL     1      -5.427  17.012  24.582  0.00  0.00    +0.000 A 
ATOM     31  C   UNL     1      -4.080  17.342  24.461  0.00  0.00    +0.000 A 
ATOM     32  C   UNL     1      -3.220  16.516  23.734  0.00  0.00    +0.000 A 
ATOM     33  C   UNL     1      -3.708  15.369  23.083  0.00  0.00    +0.000 A 
ATOM     34  C   UNL     1      -2.923  14.635  22.174  0.00  0.00    +0.000 A 
ENDBRANCH  24  25
ENDBRANCH  10  24
TORSDOF 4
ENDMDL
MODEL 7
REMARK VINA RESULT:      -8.3      2.215     10.443
REMARK  Name = 
REMARK  5 active torsions:
REMARK  status: ('A' for Active; 'I' for Inactive)
REMARK    1  A    between atoms: C_1  and  C_2
REMARK    2  A    between atoms: C_5  and  N_6
REMARK    3  A    between atoms: N_6  and  C_7
REMARK    4  A    between atoms: N_16  and  C_17
REMARK    5  A    between atoms: C_17  and  C_18
REMARK                            x       y       z     vdW  Elec       q    Type
REMARK                         _______ _______ _______ _____ _____    ______ ____
ROOT
ATOM      1  C   UNL     1      -3.247  13.167  20.737  0.00  0.00    +0.000 C 
ATOM      2  C   UNL     1      -3.348  12.354  19.424  0.00  0.00    +0.000 C 
ATOM      3  C   UNL     1      -2.026  11.743  18.964  0.00  0.00    +0.000 C 
ATOM      4  C   UNL     1      -1.252  11.144  20.086  0.00  0.00    +0.000 A 
ATOM      5  C   UNL     1      -1.518  11.430  21.407  0.00  0.00    +0.000 A 
ATOM      6  S   UNL     1      -0.553  10.505  22.470  0.00  0.00    +0.000 S 
ATOM      7  C   UNL     1       0.312   9.797  21.171  0.00  0.00    +0.000 A 
ATOM      8  N   UNL     1       1.323   8.913  21.367  0.00  0.00    +0.000 NA
ATOM      9  C   UNL     1       1.899   8.515  20.272  0.00  0.00    +0.000 A 
ATOM     10  N   UNL     1       1.572   8.909  18.987  0.00  0.00    +0.000 N 
ATOM     11  C   UNL     1       0.539   9.813  18.753  0.00  0.00    +0.000 A 
ATOM     12  O   UNL     1       0.243  10.238  17.640  0.00  0.00    +0.000 OA
ATOM     13  C   UNL     1      -0.139  10.260  19.956  0.00  0.00    +0.000 A 
ATOM     14  C   UNL     1      -2.589  12.360  21.889  0.00  0.00    +0.000 C 
ENDROOT
BRANCH   1  15
ATOM     15  N   UNL     1      -2.634  14.497  20.479  0.00  0.00    +0.000 N 
ATOM     16  H   UNL     1      -3.194  15.073  19.849  0.00  0.00    +0.000 HD
BRANCH  15  21
ATOM     17  C   UNL     1      -1.221  17.095  25.413  0.00  0.00    +0.000 C 
ATOM     18  C   UNL     1      -1.592  16.493  24.090  0.00  0.00    +0.000 A 
ATOM     19  C   UNL     1      -0.599  15.976  23.266  0.00  0.00    +0.000 A 
ATOM     20  C   UNL     1      -0.940  15.394  22.047  0.00  0.00    +0.000 A 
ATOM     21  C   UNL     1      -2.277  15.226  21.646  0.00  0.00    +0.000 A 
ATOM     22  C   UNL     1      -3.261  15.849  22.428  0.00  0.00    +0.000 A 
ATOM     23  C   UNL     1      -2.918  16.473  23.635  0.00  0.00    +0.000 A 
ENDBRANCH  15  21
ENDBRANCH   1  15
BRANCH  10  24
ATOM     24  C   UNL     1       2.340   8.415  17.843  0.00  0.00    +0.000 C 
BRANCH  24  25
ATOM     25  C   UNL     1       2.799   6.983  18.041  0.00  0.00    +0.000 A 
ATOM     26  C   UNL     1       4.105   6.617  17.698  0.00  0.00    +0.000 A 
ATOM     27  C   UNL     1       4.481   5.275  17.664  0.00  0.00    +0.000 A 
ATOM     28  C   UNL     1       3.545   4.270  17.933  0.00  0.00    +0.000 A 
ATOM     29  C   UNL     1       3.845   2.924  17.679  0.00  0.00    +0.000 A 
ATOM     30  C   UNL     1       2.887   1.932  17.881  0.00  0.00    +0.000 A 
ATOM     31  C   UNL     1       1.655   2.264  18.436  0.00  0.00    +0.000 A 
ATOM     32  C   UNL     1       1.349   3.598  18.715  0.00  0.00    +0.000 A 
ATOM     33  C   UNL     1       2.260   4.622  18.402  0.00  0.00    +0.000 A 
ATOM     34  C   UNL     1       1.907   5.984  18.470  0.00  0.00    +0.000 A 
ENDBRANCH  24  25
ENDBRANCH  10  24
TORSDOF 4
ENDMDL
MODEL 8
REMARK VINA RESULT:      -8.3      5.958      9.051
REMARK  Name = 
REMARK  5 active torsions:
REMARK  status: ('A' for Active; 'I' for Inactive)
REMARK    1  A    between atoms: C_1  and  C_2
REMARK    2  A    between atoms: C_5  and  N_6
REMARK    3  A    between atoms: N_6  and  C_7
REMARK    4  A    between atoms: N_16  and  C_17
REMARK    5  A    between atoms: C_17  and  C_18
REMARK                            x       y       z     vdW  Elec       q    Type
REMARK                         _______ _______ _______ _____ _____    ______ ____
ROOT
ATOM      1  C   UNL     1       6.959  15.618  19.450  0.00  0.00    +0.000 C 
ATOM      2  C   UNL     1       6.206  15.341  18.127  0.00  0.00    +0.000 C 
ATOM      3  C   UNL     1       5.032  14.375  18.267  0.00  0.00    +0.000 C 
ATOM      4  C   UNL     1       4.212  14.644  19.481  0.00  0.00    +0.000 A 
ATOM      5  C   UNL     1       4.666  15.418  20.527  0.00  0.00    +0.000 A 
ATOM      6  S   UNL     1       3.467  15.651  21.719  0.00  0.00    +0.000 S 
ATOM      7  C   UNL     1       2.366  14.622  20.905  0.00  0.00    +0.000 A 
ATOM      8  N   UNL     1       1.130  14.346  21.394  0.00  0.00    +0.000 NA
ATOM      9  C   UNL     1       0.448  13.509  20.671  0.00  0.00    +0.000 A 
ATOM     10  N   UNL     1       0.870  12.909  19.499  0.00  0.00    +0.000 N 
ATOM     11  C   UNL     1       2.132  13.172  18.970  0.00  0.00    +0.000 A 
ATOM     12  O   UNL     1       2.578  12.627  17.965  0.00  0.00    +0.000 OA
ATOM     13  C   UNL     1       2.911  14.121  19.745  0.00  0.00    +0.000 A 
ATOM     14  C   UNL     1       6.010  16.077  20.591  0.00  0.00    +0.000 C 
ENDROOT
BRANCH   1  15
ATOM     15  N   UNL     1       7.842  14.474  19.796  0.00  0.00    +0.000 N 
ATOM     16  H   UNL     1       7.321  13.617  19.984  0.00  0.00    +0.000 HD
BRANCH  15  21
ATOM     17  C   UNL     1      12.333  13.380  16.371  0.00  0.00    +0.000 C 
ATOM     18  C   UNL     1      11.122  13.698  17.198  0.00  0.00    +0.000 A 
ATOM     19  C   UNL     1      10.180  12.707  17.448  0.00  0.00    +0.000 A 
ATOM     20  C   UNL     1       9.066  12.989  18.235  0.00  0.00    +0.000 A 
ATOM     21  C   UNL     1       8.895  14.232  18.871  0.00  0.00    +0.000 A 
ATOM     22  C   UNL     1       9.789  15.255  18.522  0.00  0.00    +0.000 A 
ATOM     23  C   UNL     1      10.888  14.986  17.696  0.00  0.00    +0.000 A 
ENDBRANCH  15  21
ENDBRANCH   1  15
BRANCH  10  24
ATOM     24  C   UNL     1       0.013  11.944  18.810  0.00  0.00    +0.000 C 
BRANCH  24  25
ATOM     25  C   UNL     1       0.375  10.512  19.155  0.00  0.00    +0.000 A 
ATOM     26  C   UNL     1       0.133  10.024  20.444  0.00  0.00    +0.000 A 
ATOM     27  C   UNL     1       0.652   8.794  20.846  0.00  0.00    +0.000 A 
ATOM     28  C   UNL     1       1.458   8.047  19.980  0.00  0.00    +0.000 A 
ATOM     29  C   UNL     1       2.169   6.931  20.445  0.00  0.00    +0.000 A 
ATOM     30  C   UNL     1       3.026   6.231  19.598  0.00  0.00    +0.000 A 
ATOM     31  C   UNL     1       3.101   6.576  18.251  0.00  0.00    +0.000 A 
ATOM     32  C   UNL     1       2.381   7.672  17.768  0.00  0.00    +0.000 A 
ATOM     33  C   UNL     1       1.609   8.461  18.638  0.00  0.00    +0.000 A 
ATOM     34  C   UNL     1       1.045   9.687  18.234  0.00  0.00    +0.000 A 
ENDBRANCH  24  25
ENDBRANCH  10  24
TORSDOF 4
ENDMDL
MODEL 9
REMARK VINA RESULT:      -8.2      1.853      2.858
REMARK  Name = 
REMARK  5 active torsions:
REMARK  status: ('A' for Active; 'I' for Inactive)
REMARK    1  A    between atoms: C_1  and  C_2
REMARK    2  A    between atoms: C_5  and  N_6
REMARK    3  A    between atoms: N_6  and  C_7
REMARK    4  A    between atoms: N_16  and  C_17
REMARK    5  A    between atoms: C_17  and  C_18
REMARK                            x       y       z     vdW  Elec       q    Type
REMARK                         _______ _______ _______ _____ _____    ______ ____
ROOT
ATOM      1  C   UNL     1       2.464   7.441  18.497  0.00  0.00    +0.000 C 
ATOM      2  C   UNL     1       2.294   8.791  17.761  0.00  0.00    +0.000 C 
ATOM      3  C   UNL     1       1.019   9.547  18.128  0.00  0.00    +0.000 C 
ATOM      4  C   UNL     1       0.740   9.522  19.591  0.00  0.00    +0.000 A 
ATOM      5  C   UNL     1       1.347   8.627  20.446  0.00  0.00    +0.000 A 
ATOM      6  S   UNL     1       0.927   8.915  22.076  0.00  0.00    +0.000 S 
ATOM      7  C   UNL     1      -0.161  10.165  21.642  0.00  0.00    +0.000 A 
ATOM      8  N   UNL     1      -0.897  10.840  22.562  0.00  0.00    +0.000 NA
ATOM      9  C   UNL     1      -1.704  11.721  22.052  0.00  0.00    +0.000 A 
ATOM     10  N   UNL     1      -1.861  12.005  20.707  0.00  0.00    +0.000 N 
ATOM     11  C   UNL     1      -1.119  11.331  19.739  0.00  0.00    +0.000 A 
ATOM     12  O   UNL     1      -1.255  11.504  18.531  0.00  0.00    +0.000 OA
ATOM     13  C   UNL     1      -0.191  10.355  20.280  0.00  0.00    +0.000 A 
ATOM     14  C   UNL     1       2.340   7.582  20.038  0.00  0.00    +0.000 C 
ENDROOT
BRANCH   1  15
ATOM     15  N   UNL     1       1.585   6.405  17.893  0.00  0.00    +0.000 N 
ATOM     16  H   UNL     1       1.272   6.653  16.954  0.00  0.00    +0.000 HD
BRANCH  15  21
ATOM     17  C   UNL     1       3.838   1.134  18.377  0.00  0.00    +0.000 C 
ATOM     18  C   UNL     1       3.240   2.494  18.169  0.00  0.00    +0.000 A 
ATOM     19  C   UNL     1       1.895   2.705  18.449  0.00  0.00    +0.000 A 
ATOM     20  C   UNL     1       1.339   3.971  18.281  0.00  0.00    +0.000 A 
ATOM     21  C   UNL     1       2.115   5.086  17.917  0.00  0.00    +0.000 A 
ATOM     22  C   UNL     1       3.440   4.841  17.528  0.00  0.00    +0.000 A 
ATOM     23  C   UNL     1       3.992   3.560  17.656  0.00  0.00    +0.000 A 
ENDBRANCH  15  21
ENDBRANCH   1  15
BRANCH  10  24
ATOM     24  C   UNL     1      -2.847  12.993  20.268  0.00  0.00    +0.000 C 
BRANCH  24  25
ATOM     25  C   UNL     1      -2.795  14.259  21.102  0.00  0.00    +0.000 A 
ATOM     26  C   UNL     1      -1.656  15.071  21.064  0.00  0.00    +0.000 A 
ATOM     27  C   UNL     1      -1.496  16.112  21.977  0.00  0.00    +0.000 A 
ATOM     28  C   UNL     1      -2.453  16.334  22.974  0.00  0.00    +0.000 A 
ATOM     29  C   UNL     1      -2.196  17.220  24.031  0.00  0.00    +0.000 A 
ATOM     30  C   UNL     1      -3.122  17.386  25.059  0.00  0.00    +0.000 A 
ATOM     31  C   UNL     1      -4.357  16.749  24.987  0.00  0.00    +0.000 A 
ATOM     32  C   UNL     1      -4.636  15.880  23.929  0.00  0.00    +0.000 A 
ATOM     33  C   UNL     1      -3.665  15.608  22.950  0.00  0.00    +0.000 A 
ATOM     34  C   UNL     1      -3.830  14.586  21.996  0.00  0.00    +0.000 A 
ENDBRANCH  24  25
ENDBRANCH  10  24
TORSDOF 4
ENDMDL
