MODEL 1
REMARK VINA RESULT:      -7.0      0.000      0.000
REMARK  Name = 
REMARK  6 active torsions:
REMARK  status: ('A' for Active; 'I' for Inactive)
REMARK    1  A    between atoms: C_1  and  C_2
REMARK    2  A    between atoms: C_2  and  C_3
REMARK    3  A    between atoms: N_6  and  C_7
REMARK    4  A    between atoms: C_7  and  C_8
REMARK    5  A    between atoms: C_17  and  C_18
REMARK    6  A    between atoms: C_23  and  C_24
REMARK                            x       y       z     vdW  Elec       q    Type
REMARK                         _______ _______ _______ _____ _____    ______ ____
ROOT
ATOM      1  C   UNL     1       3.676   3.056  18.162  0.00  0.00    +0.000 C 
ATOM      2  C   UNL     1       2.346   3.968  17.195  0.00  0.00    +0.000 C 
ATOM      3  C   UNL     1       1.799   5.353  17.690  0.00  0.00    +0.000 C 
ATOM      4  N   UNL     1       2.987   5.884  18.230  0.00  0.00    +0.000 NA
ATOM      5  C   UNL     1       3.409   4.950  19.277  0.00  0.00    +0.000 C 
ATOM      6  C   UNL     1       5.051   5.147  19.131  0.00  0.00    +0.000 C 
ATOM      7  O   UNL     1       5.745   5.805  19.898  0.00  0.00    +0.000 OA
ATOM      8  C   UNL     1       5.633   4.544  17.899  0.00  0.00    +0.000 A 
ATOM      9  C   UNL     1       6.769   4.998  17.231  0.00  0.00    +0.000 A 
ATOM     10  C   UNL     1       6.925   4.693  15.872  0.00  0.00    +0.000 A 
ATOM     11  C   UNL     1       5.942   3.949  15.191  0.00  0.00    +0.000 A 
ATOM     12  C   UNL     1       4.945   3.313  15.952  0.00  0.00    +0.000 A 
ATOM     13  C   UNL     1       4.812   3.592  17.329  0.00  0.00    +0.000 A 
ATOM     14  C   UNL     1       2.557   3.375  19.038  0.00  0.00    +0.000 C 
ATOM     15  C   UNL     1       2.263   1.750  18.341  0.00  0.00    +0.000 C 
ENDROOT
BRANCH  11  16
ATOM     16  C   UNL     1       5.924   3.985  13.696  0.00  0.00    +0.000 C 
ATOM     17  N   UNL     1       7.045   4.310  12.997  0.00  0.00    +0.000 N 
ATOM     18  O   UNL     1       4.900   3.657  13.075  0.00  0.00    +0.000 OA
ATOM     19  H   UNL     1       7.903   4.629  13.417  0.00  0.00    +0.000 HD
ATOM     20  H   UNL     1       6.986   4.286  11.988  0.00  0.00    +0.000 HD
ENDBRANCH  11  16
BRANCH   1  22
ATOM     21  C   UNL     1       5.044   1.233  20.311  0.00  0.00    +0.000 C 
ATOM     22  C   UNL     1       4.430   2.620  19.798  0.00  0.00    +0.000 C 
ENDBRANCH   1  22
BRANCH   4  23
ATOM     23  C   UNL     1       3.191   7.289  18.475  0.00  0.00    +0.000 C 
BRANCH  23  24
ATOM     24  C   UNL     1       2.029   8.130  18.032  0.00  0.00    +0.000 C 
ATOM     25  C   UNL     1       1.394   9.062  19.028  0.00  0.00    +0.000 C 
ATOM     26  C   UNL     1       2.130   9.627  17.843  0.00  0.00    +0.000 C 
ENDBRANCH  23  24
ENDBRANCH   4  23
TORSDOF 4
ENDMDL
MODEL 2
REMARK VINA RESULT:      -6.7      9.785     12.435
REMARK  Name = 
REMARK  6 active torsions:
REMARK  status: ('A' for Active; 'I' for Inactive)
REMARK    1  A    between atoms: C_1  and  C_2
REMARK    2  A    between atoms: C_2  and  C_3
REMARK    3  A    between atoms: N_6  and  C_7
REMARK    4  A    between atoms: C_7  and  C_8
REMARK    5  A    between atoms: C_17  and  C_18
REMARK    6  A    between atoms: C_23  and  C_24
REMARK                            x       y       z     vdW  Elec       q    Type
REMARK                         _______ _______ _______ _____ _____    ______ ____
ROOT
ATOM      1  C   UNL     1      10.691  12.763  19.598  0.00  0.00    +0.000 C 
ATOM      2  C   UNL     1      11.898  14.205  19.607  0.00  0.00    +0.000 C 
ATOM      3  C   UNL     1      11.956  15.214  18.407  0.00  0.00    +0.000 C 
ATOM      4  N   UNL     1      10.588  15.240  18.068  0.00  0.00    +0.000 NA
ATOM      5  C   UNL     1      10.229  13.859  17.730  0.00  0.00    +0.000 C 
ATOM      6  C   UNL     1       8.654  13.883  18.255  0.00  0.00    +0.000 C 
ATOM      7  O   UNL     1       7.676  13.968  17.521  0.00  0.00    +0.000 OA
ATOM      8  C   UNL     1       8.503  13.908  19.736  0.00  0.00    +0.000 A 
ATOM      9  C   UNL     1       7.441  14.479  20.436  0.00  0.00    +0.000 A 
ATOM     10  C   UNL     1       7.639  14.879  21.764  0.00  0.00    +0.000 A 
ATOM     11  C   UNL     1       8.897  14.716  22.378  0.00  0.00    +0.000 A 
ATOM     12  C   UNL     1       9.856  13.923  21.724  0.00  0.00    +0.000 A 
ATOM     13  C   UNL     1       9.640  13.489  20.398  0.00  0.00    +0.000 A 
ATOM     14  C   UNL     1      11.493  12.747  18.382  0.00  0.00    +0.000 C 
ATOM     15  C   UNL     1      12.333  11.746  19.610  0.00  0.00    +0.000 C 
ENDROOT
BRANCH  11  16
ATOM     16  C   UNL     1       9.196  15.498  23.617  0.00  0.00    +0.000 C 
ATOM     17  N   UNL     1       9.496  16.823  23.544  0.00  0.00    +0.000 N 
ATOM     18  O   UNL     1       9.113  14.958  24.732  0.00  0.00    +0.000 OA
ATOM     19  H   UNL     1       9.626  17.330  22.683  0.00  0.00    +0.000 HD
ATOM     20  H   UNL     1       9.657  17.311  24.415  0.00  0.00    +0.000 HD
ENDBRANCH  11  16
BRANCH   1  22
ATOM     21  C   UNL     1       9.097  10.107  19.137  0.00  0.00    +0.000 C 
ATOM     22  C   UNL     1       9.773  11.471  18.639  0.00  0.00    +0.000 C 
ENDBRANCH   1  22
BRANCH   4  23
ATOM     23  C   UNL     1       9.979  16.290  17.293  0.00  0.00    +0.000 C 
BRANCH  23  24
ATOM     24  C   UNL     1       9.118  17.198  18.124  0.00  0.00    +0.000 C 
ATOM     25  C   UNL     1       9.540  17.496  19.536  0.00  0.00    +0.000 C 
ATOM     26  C   UNL     1       9.542  18.597  18.510  0.00  0.00    +0.000 C 
ENDBRANCH  23  24
ENDBRANCH   4  23
TORSDOF 4
ENDMDL
MODEL 3
REMARK VINA RESULT:      -6.6      7.716      9.669
REMARK  Name = 
REMARK  6 active torsions:
REMARK  status: ('A' for Active; 'I' for Inactive)
REMARK    1  A    between atoms: C_1  and  C_2
REMARK    2  A    between atoms: C_2  and  C_3
REMARK    3  A    between atoms: N_6  and  C_7
REMARK    4  A    between atoms: C_7  and  C_8
REMARK    5  A    between atoms: C_17  and  C_18
REMARK    6  A    between atoms: C_23  and  C_24
REMARK                            x       y       z     vdW  Elec       q    Type
REMARK                         _______ _______ _______ _____ _____    ______ ____
ROOT
ATOM      1  C   UNL     1      -0.988  11.704  20.870  0.00  0.00    +0.000 C 
ATOM      2  C   UNL     1      -1.128  13.489  20.294  0.00  0.00    +0.000 C 
ATOM      3  C   UNL     1       0.135  14.273  19.791  0.00  0.00    +0.000 C 
ATOM      4  N   UNL     1       0.820  13.216  19.160  0.00  0.00    +0.000 NA
ATOM      5  C   UNL     1       1.061  12.211  20.199  0.00  0.00    +0.000 C 
ATOM      6  C   UNL     1       0.974  10.853  19.247  0.00  0.00    +0.000 C 
ATOM      7  O   UNL     1       1.943  10.208  18.863  0.00  0.00    +0.000 OA
ATOM      8  C   UNL     1      -0.401  10.520  18.780  0.00  0.00    +0.000 A 
ATOM      9  C   UNL     1      -0.719   9.859  17.594  0.00  0.00    +0.000 A 
ATOM     10  C   UNL     1      -1.989  10.042  17.033  0.00  0.00    +0.000 A 
ATOM     11  C   UNL     1      -2.927  10.891  17.654  0.00  0.00    +0.000 A 
ATOM     12  C   UNL     1      -2.654  11.340  18.959  0.00  0.00    +0.000 A 
ATOM     13  C   UNL     1      -1.385  11.122  19.537  0.00  0.00    +0.000 A 
ATOM     14  C   UNL     1      -0.037  12.535  21.595  0.00  0.00    +0.000 C 
ATOM     15  C   UNL     1      -1.560  12.487  22.540  0.00  0.00    +0.000 C 
ENDROOT
BRANCH  11  16
ATOM     16  C   UNL     1      -4.090  11.383  16.852  0.00  0.00    +0.000 C 
ATOM     17  N   UNL     1      -4.949  12.303  17.369  0.00  0.00    +0.000 N 
ATOM     18  O   UNL     1      -4.247  11.001  15.681  0.00  0.00    +0.000 OA
ATOM     19  H   UNL     1      -4.922  12.634  18.320  0.00  0.00    +0.000 HD
ATOM     20  H   UNL     1      -5.697  12.625  16.771  0.00  0.00    +0.000 HD
ENDBRANCH  11  16
BRANCH   1  22
ATOM     21  C   UNL     1      -0.437   8.923  22.201  0.00  0.00    +0.000 C 
ATOM     22  C   UNL     1       0.004  10.381  21.707  0.00  0.00    +0.000 C 
ENDBRANCH   1  22
BRANCH   4  23
ATOM     23  C   UNL     1       1.856  13.413  18.178  0.00  0.00    +0.000 C 
BRANCH  23  24
ATOM     24  C   UNL     1       2.793  14.529  18.540  0.00  0.00    +0.000 C 
ATOM     25  C   UNL     1       4.226  14.439  18.092  0.00  0.00    +0.000 C 
ATOM     26  C   UNL     1       3.332  15.505  17.519  0.00  0.00    +0.000 C 
ENDBRANCH  23  24
ENDBRANCH   4  23
TORSDOF 4
ENDMDL
MODEL 4
REMARK VINA RESULT:      -6.5      2.489      5.176
REMARK  Name = 
REMARK  6 active torsions:
REMARK  status: ('A' for Active; 'I' for Inactive)
REMARK    1  A    between atoms: C_1  and  C_2
REMARK    2  A    between atoms: C_2  and  C_3
REMARK    3  A    between atoms: N_6  and  C_7
REMARK    4  A    between atoms: C_7  and  C_8
REMARK    5  A    between atoms: C_17  and  C_18
REMARK    6  A    between atoms: C_23  and  C_24
REMARK                            x       y       z     vdW  Elec       q    Type
REMARK                         _______ _______ _______ _____ _____    ______ ____
ROOT
ATOM      1  C   UNL     1       5.628   5.633  17.595  0.00  0.00    +0.000 C 
ATOM      2  C   UNL     1       4.622   5.167  16.076  0.00  0.00    +0.000 C 
ATOM      3  C   UNL     1       4.004   3.731  15.930  0.00  0.00    +0.000 C 
ATOM      4  N   UNL     1       3.688   3.484  17.281  0.00  0.00    +0.000 NA
ATOM      5  C   UNL     1       4.954   3.566  18.015  0.00  0.00    +0.000 C 
ATOM      6  C   UNL     1       4.364   4.160  19.449  0.00  0.00    +0.000 C 
ATOM      7  O   UNL     1       4.200   3.493  20.464  0.00  0.00    +0.000 OA
ATOM      8  C   UNL     1       3.927   5.583  19.389  0.00  0.00    +0.000 A 
ATOM      9  C   UNL     1       2.927   6.159  20.171  0.00  0.00    +0.000 A 
ATOM     10  C   UNL     1       2.277   7.309  19.704  0.00  0.00    +0.000 A 
ATOM     11  C   UNL     1       2.621   7.865  18.456  0.00  0.00    +0.000 A 
ATOM     12  C   UNL     1       3.786   7.399  17.821  0.00  0.00    +0.000 A 
ATOM     13  C   UNL     1       4.463   6.263  18.314  0.00  0.00    +0.000 A 
ATOM     14  C   UNL     1       6.171   4.424  16.993  0.00  0.00    +0.000 C 
ATOM     15  C   UNL     1       7.022   5.828  16.272  0.00  0.00    +0.000 C 
ENDROOT
BRANCH  11  16
ATOM     16  C   UNL     1       1.666   8.816  17.807  0.00  0.00    +0.000 C 
ATOM     17  N   UNL     1       1.983  10.132  17.672  0.00  0.00    +0.000 N 
ATOM     18  O   UNL     1       0.598   8.400  17.329  0.00  0.00    +0.000 OA
ATOM     19  H   UNL     1       2.805  10.562  18.065  0.00  0.00    +0.000 HD
ATOM     20  H   UNL     1       1.316  10.723  17.195  0.00  0.00    +0.000 HD
ENDBRANCH  11  16
BRANCH   1  22
ATOM     21  C   UNL     1       8.002   5.959  19.612  0.00  0.00    +0.000 C 
ATOM     22  C   UNL     1       6.814   5.131  18.927  0.00  0.00    +0.000 C 
ENDBRANCH   1  22
BRANCH   4  23
ATOM     23  C   UNL     1       2.740   2.486  17.707  0.00  0.00    +0.000 C 
BRANCH  23  24
ATOM     24  C   UNL     1       1.446   3.082  18.181  0.00  0.00    +0.000 C 
ATOM     25  C   UNL     1       0.375   2.159  18.696  0.00  0.00    +0.000 C 
ATOM     26  C   UNL     1       1.050   3.117  19.640  0.00  0.00    +0.000 C 
ENDBRANCH  23  24
ENDBRANCH   4  23
TORSDOF 4
ENDMDL
MODEL 5
REMARK VINA RESULT:      -6.4      8.462     10.171
REMARK  Name = 
REMARK  6 active torsions:
REMARK  status: ('A' for Active; 'I' for Inactive)
REMARK    1  A    between atoms: C_1  and  C_2
REMARK    2  A    between atoms: C_2  and  C_3
REMARK    3  A    between atoms: N_6  and  C_7
REMARK    4  A    between atoms: C_7  and  C_8
REMARK    5  A    between atoms: C_17  and  C_18
REMARK    6  A    between atoms: C_23  and  C_24
REMARK                            x       y       z     vdW  Elec       q    Type
REMARK                         _______ _______ _______ _____ _____    ______ ____
ROOT
ATOM      1  C   UNL     1      -1.938  12.240  21.732  0.00  0.00    +0.000 C 
ATOM      2  C   UNL     1      -2.460  13.907  21.034  0.00  0.00    +0.000 C 
ATOM      3  C   UNL     1      -1.472  15.126  21.039  0.00  0.00    +0.000 C 
ATOM      4  N   UNL     1      -0.264  14.437  20.810  0.00  0.00    +0.000 NA
ATOM      5  C   UNL     1      -0.120  13.491  21.919  0.00  0.00    +0.000 C 
ATOM      6  C   UNL     1       0.672  12.280  21.104  0.00  0.00    +0.000 C 
ATOM      7  O   UNL     1       1.873  12.053  21.189  0.00  0.00    +0.000 OA
ATOM      8  C   UNL     1      -0.183  11.530  20.141  0.00  0.00    +0.000 A 
ATOM      9  C   UNL     1       0.261  10.909  18.974  0.00  0.00    +0.000 A 
ATOM     10  C   UNL     1      -0.652  10.686  17.935  0.00  0.00    +0.000 A 
ATOM     11  C   UNL     1      -1.995  11.093  18.065  0.00  0.00    +0.000 A 
ATOM     12  C   UNL     1      -2.448  11.489  19.336  0.00  0.00    +0.000 A 
ATOM     13  C   UNL     1      -1.532  11.678  20.393  0.00  0.00    +0.000 A 
ATOM     14  C   UNL     1      -1.723  13.282  22.725  0.00  0.00    +0.000 C 
ATOM     15  C   UNL     1      -3.371  12.619  22.971  0.00  0.00    +0.000 C 
ENDROOT
BRANCH  11  16
ATOM     16  C   UNL     1      -2.829  11.216  16.830  0.00  0.00    +0.000 C 
ATOM     17  N   UNL     1      -4.014  11.884  16.858  0.00  0.00    +0.000 N 
ATOM     18  O   UNL     1      -2.418  10.762  15.751  0.00  0.00    +0.000 OA
ATOM     19  H   UNL     1      -4.443  12.247  17.695  0.00  0.00    +0.000 HD
ATOM     20  H   UNL     1      -4.521  11.966  15.987  0.00  0.00    +0.000 HD
ENDBRANCH  11  16
BRANCH   1  22
ATOM     21  C   UNL     1      -0.723   9.701  23.105  0.00  0.00    +0.000 C 
ATOM     22  C   UNL     1      -0.967  11.279  22.983  0.00  0.00    +0.000 C 
ENDBRANCH   1  22
BRANCH   4  23
ATOM     23  C   UNL     1       0.934  15.072  20.323  0.00  0.00    +0.000 C 
BRANCH  23  24
ATOM     24  C   UNL     1       1.129  14.885  18.846  0.00  0.00    +0.000 C 
ATOM     25  C   UNL     1       2.324  15.523  18.191  0.00  0.00    +0.000 C 
ATOM     26  C   UNL     1       2.231  14.024  18.271  0.00  0.00    +0.000 C 
ENDBRANCH  23  24
ENDBRANCH   4  23
TORSDOF 4
ENDMDL
MODEL 6
REMARK VINA RESULT:      -6.3      8.822     10.615
REMARK  Name = 
REMARK  6 active torsions:
REMARK  status: ('A' for Active; 'I' for Inactive)
REMARK    1  A    between atoms: C_1  and  C_2
REMARK    2  A    between atoms: C_2  and  C_3
REMARK    3  A    between atoms: N_6  and  C_7
REMARK    4  A    between atoms: C_7  and  C_8
REMARK    5  A    between atoms: C_17  and  C_18
REMARK    6  A    between atoms: C_23  and  C_24
REMARK                            x       y       z     vdW  Elec       q    Type
REMARK                         _______ _______ _______ _____ _____    ______ ____
ROOT
ATOM      1  C   UNL     1      -2.180  12.390  21.689  0.00  0.00    +0.000 C 
ATOM      2  C   UNL     1      -2.969  13.959  21.015  0.00  0.00    +0.000 C 
ATOM      3  C   UNL     1      -2.188  15.320  21.024  0.00  0.00    +0.000 C 
ATOM      4  N   UNL     1      -0.889  14.835  20.776  0.00  0.00    +0.000 NA
ATOM      5  C   UNL     1      -0.583  13.914  21.874  0.00  0.00    +0.000 C 
ATOM      6  C   UNL     1       0.383  12.852  21.038  0.00  0.00    +0.000 C 
ATOM      7  O   UNL     1       1.606  12.820  21.109  0.00  0.00    +0.000 OA
ATOM      8  C   UNL     1      -0.351  11.985  20.075  0.00  0.00    +0.000 A 
ATOM      9  C   UNL     1       0.172  11.454  18.897  0.00  0.00    +0.000 A 
ATOM     10  C   UNL     1      -0.704  11.097  17.864  0.00  0.00    +0.000 A 
ATOM     11  C   UNL     1      -2.093  11.283  18.011  0.00  0.00    +0.000 A 
ATOM     12  C   UNL     1      -2.589  11.590  19.291  0.00  0.00    +0.000 A 
ATOM     13  C   UNL     1      -1.704  11.913  20.341  0.00  0.00    +0.000 A 
ATOM     14  C   UNL     1      -2.123  13.445  22.692  0.00  0.00    +0.000 C 
ATOM     15  C   UNL     1      -3.641  12.524  22.946  0.00  0.00    +0.000 C 
ENDROOT
BRANCH  11  16
ATOM     16  C   UNL     1      -2.950  11.283  16.786  0.00  0.00    +0.000 C 
ATOM     17  N   UNL     1      -4.164  11.897  16.788  0.00  0.00    +0.000 N 
ATOM     18  O   UNL     1      -2.534  10.773  15.733  0.00  0.00    +0.000 OA
ATOM     19  H   UNL     1      -4.596  12.298  17.605  0.00  0.00    +0.000 HD
ATOM     20  H   UNL     1      -4.686  11.896  15.923  0.00  0.00    +0.000 HD
ENDBRANCH  11  16
BRANCH   1  22
ATOM     21  C   UNL     1      -0.752  10.034  23.178  0.00  0.00    +0.000 C 
ATOM     22  C   UNL     1      -1.054  11.585  22.921  0.00  0.00    +0.000 C 
ENDBRANCH   1  22
BRANCH   4  23
ATOM     23  C   UNL     1       0.187  15.658  20.285  0.00  0.00    +0.000 C 
BRANCH  23  24
ATOM     24  C   UNL     1       0.097  15.908  18.806  0.00  0.00    +0.000 C 
ATOM     25  C   UNL     1      -0.655  17.118  18.326  0.00  0.00    +0.000 C 
ATOM     26  C   UNL     1       0.833  17.039  18.124  0.00  0.00    +0.000 C 
ENDBRANCH  23  24
ENDBRANCH   4  23
TORSDOF 4
ENDMDL
MODEL 7
REMARK VINA RESULT:      -6.3      2.057      5.697
REMARK  Name = 
REMARK  6 active torsions:
REMARK  status: ('A' for Active; 'I' for Inactive)
REMARK    1  A    between atoms: C_1  and  C_2
REMARK    2  A    between atoms: C_2  and  C_3
REMARK    3  A    between atoms: N_6  and  C_7
REMARK    4  A    between atoms: C_7  and  C_8
REMARK    5  A    between atoms: C_17  and  C_18
REMARK    6  A    between atoms: C_23  and  C_24
REMARK                            x       y       z     vdW  Elec       q    Type
REMARK                         _______ _______ _______ _____ _____    ______ ____
ROOT
ATOM      1  C   UNL     1       5.526   5.200  18.719  0.00  0.00    +0.000 C 
ATOM      2  C   UNL     1       6.264   6.410  17.482  0.00  0.00    +0.000 C 
ATOM      3  C   UNL     1       6.594   5.959  16.016  0.00  0.00    +0.000 C 
ATOM      4  N   UNL     1       5.528   5.061  15.811  0.00  0.00    +0.000 NA
ATOM      5  C   UNL     1       5.661   4.030  16.844  0.00  0.00    +0.000 C 
ATOM      6  C   UNL     1       4.049   3.693  17.060  0.00  0.00    +0.000 C 
ATOM      7  O   UNL     1       3.479   2.704  16.614  0.00  0.00    +0.000 OA
ATOM      8  C   UNL     1       3.289   4.765  17.761  0.00  0.00    +0.000 A 
ATOM      9  C   UNL     1       1.933   5.044  17.591  0.00  0.00    +0.000 A 
ATOM     10  C   UNL     1       1.460   6.327  17.894  0.00  0.00    +0.000 A 
ATOM     11  C   UNL     1       2.345   7.323  18.353  0.00  0.00    +0.000 A 
ATOM     12  C   UNL     1       3.641   6.934  18.737  0.00  0.00    +0.000 A 
ATOM     13  C   UNL     1       4.104   5.629  18.464  0.00  0.00    +0.000 A 
ATOM     14  C   UNL     1       6.746   4.645  18.150  0.00  0.00    +0.000 C 
ATOM     15  C   UNL     1       7.192   5.547  19.634  0.00  0.00    +0.000 C 
ENDROOT
BRANCH  11  16
ATOM     16  C   UNL     1       1.914   8.753  18.280  0.00  0.00    +0.000 C 
ATOM     17  N   UNL     1       1.237   9.327  19.311  0.00  0.00    +0.000 N 
ATOM     18  O   UNL     1       2.225   9.450  17.300  0.00  0.00    +0.000 OA
ATOM     19  H   UNL     1       0.908   8.828  20.122  0.00  0.00    +0.000 HD
ATOM     20  H   UNL     1       1.000  10.305  19.223  0.00  0.00    +0.000 HD
ENDBRANCH  11  16
BRANCH   1  22
ATOM     21  C   UNL     1       4.353   2.818  20.380  0.00  0.00    +0.000 C 
ATOM     22  C   UNL     1       5.409   3.468  19.366  0.00  0.00    +0.000 C 
ENDBRANCH   1  22
BRANCH   4  23
ATOM     23  C   UNL     1       5.084   4.637  14.508  0.00  0.00    +0.000 C 
BRANCH  23  24
ATOM     24  C   UNL     1       6.101   3.792  13.796  0.00  0.00    +0.000 C 
ATOM     25  C   UNL     1       5.786   3.302  12.409  0.00  0.00    +0.000 C 
ATOM     26  C   UNL     1       6.897   4.296  12.613  0.00  0.00    +0.000 C 
ENDBRANCH  23  24
ENDBRANCH   4  23
TORSDOF 4
ENDMDL
MODEL 8
REMARK VINA RESULT:      -6.2      8.365     11.422
REMARK  Name = 
REMARK  6 active torsions:
REMARK  status: ('A' for Active; 'I' for Inactive)
REMARK    1  A    between atoms: C_1  and  C_2
REMARK    2  A    between atoms: C_2  and  C_3
REMARK    3  A    between atoms: N_6  and  C_7
REMARK    4  A    between atoms: C_7  and  C_8
REMARK    5  A    between atoms: C_17  and  C_18
REMARK    6  A    between atoms: C_23  and  C_24
REMARK                            x       y       z     vdW  Elec       q    Type
REMARK                         _______ _______ _______ _____ _____    ______ ____
ROOT
ATOM      1  C   UNL     1       9.410  14.776  19.249  0.00  0.00    +0.000 C 
ATOM      2  C   UNL     1       8.014  14.008  18.250  0.00  0.00    +0.000 C 
ATOM      3  C   UNL     1       8.273  12.763  17.330  0.00  0.00    +0.000 C 
ATOM      4  N   UNL     1       9.235  12.099  18.116  0.00  0.00    +0.000 NA
ATOM      5  C   UNL     1      10.355  13.034  18.262  0.00  0.00    +0.000 C 
ATOM      6  C   UNL     1      10.856  12.577  19.778  0.00  0.00    +0.000 C 
ATOM      7  O   UNL     1      11.839  11.881  20.006  0.00  0.00    +0.000 OA
ATOM      8  C   UNL     1       9.939  12.990  20.876  0.00  0.00    +0.000 A 
ATOM      9  C   UNL     1       9.766  12.320  22.086  0.00  0.00    +0.000 A 
ATOM     10  C   UNL     1       8.570  12.494  22.795  0.00  0.00    +0.000 A 
ATOM     11  C   UNL     1       7.554  13.327  22.284  0.00  0.00    +0.000 A 
ATOM     12  C   UNL     1       7.864  14.162  21.197  0.00  0.00    +0.000 A 
ATOM     13  C   UNL     1       9.086  14.011  20.507  0.00  0.00    +0.000 A 
ATOM     14  C   UNL     1       9.790  14.697  17.845  0.00  0.00    +0.000 C 
ATOM     15  C   UNL     1       9.016  16.292  18.118  0.00  0.00    +0.000 C 
ENDROOT
BRANCH  11  16
ATOM     16  C   UNL     1       6.168  13.182  22.829  0.00  0.00    +0.000 C 
ATOM     17  N   UNL     1       5.829  12.102  23.584  0.00  0.00    +0.000 N 
ATOM     18  O   UNL     1       5.329  14.079  22.648  0.00  0.00    +0.000 OA
ATOM     19  H   UNL     1       6.431  11.310  23.745  0.00  0.00    +0.000 HD
ATOM     20  H   UNL     1       4.890  12.072  23.955  0.00  0.00    +0.000 HD
ENDBRANCH  11  16
BRANCH   1  22
ATOM     21  C   UNL     1      11.934  16.278  20.336  0.00  0.00    +0.000 C 
ATOM     22  C   UNL     1      11.206  15.212  19.389  0.00  0.00    +0.000 C 
ENDBRANCH   1  22
BRANCH   4  23
ATOM     23  C   UNL     1       9.555  10.702  17.971  0.00  0.00    +0.000 C 
BRANCH  23  24
ATOM     24  C   UNL     1       8.499   9.803  18.546  0.00  0.00    +0.000 C 
ATOM     25  C   UNL     1       7.745   8.892  17.616  0.00  0.00    +0.000 C 
ATOM     26  C   UNL     1       8.670   8.304  18.646  0.00  0.00    +0.000 C 
ENDBRANCH  23  24
ENDBRANCH   4  23
TORSDOF 4
ENDMDL
MODEL 9
REMARK VINA RESULT:      -6.2      7.069     10.014
REMARK  Name = 
REMARK  6 active torsions:
REMARK  status: ('A' for Active; 'I' for Inactive)
REMARK    1  A    between atoms: C_1  and  C_2
REMARK    2  A    between atoms: C_2  and  C_3
REMARK    3  A    between atoms: N_6  and  C_7
REMARK    4  A    between atoms: C_7  and  C_8
REMARK    5  A    between atoms: C_17  and  C_18
REMARK    6  A    between atoms: C_23  and  C_24
REMARK                            x       y       z     vdW  Elec       q    Type
REMARK                         _______ _______ _______ _____ _____    ______ ____
ROOT
ATOM      1  C   UNL     1      -0.521  11.422  18.617  0.00  0.00    +0.000 C 
ATOM      2  C   UNL     1      -2.057  12.384  19.122  0.00  0.00    +0.000 C 
ATOM      3  C   UNL     1      -2.725  12.154  20.523  0.00  0.00    +0.000 C 
ATOM      4  N   UNL     1      -1.567  11.918  21.290  0.00  0.00    +0.000 NA
ATOM      5  C   UNL     1      -0.914  10.750  20.690  0.00  0.00    +0.000 C 
ATOM      6  C   UNL     1       0.662  11.161  21.012  0.00  0.00    +0.000 C 
ATOM      7  O   UNL     1       1.342  10.669  21.906  0.00  0.00    +0.000 OA
ATOM      8  C   UNL     1       1.182  12.287  20.187  0.00  0.00    +0.000 A 
ATOM      9  C   UNL     1       2.170  13.191  20.576  0.00  0.00    +0.000 A 
ATOM     10  C   UNL     1       2.218  14.450  19.964  0.00  0.00    +0.000 A 
ATOM     11  C   UNL     1       1.273  14.800  18.979  0.00  0.00    +0.000 A 
ATOM     12  C   UNL     1       0.457  13.784  18.451  0.00  0.00    +0.000 A 
ATOM     13  C   UNL     1       0.437  12.504  19.046  0.00  0.00    +0.000 A 
ATOM     14  C   UNL     1      -1.571  10.500  19.027  0.00  0.00    +0.000 C 
ATOM     15  C   UNL     1      -1.722  10.756  17.258  0.00  0.00    +0.000 C 
ENDROOT
BRANCH  11  16
ATOM     16  C   UNL     1       1.090  16.246  18.643  0.00  0.00    +0.000 C 
ATOM     17  N   UNL     1      -0.146  16.743  18.368  0.00  0.00    +0.000 N 
ATOM     18  O   UNL     1       2.059  17.022  18.673  0.00  0.00    +0.000 OA
ATOM     19  H   UNL     1      -0.978  16.181  18.281  0.00  0.00    +0.000 HD
ATOM     20  H   UNL     1      -0.217  17.733  18.181  0.00  0.00    +0.000 HD
ENDBRANCH  11  16
BRANCH   1  22
ATOM     21  C   UNL     1       1.753   9.411  17.847  0.00  0.00    +0.000 C 
ATOM     22  C   UNL     1       0.455   9.849  18.677  0.00  0.00    +0.000 C 
ENDBRANCH   1  22
BRANCH   4  23
ATOM     23  C   UNL     1      -1.524  12.035  22.725  0.00  0.00    +0.000 C 
BRANCH  23  24
ATOM     24  C   UNL     1      -1.013  13.371  23.183  0.00  0.00    +0.000 C 
ATOM     25  C   UNL     1      -0.988  14.508  22.198  0.00  0.00    +0.000 C 
ATOM     26  C   UNL     1      -1.918  14.567  23.379  0.00  0.00    +0.000 C 
ENDBRANCH  23  24
ENDBRANCH   4  23
TORSDOF 4
ENDMDL
