MODEL 1
REMARK VINA RESULT:      -8.6      0.000      0.000
REMARK  Name = 
REMARK  6 active torsions:
REMARK  status: ('A' for Active; 'I' for Inactive)
REMARK    1  A    between atoms: C_1  and  C_2
REMARK    2  A    between atoms: C_2  and  C_3
REMARK    3  A    between atoms: C_6  and  C_7
REMARK    4  A    between atoms: C_7  and  N_8
REMARK    5  A    between atoms: C_9  and  C_11
REMARK    6  A    between atoms: C_14  and  C_15
REMARK                            x       y       z     vdW  Elec       q    Type
REMARK                         _______ _______ _______ _____ _____    ______ ____
ROOT
ATOM      1  C   UNL     1       2.323   7.210  19.419  0.00  0.00    +0.000 A 
ATOM      2  C   UNL     1       2.713   6.003  19.968  0.00  0.00    +0.000 A 
ATOM      3  C   UNL     1       2.984   5.189  18.873  0.00  0.00    +0.000 A 
ATOM      4  C   UNL     1       3.331   3.862  18.646  0.00  0.00    +0.000 A 
ATOM      5  C   UNL     1       2.618   3.138  17.499  0.00  0.00    +0.000 C 
ATOM      6  N   UNL     1       4.683   3.729  18.613  0.00  0.00    +0.000 NA
ATOM      7  C   UNL     1       5.290   4.564  17.761  0.00  0.00    +0.000 A 
ATOM      8  C   UNL     1       6.581   4.229  17.444  0.00  0.00    +0.000 A 
ATOM      9  C   UNL     1       7.156   4.714  16.282  0.00  0.00    +0.000 A 
ATOM     10  C   UNL     1       6.427   5.582  15.465  0.00  0.00    +0.000 A 
ATOM     11  C   UNL     1       5.209   6.125  15.912  0.00  0.00    +0.000 A 
ATOM     12  C   UNL     1       4.652   5.657  17.121  0.00  0.00    +0.000 A 
ATOM     13  C   UNL     1       3.521   6.083  17.933  0.00  0.00    +0.000 A 
ATOM     14  O   UNL     1       2.849   7.296  18.117  0.00  0.00    +0.000 OA
ENDROOT
BRANCH   1  16
ATOM     15  N   UNL     1       1.325   9.416  19.460  0.00  0.00    +0.000 N 
ATOM     16  C   UNL     1       1.540   8.217  20.118  0.00  0.00    +0.000 C 
ATOM     17  O   UNL     1       0.978   7.980  21.182  0.00  0.00    +0.000 OA
ATOM     18  H   UNL     1       1.793   9.588  18.587  0.00  0.00    +0.000 HD
BRANCH  15  19
ATOM     19  C   UNL     1       0.366  10.377  19.976  0.00  0.00    +0.000 C 
BRANCH  19  23
ATOM     20  C   UNL     1      -2.979  10.940  17.270  0.00  0.00    +0.000 A 
ATOM     21  C   UNL     1      -2.897  11.682  18.454  0.00  0.00    +0.000 A 
ATOM     22  C   UNL     1      -1.814  11.515  19.329  0.00  0.00    +0.000 A 
ATOM     23  C   UNL     1      -0.791  10.598  19.034  0.00  0.00    +0.000 A 
ATOM     24  C   UNL     1      -0.860   9.887  17.830  0.00  0.00    +0.000 A 
ATOM     25  C   UNL     1      -1.939  10.054  16.961  0.00  0.00    +0.000 A 
BRANCH  20  27
ATOM     26  C   UNL     1      -3.861  10.493  14.955  0.00  0.00    +0.000 C 
ATOM     27  C   UNL     1      -4.146  11.086  16.327  0.00  0.00    +0.000 C 
ENDBRANCH  20  27
ENDBRANCH  19  23
ENDBRANCH  15  19
ENDBRANCH   1  16
TORSDOF 4
ENDMDL
MODEL 2
REMARK VINA RESULT:      -8.6      1.709      3.490
REMARK  Name = 
REMARK  6 active torsions:
REMARK  status: ('A' for Active; 'I' for Inactive)
REMARK    1  A    between atoms: C_1  and  C_2
REMARK    2  A    between atoms: C_2  and  C_3
REMARK    3  A    between atoms: C_6  and  C_7
REMARK    4  A    between atoms: C_7  and  N_8
REMARK    5  A    between atoms: C_9  and  C_11
REMARK    6  A    between atoms: C_14  and  C_15
REMARK                            x       y       z     vdW  Elec       q    Type
REMARK                         _______ _______ _______ _____ _____    ______ ____
ROOT
ATOM      1  C   UNL     1       1.636   8.432  19.370  0.00  0.00    +0.000 A 
ATOM      2  C   UNL     1       2.126   7.901  18.191  0.00  0.00    +0.000 A 
ATOM      3  C   UNL     1       2.916   6.828  18.590  0.00  0.00    +0.000 A 
ATOM      4  C   UNL     1       3.766   5.905  17.990  0.00  0.00    +0.000 A 
ATOM      5  C   UNL     1       5.088   5.604  18.705  0.00  0.00    +0.000 C 
ATOM      6  N   UNL     1       3.075   4.790  17.638  0.00  0.00    +0.000 NA
ATOM      7  C   UNL     1       2.366   4.251  18.637  0.00  0.00    +0.000 A 
ATOM      8  C   UNL     1       1.952   2.962  18.423  0.00  0.00    +0.000 A 
ATOM      9  C   UNL     1       1.620   2.154  19.496  0.00  0.00    +0.000 A 
ATOM     10  C   UNL     1       1.667   2.678  20.790  0.00  0.00    +0.000 A 
ATOM     11  C   UNL     1       1.843   4.059  20.993  0.00  0.00    +0.000 A 
ATOM     12  C   UNL     1       2.137   4.883  19.886  0.00  0.00    +0.000 A 
ATOM     13  C   UNL     1       2.233   6.324  19.709  0.00  0.00    +0.000 A 
ATOM     14  O   UNL     1       1.674   7.430  20.357  0.00  0.00    +0.000 OA
ENDROOT
BRANCH   1  16
ATOM     15  N   UNL     1       0.612  10.391  18.380  0.00  0.00    +0.000 N 
ATOM     16  C   UNL     1       1.131   9.788  19.514  0.00  0.00    +0.000 C 
ATOM     17  O   UNL     1       1.038  10.334  20.609  0.00  0.00    +0.000 OA
ATOM     18  H   UNL     1       0.696   9.924  17.494  0.00  0.00    +0.000 HD
BRANCH  15  19
ATOM     19  C   UNL     1      -0.123  11.639  18.481  0.00  0.00    +0.000 C 
BRANCH  19  23
ATOM     20  C   UNL     1      -4.421  11.136  18.164  0.00  0.00    +0.000 A 
ATOM     21  C   UNL     1      -3.561  10.378  17.360  0.00  0.00    +0.000 A 
ATOM     22  C   UNL     1      -2.171  10.526  17.464  0.00  0.00    +0.000 A 
ATOM     23  C   UNL     1      -1.615  11.438  18.376  0.00  0.00    +0.000 A 
ATOM     24  C   UNL     1      -2.478  12.165  19.203  0.00  0.00    +0.000 A 
ATOM     25  C   UNL     1      -3.863  12.018  19.097  0.00  0.00    +0.000 A 
BRANCH  20  27
ATOM     26  C   UNL     1      -6.580  12.313  17.622  0.00  0.00    +0.000 C 
ATOM     27  C   UNL     1      -5.920  11.011  18.052  0.00  0.00    +0.000 C 
ENDBRANCH  20  27
ENDBRANCH  19  23
ENDBRANCH  15  19
ENDBRANCH   1  16
TORSDOF 4
ENDMDL
MODEL 3
REMARK VINA RESULT:      -8.5      6.135      8.945
REMARK  Name = 
REMARK  6 active torsions:
REMARK  status: ('A' for Active; 'I' for Inactive)
REMARK    1  A    between atoms: C_1  and  C_2
REMARK    2  A    between atoms: C_2  and  C_3
REMARK    3  A    between atoms: C_6  and  C_7
REMARK    4  A    between atoms: C_7  and  N_8
REMARK    5  A    between atoms: C_9  and  C_11
REMARK    6  A    between atoms: C_14  and  C_15
REMARK                            x       y       z     vdW  Elec       q    Type
REMARK                         _______ _______ _______ _____ _____    ______ ____
ROOT
ATOM      1  C   UNL     1       8.421   9.340  18.183  0.00  0.00    +0.000 A 
ATOM      2  C   UNL     1       9.377   9.805  19.068  0.00  0.00    +0.000 A 
ATOM      3  C   UNL     1       9.797  11.017  18.528  0.00  0.00    +0.000 A 
ATOM      4  C   UNL     1      10.760  11.980  18.805  0.00  0.00    +0.000 A 
ATOM      5  C   UNL     1      11.550  12.542  17.617  0.00  0.00    +0.000 C 
ATOM      6  N   UNL     1      10.243  12.941  19.614  0.00  0.00    +0.000 NA
ATOM      7  C   UNL     1       9.104  13.479  19.162  0.00  0.00    +0.000 A 
ATOM      8  C   UNL     1       8.750  14.665  19.751  0.00  0.00    +0.000 A 
ATOM      9  C   UNL     1       7.885  15.529  19.102  0.00  0.00    +0.000 A 
ATOM     10  C   UNL     1       7.343  15.159  17.869  0.00  0.00    +0.000 A 
ATOM     11  C   UNL     1       7.501  13.848  17.386  0.00  0.00    +0.000 A 
ATOM     12  C   UNL     1       8.350  12.959  18.079  0.00  0.00    +0.000 A 
ATOM     13  C   UNL     1       8.625  11.536  17.954  0.00  0.00    +0.000 A 
ATOM     14  O   UNL     1       7.906  10.438  17.470  0.00  0.00    +0.000 OA
ENDROOT
BRANCH   1  16
ATOM     15  N   UNL     1       7.294   7.592  16.943  0.00  0.00    +0.000 N 
ATOM     16  C   UNL     1       8.011   7.949  18.072  0.00  0.00    +0.000 C 
ATOM     17  O   UNL     1       8.390   7.094  18.867  0.00  0.00    +0.000 OA
ATOM     18  H   UNL     1       6.997   8.309  16.303  0.00  0.00    +0.000 HD
BRANCH  15  19
ATOM     19  C   UNL     1       7.053   6.194  16.636  0.00  0.00    +0.000 C 
BRANCH  19  23
ATOM     20  C   UNL     1       3.032   4.910  17.641  0.00  0.00    +0.000 A 
ATOM     21  C   UNL     1       3.409   6.248  17.812  0.00  0.00    +0.000 A 
ATOM     22  C   UNL     1       4.702   6.673  17.480  0.00  0.00    +0.000 A 
ATOM     23  C   UNL     1       5.645   5.766  16.969  0.00  0.00    +0.000 A 
ATOM     24  C   UNL     1       5.251   4.439  16.765  0.00  0.00    +0.000 A 
ATOM     25  C   UNL     1       3.963   4.016  17.098  0.00  0.00    +0.000 A 
BRANCH  20  27
ATOM     26  C   UNL     1       1.629   2.937  18.331  0.00  0.00    +0.000 C 
ATOM     27  C   UNL     1       1.654   4.424  18.015  0.00  0.00    +0.000 C 
ENDBRANCH  20  27
ENDBRANCH  19  23
ENDBRANCH  15  19
ENDBRANCH   1  16
TORSDOF 4
ENDMDL
MODEL 4
REMARK VINA RESULT:      -8.5      1.716      3.374
REMARK  Name = 
REMARK  6 active torsions:
REMARK  status: ('A' for Active; 'I' for Inactive)
REMARK    1  A    between atoms: C_1  and  C_2
REMARK    2  A    between atoms: C_2  and  C_3
REMARK    3  A    between atoms: C_6  and  C_7
REMARK    4  A    between atoms: C_7  and  N_8
REMARK    5  A    between atoms: C_9  and  C_11
REMARK    6  A    between atoms: C_14  and  C_15
REMARK                            x       y       z     vdW  Elec       q    Type
REMARK                         _______ _______ _______ _____ _____    ______ ____
ROOT
ATOM      1  C   UNL     1       2.150   8.085  18.590  0.00  0.00    +0.000 A 
ATOM      2  C   UNL     1       2.820   7.293  17.676  0.00  0.00    +0.000 A 
ATOM      3  C   UNL     1       3.540   6.391  18.451  0.00  0.00    +0.000 A 
ATOM      4  C   UNL     1       4.476   5.384  18.245  0.00  0.00    +0.000 A 
ATOM      5  C   UNL     1       5.670   5.330  19.205  0.00  0.00    +0.000 C 
ATOM      6  N   UNL     1       3.851   4.187  18.091  0.00  0.00    +0.000 NA
ATOM      7  C   UNL     1       2.995   3.890  19.077  0.00  0.00    +0.000 A 
ATOM      8  C   UNL     1       2.622   2.572  19.141  0.00  0.00    +0.000 A 
ATOM      9  C   UNL     1       2.128   2.049  20.324  0.00  0.00    +0.000 A 
ATOM     10  C   UNL     1       1.970   2.887  21.431  0.00  0.00    +0.000 A 
ATOM     11  C   UNL     1       2.109   4.280  21.296  0.00  0.00    +0.000 A 
ATOM     12  C   UNL     1       2.571   4.807  20.071  0.00  0.00    +0.000 A 
ATOM     13  C   UNL     1       2.691   6.159  19.546  0.00  0.00    +0.000 A 
ATOM     14  O   UNL     1       2.034   7.369  19.795  0.00  0.00    +0.000 OA
ENDROOT
BRANCH   1  16
ATOM     15  N   UNL     1       0.478   9.794  18.975  0.00  0.00    +0.000 N 
ATOM     16  C   UNL     1       1.626   9.410  18.302  0.00  0.00    +0.000 C 
ATOM     17  O   UNL     1       2.235  10.212  17.601  0.00  0.00    +0.000 OA
ATOM     18  H   UNL     1      -0.003   9.122  19.547  0.00  0.00    +0.000 HD
BRANCH  15  19
ATOM     19  C   UNL     1       0.025  11.173  18.930  0.00  0.00    +0.000 C 
BRANCH  19  23
ATOM     20  C   UNL     1      -4.194  11.425  17.948  0.00  0.00    +0.000 A 
ATOM     21  C   UNL     1      -3.686  12.111  19.058  0.00  0.00    +0.000 A 
ATOM     22  C   UNL     1      -2.322  12.044  19.376  0.00  0.00    +0.000 A 
ATOM     23  C   UNL     1      -1.440  11.287  18.588  0.00  0.00    +0.000 A 
ATOM     24  C   UNL     1      -1.947  10.634  17.459  0.00  0.00    +0.000 A 
ATOM     25  C   UNL     1      -3.306  10.700  17.144  0.00  0.00    +0.000 A 
BRANCH  20  27
ATOM     26  C   UNL     1      -6.520  10.744  18.631  0.00  0.00    +0.000 C 
ATOM     27  C   UNL     1      -5.661  11.463  17.601  0.00  0.00    +0.000 C 
ENDBRANCH  20  27
ENDBRANCH  19  23
ENDBRANCH  15  19
ENDBRANCH   1  16
TORSDOF 4
ENDMDL
MODEL 5
REMARK VINA RESULT:      -8.5      0.454      1.160
REMARK  Name = 
REMARK  6 active torsions:
REMARK  status: ('A' for Active; 'I' for Inactive)
REMARK    1  A    between atoms: C_1  and  C_2
REMARK    2  A    between atoms: C_2  and  C_3
REMARK    3  A    between atoms: C_6  and  C_7
REMARK    4  A    between atoms: C_7  and  N_8
REMARK    5  A    between atoms: C_9  and  C_11
REMARK    6  A    between atoms: C_14  and  C_15
REMARK                            x       y       z     vdW  Elec       q    Type
REMARK                         _______ _______ _______ _____ _____    ______ ____
ROOT
ATOM      1  C   UNL     1       2.210   7.470  19.332  0.00  0.00    +0.000 A 
ATOM      2  C   UNL     1       2.518   6.256  19.917  0.00  0.00    +0.000 A 
ATOM      3  C   UNL     1       2.782   5.406  18.849  0.00  0.00    +0.000 A 
ATOM      4  C   UNL     1       3.067   4.059  18.659  0.00  0.00    +0.000 A 
ATOM      5  C   UNL     1       2.357   3.349  17.501  0.00  0.00    +0.000 C 
ATOM      6  N   UNL     1       4.410   3.856  18.675  0.00  0.00    +0.000 NA
ATOM      7  C   UNL     1       5.089   4.641  17.829  0.00  0.00    +0.000 A 
ATOM      8  C   UNL     1       6.370   4.233  17.563  0.00  0.00    +0.000 A 
ATOM      9  C   UNL     1       7.009   4.663  16.412  0.00  0.00    +0.000 A 
ATOM     10  C   UNL     1       6.354   5.550  15.555  0.00  0.00    +0.000 A 
ATOM     11  C   UNL     1       5.152   6.165  15.949  0.00  0.00    +0.000 A 
ATOM     12  C   UNL     1       4.530   5.752  17.147  0.00  0.00    +0.000 A 
ATOM     13  C   UNL     1       3.397   6.252  17.910  0.00  0.00    +0.000 A 
ATOM     14  O   UNL     1       2.783   7.501  18.048  0.00  0.00    +0.000 OA
ENDROOT
BRANCH   1  16
ATOM     15  N   UNL     1       1.317   9.721  19.291  0.00  0.00    +0.000 N 
ATOM     16  C   UNL     1       1.458   8.530  19.985  0.00  0.00    +0.000 C 
ATOM     17  O   UNL     1       0.857   8.347  21.039  0.00  0.00    +0.000 OA
ATOM     18  H   UNL     1       1.815   9.847  18.428  0.00  0.00    +0.000 HD
BRANCH  15  19
ATOM     19  C   UNL     1       0.391  10.738  19.757  0.00  0.00    +0.000 C 
BRANCH  19  23
ATOM     20  C   UNL     1      -3.221  10.977  17.366  0.00  0.00    +0.000 A 
ATOM     21  C   UNL     1      -2.164  10.152  16.965  0.00  0.00    +0.000 A 
ATOM     22  C   UNL     1      -0.997  10.060  17.737  0.00  0.00    +0.000 A 
ATOM     23  C   UNL     1      -0.868  10.795  18.927  0.00  0.00    +0.000 A 
ATOM     24  C   UNL     1      -1.943  11.588  19.342  0.00  0.00    +0.000 A 
ATOM     25  C   UNL     1      -3.104  11.680  18.571  0.00  0.00    +0.000 A 
BRANCH  20  27
ATOM     26  C   UNL     1      -5.448  12.126  17.119  0.00  0.00    +0.000 C 
ATOM     27  C   UNL     1      -4.475  11.110  16.539  0.00  0.00    +0.000 C 
ENDBRANCH  20  27
ENDBRANCH  19  23
ENDBRANCH  15  19
ENDBRANCH   1  16
TORSDOF 4
ENDMDL
MODEL 6
REMARK VINA RESULT:      -8.5      2.550      4.588
REMARK  Name = 
REMARK  6 active torsions:
REMARK  status: ('A' for Active; 'I' for Inactive)
REMARK    1  A    between atoms: C_1  and  C_2
REMARK    2  A    between atoms: C_2  and  C_3
REMARK    3  A    between atoms: C_6  and  C_7
REMARK    4  A    between atoms: C_7  and  N_8
REMARK    5  A    between atoms: C_9  and  C_11
REMARK    6  A    between atoms: C_14  and  C_15
REMARK                            x       y       z     vdW  Elec       q    Type
REMARK                         _______ _______ _______ _____ _____    ______ ____
ROOT
ATOM      1  C   UNL     1       1.950   8.563  18.710  0.00  0.00    +0.000 A 
ATOM      2  C   UNL     1       2.522   7.870  17.659  0.00  0.00    +0.000 A 
ATOM      3  C   UNL     1       3.176   6.798  18.258  0.00  0.00    +0.000 A 
ATOM      4  C   UNL     1       4.010   5.759  17.863  0.00  0.00    +0.000 A 
ATOM      5  C   UNL     1       5.217   5.452  18.756  0.00  0.00    +0.000 C 
ATOM      6  N   UNL     1       3.275   4.659  17.551  0.00  0.00    +0.000 NA
ATOM      7  C   UNL     1       2.420   4.286  18.511  0.00  0.00    +0.000 A 
ATOM      8  C   UNL     1       1.930   3.012  18.385  0.00  0.00    +0.000 A 
ATOM      9  C   UNL     1       1.419   2.355  19.492  0.00  0.00    +0.000 A 
ATOM     10  C   UNL     1       1.366   3.018  20.720  0.00  0.00    +0.000 A 
ATOM     11  C   UNL     1       1.628   4.397  20.796  0.00  0.00    +0.000 A 
ATOM     12  C   UNL     1       2.107   5.069  19.651  0.00  0.00    +0.000 A 
ATOM     13  C   UNL     1       2.336   6.471  19.336  0.00  0.00    +0.000 A 
ATOM     14  O   UNL     1       1.799   7.679  19.794  0.00  0.00    +0.000 OA
ENDROOT
BRANCH   1  16
ATOM     15  N   UNL     1       0.431  10.321  19.392  0.00  0.00    +0.000 N 
ATOM     16  C   UNL     1       1.542   9.957  18.650  0.00  0.00    +0.000 C 
ATOM     17  O   UNL     1       2.220  10.809  18.083  0.00  0.00    +0.000 OA
ATOM     18  H   UNL     1      -0.107   9.607  19.852  0.00  0.00    +0.000 HD
BRANCH  15  19
ATOM     19  C   UNL     1       0.098  11.722  19.580  0.00  0.00    +0.000 C 
BRANCH  19  23
ATOM     20  C   UNL     1      -2.696  12.307  22.848  0.00  0.00    +0.000 A 
ATOM     21  C   UNL     1      -1.460  11.691  23.079  0.00  0.00    +0.000 A 
ATOM     22  C   UNL     1      -0.547  11.508  22.031  0.00  0.00    +0.000 A 
ATOM     23  C   UNL     1      -0.855  11.938  20.730  0.00  0.00    +0.000 A 
ATOM     24  C   UNL     1      -2.076  12.587  20.513  0.00  0.00    +0.000 A 
ATOM     25  C   UNL     1      -2.985  12.768  21.557  0.00  0.00    +0.000 A 
BRANCH  20  27
ATOM     26  C   UNL     1      -3.592  13.857  24.618  0.00  0.00    +0.000 C 
ATOM     27  C   UNL     1      -3.704  12.493  23.954  0.00  0.00    +0.000 C 
ENDBRANCH  20  27
ENDBRANCH  19  23
ENDBRANCH  15  19
ENDBRANCH   1  16
TORSDOF 4
ENDMDL
MODEL 7
REMARK VINA RESULT:      -8.4      1.528      3.141
REMARK  Name = 
REMARK  6 active torsions:
REMARK  status: ('A' for Active; 'I' for Inactive)
REMARK    1  A    between atoms: C_1  and  C_2
REMARK    2  A    between atoms: C_2  and  C_3
REMARK    3  A    between atoms: C_6  and  C_7
REMARK    4  A    between atoms: C_7  and  N_8
REMARK    5  A    between atoms: C_9  and  C_11
REMARK    6  A    between atoms: C_14  and  C_15
REMARK                            x       y       z     vdW  Elec       q    Type
REMARK                         _______ _______ _______ _____ _____    ______ ____
ROOT
ATOM      1  C   UNL     1       2.433   7.982  18.332  0.00  0.00    +0.000 A 
ATOM      2  C   UNL     1       3.384   7.501  17.451  0.00  0.00    +0.000 A 
ATOM      3  C   UNL     1       4.037   6.493  18.152  0.00  0.00    +0.000 A 
ATOM      4  C   UNL     1       5.122   5.647  17.955  0.00  0.00    +0.000 A 
ATOM      5  C   UNL     1       6.079   5.449  19.136  0.00  0.00    +0.000 C 
ATOM      6  N   UNL     1       4.712   4.482  17.390  0.00  0.00    +0.000 NA
ATOM      7  C   UNL     1       3.714   3.880  18.047  0.00  0.00    +0.000 A 
ATOM      8  C   UNL     1       3.517   2.563  17.720  0.00  0.00    +0.000 A 
ATOM      9  C   UNL     1       2.856   1.723  18.600  0.00  0.00    +0.000 A 
ATOM     10  C   UNL     1       2.353   2.240  19.796  0.00  0.00    +0.000 A 
ATOM     11  C   UNL     1       2.329   3.629  20.017  0.00  0.00    +0.000 A 
ATOM     12  C   UNL     1       2.966   4.482  19.091  0.00  0.00    +0.000 A 
ATOM     13  C   UNL     1       3.012   5.927  18.930  0.00  0.00    +0.000 A 
ATOM     14  O   UNL     1       2.160   6.980  19.281  0.00  0.00    +0.000 OA
ENDROOT
BRANCH   1  16
ATOM     15  N   UNL     1       0.719   9.533  19.053  0.00  0.00    +0.000 N 
ATOM     16  C   UNL     1       1.808   9.292  18.233  0.00  0.00    +0.000 C 
ATOM     17  O   UNL     1       2.295  10.195  17.560  0.00  0.00    +0.000 OA
ATOM     18  H   UNL     1       0.338   8.779  19.598  0.00  0.00    +0.000 HD
BRANCH  15  19
ATOM     19  C   UNL     1       0.187  10.877  19.193  0.00  0.00    +0.000 C 
BRANCH  19  23
ATOM     20  C   UNL     1      -3.964  11.219  17.977  0.00  0.00    +0.000 A 
ATOM     21  C   UNL     1      -3.135  10.254  17.393  0.00  0.00    +0.000 A 
ATOM     22  C   UNL     1      -1.796  10.129  17.788  0.00  0.00    +0.000 A 
ATOM     23  C   UNL     1      -1.260  10.971  18.776  0.00  0.00    +0.000 A 
ATOM     24  C   UNL     1      -2.103  11.908  19.383  0.00  0.00    +0.000 A 
ATOM     25  C   UNL     1      -3.436  12.033  18.988  0.00  0.00    +0.000 A 
BRANCH  20  27
ATOM     26  C   UNL     1      -6.374  10.737  18.523  0.00  0.00    +0.000 C 
ATOM     27  C   UNL     1      -5.401  11.388  17.552  0.00  0.00    +0.000 C 
ENDBRANCH  20  27
ENDBRANCH  19  23
ENDBRANCH  15  19
ENDBRANCH   1  16
TORSDOF 4
ENDMDL
MODEL 8
REMARK VINA RESULT:      -8.4      1.619      2.188
REMARK  Name = 
REMARK  6 active torsions:
REMARK  status: ('A' for Active; 'I' for Inactive)
REMARK    1  A    between atoms: C_1  and  C_2
REMARK    2  A    between atoms: C_2  and  C_3
REMARK    3  A    between atoms: C_6  and  C_7
REMARK    4  A    between atoms: C_7  and  N_8
REMARK    5  A    between atoms: C_9  and  C_11
REMARK    6  A    between atoms: C_14  and  C_15
REMARK                            x       y       z     vdW  Elec       q    Type
REMARK                         _______ _______ _______ _____ _____    ______ ____
ROOT
ATOM      1  C   UNL     1       2.278   8.721  18.185  0.00  0.00    +0.000 A 
ATOM      2  C   UNL     1       2.237   7.748  19.167  0.00  0.00    +0.000 A 
ATOM      3  C   UNL     1       2.602   6.574  18.517  0.00  0.00    +0.000 A 
ATOM      4  C   UNL     1       2.698   5.222  18.825  0.00  0.00    +0.000 A 
ATOM      5  C   UNL     1       2.173   4.228  17.783  0.00  0.00    +0.000 C 
ATOM      6  N   UNL     1       3.948   4.929  19.270  0.00  0.00    +0.000 NA
ATOM      7  C   UNL     1       4.926   5.333  18.449  0.00  0.00    +0.000 A 
ATOM      8  C   UNL     1       6.149   4.759  18.681  0.00  0.00    +0.000 A 
ATOM      9  C   UNL     1       7.102   4.731  17.677  0.00  0.00    +0.000 A 
ATOM     10  C   UNL     1       6.821   5.334  16.448  0.00  0.00    +0.000 A 
ATOM     11  C   UNL     1       5.678   6.138  16.294  0.00  0.00    +0.000 A 
ATOM     12  C   UNL     1       4.733   6.196  17.340  0.00  0.00    +0.000 A 
ATOM     13  C   UNL     1       3.550   7.009  17.577  0.00  0.00    +0.000 A 
ATOM     14  O   UNL     1       3.135   8.279  17.160  0.00  0.00    +0.000 OA
ENDROOT
BRANCH   1  16
ATOM     15  N   UNL     1       0.316   9.987  18.827  0.00  0.00    +0.000 N 
ATOM     16  C   UNL     1       1.579   9.993  18.258  0.00  0.00    +0.000 C 
ATOM     17  O   UNL     1       2.122  11.052  17.958  0.00  0.00    +0.000 OA
ATOM     18  H   UNL     1      -0.108   9.108  19.069  0.00  0.00    +0.000 HD
BRANCH  15  19
ATOM     19  C   UNL     1      -0.349  11.235  19.155  0.00  0.00    +0.000 C 
BRANCH  19  23
ATOM     20  C   UNL     1      -4.589  11.206  18.235  0.00  0.00    +0.000 A 
ATOM     21  C   UNL     1      -3.739  10.247  17.671  0.00  0.00    +0.000 A 
ATOM     22  C   UNL     1      -2.369  10.242  17.972  0.00  0.00    +0.000 A 
ATOM     23  C   UNL     1      -1.825  11.200  18.843  0.00  0.00    +0.000 A 
ATOM     24  C   UNL     1      -2.687  12.132  19.433  0.00  0.00    +0.000 A 
ATOM     25  C   UNL     1      -4.050  12.136  19.132  0.00  0.00    +0.000 A 
BRANCH  20  27
ATOM     26  C   UNL     1      -6.884  10.357  18.828  0.00  0.00    +0.000 C 
ATOM     27  C   UNL     1      -6.061  11.245  17.907  0.00  0.00    +0.000 C 
ENDBRANCH  20  27
ENDBRANCH  19  23
ENDBRANCH  15  19
ENDBRANCH   1  16
TORSDOF 4
ENDMDL
MODEL 9
REMARK VINA RESULT:      -8.1      6.425      9.126
REMARK  Name = 
REMARK  6 active torsions:
REMARK  status: ('A' for Active; 'I' for Inactive)
REMARK    1  A    between atoms: C_1  and  C_2
REMARK    2  A    between atoms: C_2  and  C_3
REMARK    3  A    between atoms: C_6  and  C_7
REMARK    4  A    between atoms: C_7  and  N_8
REMARK    5  A    between atoms: C_9  and  C_11
REMARK    6  A    between atoms: C_14  and  C_15
REMARK                            x       y       z     vdW  Elec       q    Type
REMARK                         _______ _______ _______ _____ _____    ______ ____
ROOT
ATOM      1  C   UNL     1       8.490   9.698  18.200  0.00  0.00    +0.000 A 
ATOM      2  C   UNL     1       9.580  10.115  18.940  0.00  0.00    +0.000 A 
ATOM      3  C   UNL     1       9.981  11.304  18.340  0.00  0.00    +0.000 A 
ATOM      4  C   UNL     1      11.019  12.219  18.474  0.00  0.00    +0.000 A 
ATOM      5  C   UNL     1      11.663  12.741  17.185  0.00  0.00    +0.000 C 
ATOM      6  N   UNL     1      10.667  13.204  19.341  0.00  0.00    +0.000 NA
ATOM      7  C   UNL     1       9.504  13.797  19.047  0.00  0.00    +0.000 A 
ATOM      8  C   UNL     1       9.293  14.999  19.672  0.00  0.00    +0.000 A 
ATOM      9  C   UNL     1       8.390  15.905  19.143  0.00  0.00    +0.000 A 
ATOM     10  C   UNL     1       7.664  15.563  17.999  0.00  0.00    +0.000 A 
ATOM     11  C   UNL     1       7.689  14.246  17.508  0.00  0.00    +0.000 A 
ATOM     12  C   UNL     1       8.582  13.316  18.082  0.00  0.00    +0.000 A 
ATOM     13  C   UNL     1       8.767  11.881  17.930  0.00  0.00    +0.000 A 
ATOM     14  O   UNL     1       7.935  10.820  17.557  0.00  0.00    +0.000 OA
ENDROOT
BRANCH   1  16
ATOM     15  N   UNL     1       7.059   8.028  17.186  0.00  0.00    +0.000 N 
ATOM     16  C   UNL     1       8.000   8.329  18.156  0.00  0.00    +0.000 C 
ATOM     17  O   UNL     1       8.488   7.442  18.849  0.00  0.00    +0.000 OA
ATOM     18  H   UNL     1       6.676   8.770  16.627  0.00  0.00    +0.000 HD
BRANCH  15  19
ATOM     19  C   UNL     1       6.696   6.648  16.917  0.00  0.00    +0.000 C 
BRANCH  19  23
ATOM     20  C   UNL     1       3.151   5.378  19.071  0.00  0.00    +0.000 A 
ATOM     21  C   UNL     1       4.395   4.808  19.363  0.00  0.00    +0.000 A 
ATOM     22  C   UNL     1       5.548   5.220  18.679  0.00  0.00    +0.000 A 
ATOM     23  C   UNL     1       5.475   6.212  17.688  0.00  0.00    +0.000 A 
ATOM     24  C   UNL     1       4.235   6.806  17.428  0.00  0.00    +0.000 A 
ATOM     25  C   UNL     1       3.087   6.393  18.108  0.00  0.00    +0.000 A 
BRANCH  20  27
ATOM     26  C   UNL     1       2.186   4.219  21.087  0.00  0.00    +0.000 C 
ATOM     27  C   UNL     1       1.894   4.933  19.776  0.00  0.00    +0.000 C 
ENDBRANCH  20  27
ENDBRANCH  19  23
ENDBRANCH  15  19
ENDBRANCH   1  16
TORSDOF 4
ENDMDL
