MODEL 1
REMARK VINA RESULT:      -7.3      0.000      0.000
REMARK  Name = 
REMARK  5 active torsions:
REMARK  status: ('A' for Active; 'I' for Inactive)
REMARK    1  A    between atoms: O_1  and  C_2
REMARK    2  A    between atoms: C_2  and  C_3
REMARK    3  A    between atoms: C_3  and  N_4
REMARK    4  A    between atoms: C_7  and  C_8
REMARK    5  A    between atoms: C_9  and  C_10
REMARK                            x       y       z     vdW  Elec       q    Type
REMARK                         _______ _______ _______ _____ _____    ______ ____
ROOT
ATOM      1  C   UNL     1       8.797   9.241  18.398  0.00  0.00    +0.000 C 
ATOM      2  C   UNL     1       7.879   8.617  17.640  0.00  0.00    +0.000 C 
ENDROOT
BRANCH   2   3
ATOM      3  C   UNL     1       7.457   7.247  17.744  0.00  0.00    +0.000 A 
ATOM      4  C   UNL     1       8.057   6.428  18.680  0.00  0.00    +0.000 A 
ATOM      5  N   UNL     1       7.339   5.269  18.684  0.00  0.00    +0.000 N 
ATOM      6  C   UNL     1       6.741   5.120  17.460  0.00  0.00    +0.000 A 
ATOM      7  C   UNL     1       6.310   3.967  16.799  0.00  0.00    +0.000 A 
ATOM      8  C   UNL     1       5.526   4.149  15.666  0.00  0.00    +0.000 A 
ATOM      9  C   UNL     1       5.095   5.427  15.310  0.00  0.00    +0.000 A 
ATOM     10  C   UNL     1       5.581   6.575  15.966  0.00  0.00    +0.000 A 
ATOM     11  C   UNL     1       6.534   6.423  17.000  0.00  0.00    +0.000 A 
ATOM     12  H   UNL     1       7.084   4.747  19.507  0.00  0.00    +0.000 HD
ENDBRANCH   2   3
BRANCH   1  16
ATOM     13  N   UNL     1       9.892  13.388  18.447  0.00  0.00    +0.000 N 
ATOM     14  C   UNL     1       8.819  13.004  17.713  0.00  0.00    +0.000 A 
ATOM     15  C   UNL     1       8.428  11.657  17.664  0.00  0.00    +0.000 A 
ATOM     16  C   UNL     1       9.113  10.685  18.404  0.00  0.00    +0.000 A 
ATOM     17  C   UNL     1      10.184  11.125  19.173  0.00  0.00    +0.000 A 
ATOM     18  C   UNL     1      10.567  12.464  19.178  0.00  0.00    +0.000 A 
BRANCH  13  19
ATOM     19  C   UNL     1      10.428  14.780  18.342  0.00  0.00    +0.000 C 
BRANCH  19  20
ATOM     20  C   UNL     1      11.546  14.909  17.295  0.00  0.00    +0.000 C 
BRANCH  20  21
ATOM     21  O   UNL     1      11.001  14.978  15.981  0.00  0.00    +0.000 OA
ATOM     22  H   UNL     1      11.232  14.149  15.515  0.00  0.00    +0.000 HD
ENDBRANCH  20  21
ENDBRANCH  19  20
ENDBRANCH  13  19
ENDBRANCH   1  16
TORSDOF 5
ENDMDL
MODEL 2
REMARK VINA RESULT:      -7.2      3.374      8.416
REMARK  Name = 
REMARK  5 active torsions:
REMARK  status: ('A' for Active; 'I' for Inactive)
REMARK    1  A    between atoms: O_1  and  C_2
REMARK    2  A    between atoms: C_2  and  C_3
REMARK    3  A    between atoms: C_3  and  N_4
REMARK    4  A    between atoms: C_7  and  C_8
REMARK    5  A    between atoms: C_9  and  C_10
REMARK                            x       y       z     vdW  Elec       q    Type
REMARK                         _______ _______ _______ _____ _____    ______ ____
ROOT
ATOM      1  C   UNL     1       8.309   9.199  18.067  0.00  0.00    +0.000 C 
ATOM      2  C   UNL     1       9.120   9.515  19.091  0.00  0.00    +0.000 C 
ENDROOT
BRANCH   2   3
ATOM      3  C   UNL     1       9.641  10.815  19.413  0.00  0.00    +0.000 A 
ATOM      4  C   UNL     1       9.383  11.354  20.657  0.00  0.00    +0.000 A 
ATOM      5  N   UNL     1      10.146  12.480  20.748  0.00  0.00    +0.000 N 
ATOM      6  C   UNL     1      10.385  12.951  19.483  0.00  0.00    +0.000 A 
ATOM      7  C   UNL     1      10.687  14.241  19.041  0.00  0.00    +0.000 A 
ATOM      8  C   UNL     1      11.108  14.369  17.722  0.00  0.00    +0.000 A 
ATOM      9  C   UNL     1      11.338  13.234  16.946  0.00  0.00    +0.000 A 
ATOM     10  C   UNL     1      10.982  11.949  17.402  0.00  0.00    +0.000 A 
ATOM     11  C   UNL     1      10.370  11.815  18.669  0.00  0.00    +0.000 A 
ATOM     12  H   UNL     1      10.655  12.772  21.567  0.00  0.00    +0.000 HD
ENDBRANCH   2   3
BRANCH   1  16
ATOM     13  N   UNL     1       6.408   5.389  17.549  0.00  0.00    +0.000 N 
ATOM     14  C   UNL     1       5.975   6.441  16.813  0.00  0.00    +0.000 A 
ATOM     15  C   UNL     1       6.563   7.707  16.953  0.00  0.00    +0.000 A 
ATOM     16  C   UNL     1       7.640   7.903  17.829  0.00  0.00    +0.000 A 
ATOM     17  C   UNL     1       8.078   6.790  18.538  0.00  0.00    +0.000 A 
ATOM     18  C   UNL     1       7.454   5.554  18.399  0.00  0.00    +0.000 A 
BRANCH  13  19
ATOM     19  C   UNL     1       5.655   4.097  17.549  0.00  0.00    +0.000 C 
BRANCH  19  20
ATOM     20  C   UNL     1       4.716   3.954  18.758  0.00  0.00    +0.000 C 
BRANCH  20  21
ATOM     21  O   UNL     1       5.154   2.906  19.616  0.00  0.00    +0.000 OA
ATOM     22  H   UNL     1       4.951   3.167  20.538  0.00  0.00    +0.000 HD
ENDBRANCH  20  21
ENDBRANCH  19  20
ENDBRANCH  13  19
ENDBRANCH   1  16
TORSDOF 5
ENDMDL
MODEL 3
REMARK VINA RESULT:      -7.2      6.704      9.320
REMARK  Name = 
REMARK  5 active torsions:
REMARK  status: ('A' for Active; 'I' for Inactive)
REMARK    1  A    between atoms: O_1  and  C_2
REMARK    2  A    between atoms: C_2  and  C_3
REMARK    3  A    between atoms: C_3  and  N_4
REMARK    4  A    between atoms: C_7  and  C_8
REMARK    5  A    between atoms: C_9  and  C_10
REMARK                            x       y       z     vdW  Elec       q    Type
REMARK                         _______ _______ _______ _____ _____    ______ ____
ROOT
ATOM      1  C   UNL     1       2.125   7.622  18.744  0.00  0.00    +0.000 C 
ATOM      2  C   UNL     1       1.838   8.901  18.447  0.00  0.00    +0.000 C 
ENDROOT
BRANCH   2   3
ATOM      3  C   UNL     1       1.003   9.798  19.198  0.00  0.00    +0.000 A 
ATOM      4  C   UNL     1       0.828  11.090  18.747  0.00  0.00    +0.000 A 
ATOM      5  N   UNL     1      -0.143  11.638  19.532  0.00  0.00    +0.000 N 
ATOM      6  C   UNL     1      -0.147  10.990  20.740  0.00  0.00    +0.000 A 
ATOM      7  C   UNL     1      -0.580  11.422  21.996  0.00  0.00    +0.000 A 
ATOM      8  C   UNL     1      -0.674  10.458  22.993  0.00  0.00    +0.000 A 
ATOM      9  C   UNL     1      -0.470   9.112  22.688  0.00  0.00    +0.000 A 
ATOM     10  C   UNL     1       0.010   8.710  21.426  0.00  0.00    +0.000 A 
ATOM     11  C   UNL     1       0.299   9.697  20.455  0.00  0.00    +0.000 A 
ATOM     12  H   UNL     1      -0.889  12.231  19.205  0.00  0.00    +0.000 HD
ENDBRANCH   2   3
BRANCH   1  16
ATOM     13  N   UNL     1       4.849   4.969  16.761  0.00  0.00    +0.000 N 
ATOM     14  C   UNL     1       5.075   6.304  16.698  0.00  0.00    +0.000 A 
ATOM     15  C   UNL     1       4.207   7.209  17.327  0.00  0.00    +0.000 A 
ATOM     16  C   UNL     1       3.110   6.751  18.069  0.00  0.00    +0.000 A 
ATOM     17  C   UNL     1       2.935   5.374  18.140  0.00  0.00    +0.000 A 
ATOM     18  C   UNL     1       3.796   4.502  17.480  0.00  0.00    +0.000 A 
BRANCH  13  19
ATOM     19  C   UNL     1       5.652   4.020  15.930  0.00  0.00    +0.000 C 
BRANCH  19  20
ATOM     20  C   UNL     1       7.108   4.477  15.741  0.00  0.00    +0.000 C 
BRANCH  20  21
ATOM     21  O   UNL     1       7.896   4.134  16.876  0.00  0.00    +0.000 OA
ATOM     22  H   UNL     1       8.838   4.195  16.618  0.00  0.00    +0.000 HD
ENDBRANCH  20  21
ENDBRANCH  19  20
ENDBRANCH  13  19
ENDBRANCH   1  16
TORSDOF 5
ENDMDL
MODEL 4
REMARK VINA RESULT:      -7.2      1.471      1.540
REMARK  Name = 
REMARK  5 active torsions:
REMARK  status: ('A' for Active; 'I' for Inactive)
REMARK    1  A    between atoms: O_1  and  C_2
REMARK    2  A    between atoms: C_2  and  C_3
REMARK    3  A    between atoms: C_3  and  N_4
REMARK    4  A    between atoms: C_7  and  C_8
REMARK    5  A    between atoms: C_9  and  C_10
REMARK                            x       y       z     vdW  Elec       q    Type
REMARK                         _______ _______ _______ _____ _____    ______ ____
ROOT
ATOM      1  C   UNL     1       8.229   8.402  18.551  0.00  0.00    +0.000 C 
ATOM      2  C   UNL     1       7.496   7.737  17.643  0.00  0.00    +0.000 C 
ENDROOT
BRANCH   2   3
ATOM      3  C   UNL     1       6.899   6.438  17.795  0.00  0.00    +0.000 A 
ATOM      4  C   UNL     1       7.711   5.322  17.802  0.00  0.00    +0.000 A 
ATOM      5  N   UNL     1       6.912   4.273  18.148  0.00  0.00    +0.000 N 
ATOM      6  C   UNL     1       5.622   4.570  17.792  0.00  0.00    +0.000 A 
ATOM      7  C   UNL     1       4.547   3.726  17.501  0.00  0.00    +0.000 A 
ATOM      8  C   UNL     1       3.294   4.319  17.399  0.00  0.00    +0.000 A 
ATOM      9  C   UNL     1       3.129   5.667  17.713  0.00  0.00    +0.000 A 
ATOM     10  C   UNL     1       4.235   6.505  17.959  0.00  0.00    +0.000 A 
ATOM     11  C   UNL     1       5.538   5.963  17.875  0.00  0.00    +0.000 A 
ATOM     12  H   UNL     1       7.169   3.528  18.776  0.00  0.00    +0.000 HD
ENDBRANCH   2   3
BRANCH   1  16
ATOM     13  N   UNL     1       9.773  12.397  18.335  0.00  0.00    +0.000 N 
ATOM     14  C   UNL     1       8.684  12.076  17.595  0.00  0.00    +0.000 A 
ATOM     15  C   UNL     1       8.148  10.780  17.630  0.00  0.00    +0.000 A 
ATOM     16  C   UNL     1       8.703   9.799  18.463  0.00  0.00    +0.000 A 
ATOM     17  C   UNL     1       9.795  10.178  19.233  0.00  0.00    +0.000 A 
ATOM     18  C   UNL     1      10.323  11.464  19.153  0.00  0.00    +0.000 A 
BRANCH  13  19
ATOM     19  C   UNL     1      10.463  13.711  18.146  0.00  0.00    +0.000 C 
BRANCH  19  20
ATOM     20  C   UNL     1      11.677  13.616  17.208  0.00  0.00    +0.000 C 
BRANCH  20  21
ATOM     21  O   UNL     1      11.288  13.827  15.855  0.00  0.00    +0.000 OA
ATOM     22  H   UNL     1      10.488  13.289  15.684  0.00  0.00    +0.000 HD
ENDBRANCH  20  21
ENDBRANCH  19  20
ENDBRANCH  13  19
ENDBRANCH   1  16
TORSDOF 5
ENDMDL
MODEL 5
REMARK VINA RESULT:      -7.1      3.149      8.357
REMARK  Name = 
REMARK  5 active torsions:
REMARK  status: ('A' for Active; 'I' for Inactive)
REMARK    1  A    between atoms: O_1  and  C_2
REMARK    2  A    between atoms: C_2  and  C_3
REMARK    3  A    between atoms: C_3  and  N_4
REMARK    4  A    between atoms: C_7  and  C_8
REMARK    5  A    between atoms: C_9  and  C_10
REMARK                            x       y       z     vdW  Elec       q    Type
REMARK                         _______ _______ _______ _____ _____    ______ ____
ROOT
ATOM      1  C   UNL     1       8.527   8.366  19.009  0.00  0.00    +0.000 C 
ATOM      2  C   UNL     1       8.798   9.611  18.583  0.00  0.00    +0.000 C 
ENDROOT
BRANCH   2   3
ATOM      3  C   UNL     1       9.576  10.608  19.265  0.00  0.00    +0.000 A 
ATOM      4  C   UNL     1       9.318  10.870  20.595  0.00  0.00    +0.000 A 
ATOM      5  N   UNL     1      10.313  11.700  21.019  0.00  0.00    +0.000 N 
ATOM      6  C   UNL     1      10.797  12.391  19.939  0.00  0.00    +0.000 A 
ATOM      7  C   UNL     1      11.446  13.626  19.873  0.00  0.00    +0.000 A 
ATOM      8  C   UNL     1      12.030  13.964  18.658  0.00  0.00    +0.000 A 
ATOM      9  C   UNL     1      12.067  13.037  17.616  0.00  0.00    +0.000 A 
ATOM     10  C   UNL     1      11.366  11.818  17.694  0.00  0.00    +0.000 A 
ATOM     11  C   UNL     1      10.601  11.537  18.850  0.00  0.00    +0.000 A 
ATOM     12  H   UNL     1      10.782  11.637  21.908  0.00  0.00    +0.000 HD
ENDBRANCH   2   3
BRANCH   1  16
ATOM     13  N   UNL     1       6.601   5.139  16.941  0.00  0.00    +0.000 N 
ATOM     14  C   UNL     1       6.513   6.391  16.427  0.00  0.00    +0.000 A 
ATOM     15  C   UNL     1       7.123   7.477  17.072  0.00  0.00    +0.000 A 
ATOM     16  C   UNL     1       7.871   7.286  18.242  0.00  0.00    +0.000 A 
ATOM     17  C   UNL     1       7.968   5.983  18.716  0.00  0.00    +0.000 A 
ATOM     18  C   UNL     1       7.326   4.930  18.069  0.00  0.00    +0.000 A 
BRANCH  13  19
ATOM     19  C   UNL     1       5.789   4.021  16.369  0.00  0.00    +0.000 C 
BRANCH  19  20
ATOM     20  C   UNL     1       5.470   4.219  14.877  0.00  0.00    +0.000 C 
BRANCH  20  21
ATOM     21  O   UNL     1       6.378   3.482  14.065  0.00  0.00    +0.000 OA
ATOM     22  H   UNL     1       7.227   3.968  14.045  0.00  0.00    +0.000 HD
ENDBRANCH  20  21
ENDBRANCH  19  20
ENDBRANCH  13  19
ENDBRANCH   1  16
TORSDOF 5
ENDMDL
MODEL 6
REMARK VINA RESULT:      -7.1      6.510      9.160
REMARK  Name = 
REMARK  5 active torsions:
REMARK  status: ('A' for Active; 'I' for Inactive)
REMARK    1  A    between atoms: O_1  and  C_2
REMARK    2  A    between atoms: C_2  and  C_3
REMARK    3  A    between atoms: C_3  and  N_4
REMARK    4  A    between atoms: C_7  and  C_8
REMARK    5  A    between atoms: C_9  and  C_10
REMARK                            x       y       z     vdW  Elec       q    Type
REMARK                         _______ _______ _______ _____ _____    ______ ____
ROOT
ATOM      1  C   UNL     1       2.213   7.543  18.696  0.00  0.00    +0.000 C 
ATOM      2  C   UNL     1       1.887   8.804  18.366  0.00  0.00    +0.000 C 
ENDROOT
BRANCH   2   3
ATOM      3  C   UNL     1       1.117   9.732  19.148  0.00  0.00    +0.000 A 
ATOM      4  C   UNL     1       1.052  11.053  18.753  0.00  0.00    +0.000 A 
ATOM      5  N   UNL     1       0.118  11.643  19.552  0.00  0.00    +0.000 N 
ATOM      6  C   UNL     1       0.047  10.946  20.731  0.00  0.00    +0.000 A 
ATOM      7  C   UNL     1      -0.366  11.356  22.000  0.00  0.00    +0.000 A 
ATOM      8  C   UNL     1      -0.550  10.361  22.952  0.00  0.00    +0.000 A 
ATOM      9  C   UNL     1      -0.451   9.018  22.590  0.00  0.00    +0.000 A 
ATOM     10  C   UNL     1       0.011   8.633  21.316  0.00  0.00    +0.000 A 
ATOM     11  C   UNL     1       0.391   9.634  20.393  0.00  0.00    +0.000 A 
ATOM     12  H   UNL     1      -0.574  12.307  19.245  0.00  0.00    +0.000 HD
ENDBRANCH   2   3
BRANCH   1  16
ATOM     13  N   UNL     1       5.033   5.063  16.624  0.00  0.00    +0.000 N 
ATOM     14  C   UNL     1       3.999   4.475  17.274  0.00  0.00    +0.000 A 
ATOM     15  C   UNL     1       3.056   5.247  17.970  0.00  0.00    +0.000 A 
ATOM     16  C   UNL     1       3.139   6.645  17.974  0.00  0.00    +0.000 A 
ATOM     17  C   UNL     1       4.192   7.211  17.264  0.00  0.00    +0.000 A 
ATOM     18  C   UNL     1       5.129   6.417  16.609  0.00  0.00    +0.000 A 
BRANCH  13  19
ATOM     19  C   UNL     1       6.144   4.238  16.056  0.00  0.00    +0.000 C 
BRANCH  19  20
ATOM     20  C   UNL     1       6.536   4.667  14.633  0.00  0.00    +0.000 C 
BRANCH  20  21
ATOM     21  O   UNL     1       7.776   5.366  14.639  0.00  0.00    +0.000 OA
ATOM     22  H   UNL     1       8.477   4.733  14.898  0.00  0.00    +0.000 HD
ENDBRANCH  20  21
ENDBRANCH  19  20
ENDBRANCH  13  19
ENDBRANCH   1  16
TORSDOF 5
ENDMDL
MODEL 7
REMARK VINA RESULT:      -7.1      0.481      1.158
REMARK  Name = 
REMARK  5 active torsions:
REMARK  status: ('A' for Active; 'I' for Inactive)
REMARK    1  A    between atoms: O_1  and  C_2
REMARK    2  A    between atoms: C_2  and  C_3
REMARK    3  A    between atoms: C_3  and  N_4
REMARK    4  A    between atoms: C_7  and  C_8
REMARK    5  A    between atoms: C_9  and  C_10
REMARK                            x       y       z     vdW  Elec       q    Type
REMARK                         _______ _______ _______ _____ _____    ______ ____
ROOT
ATOM      1  C   UNL     1       8.845   9.285  18.780  0.00  0.00    +0.000 C 
ATOM      2  C   UNL     1       8.220   8.559  17.838  0.00  0.00    +0.000 C 
ENDROOT
BRANCH   2   3
ATOM      3  C   UNL     1       7.612   7.267  18.002  0.00  0.00    +0.000 A 
ATOM      4  C   UNL     1       8.080   6.424  18.989  0.00  0.00    +0.000 A 
ATOM      5  N   UNL     1       7.210   5.375  19.037  0.00  0.00    +0.000 N 
ATOM      6  C   UNL     1       6.614   5.245  17.810  0.00  0.00    +0.000 A 
ATOM      7  C   UNL     1       6.037   4.129  17.199  0.00  0.00    +0.000 A 
ATOM      8  C   UNL     1       5.300   4.358  16.043  0.00  0.00    +0.000 A 
ATOM      9  C   UNL     1       5.054   5.662  15.615  0.00  0.00    +0.000 A 
ATOM     10  C   UNL     1       5.685   6.765  16.222  0.00  0.00    +0.000 A 
ATOM     11  C   UNL     1       6.594   6.539  17.281  0.00  0.00    +0.000 A 
ATOM     12  H   UNL     1       6.875   4.937  19.880  0.00  0.00    +0.000 HD
ENDBRANCH   2   3
BRANCH   1  16
ATOM     13  N   UNL     1      10.060  13.380  18.396  0.00  0.00    +0.000 N 
ATOM     14  C   UNL     1      10.797  12.550  19.174  0.00  0.00    +0.000 A 
ATOM     15  C   UNL     1      10.433  11.204  19.333  0.00  0.00    +0.000 A 
ATOM     16  C   UNL     1       9.324  10.678  18.658  0.00  0.00    +0.000 A 
ATOM     17  C   UNL     1       8.617  11.553  17.841  0.00  0.00    +0.000 A 
ATOM     18  C   UNL     1       8.985  12.891  17.728  0.00  0.00    +0.000 A 
BRANCH  13  19
ATOM     19  C   UNL     1      10.326  14.852  18.386  0.00  0.00    +0.000 C 
BRANCH  19  20
ATOM     20  C   UNL     1      10.865  15.350  17.036  0.00  0.00    +0.000 C 
BRANCH  20  21
ATOM     21  O   UNL     1      12.100  14.715  16.720  0.00  0.00    +0.000 OA
ATOM     22  H   UNL     1      11.928  13.757  16.618  0.00  0.00    +0.000 HD
ENDBRANCH  20  21
ENDBRANCH  19  20
ENDBRANCH  13  19
ENDBRANCH   1  16
TORSDOF 5
ENDMDL
MODEL 8
REMARK VINA RESULT:      -7.1      8.268      9.243
REMARK  Name = 
REMARK  5 active torsions:
REMARK  status: ('A' for Active; 'I' for Inactive)
REMARK    1  A    between atoms: O_1  and  C_2
REMARK    2  A    between atoms: C_2  and  C_3
REMARK    3  A    between atoms: C_3  and  N_4
REMARK    4  A    between atoms: C_7  and  C_8
REMARK    5  A    between atoms: C_9  and  C_10
REMARK                            x       y       z     vdW  Elec       q    Type
REMARK                         _______ _______ _______ _____ _____    ______ ____
ROOT
ATOM      1  C   UNL     1       1.139   7.862  21.074  0.00  0.00    +0.000 C 
ATOM      2  C   UNL     1       1.885   7.762  19.961  0.00  0.00    +0.000 C 
ENDROOT
BRANCH   2   3
ATOM      3  C   UNL     1       2.363   6.555  19.344  0.00  0.00    +0.000 A 
ATOM      4  C   UNL     1       3.288   6.641  18.324  0.00  0.00    +0.000 A 
ATOM      5  N   UNL     1       3.694   5.365  18.071  0.00  0.00    +0.000 N 
ATOM      6  C   UNL     1       2.693   4.505  18.444  0.00  0.00    +0.000 A 
ATOM      7  C   UNL     1       2.400   3.213  18.002  0.00  0.00    +0.000 A 
ATOM      8  C   UNL     1       1.459   2.498  18.734  0.00  0.00    +0.000 A 
ATOM      9  C   UNL     1       0.952   3.021  19.924  0.00  0.00    +0.000 A 
ATOM     10  C   UNL     1       1.230   4.343  20.322  0.00  0.00    +0.000 A 
ATOM     11  C   UNL     1       2.032   5.157  19.489  0.00  0.00    +0.000 A 
ATOM     12  H   UNL     1       4.643   5.082  17.884  0.00  0.00    +0.000 HD
ENDBRANCH   2   3
BRANCH   1  16
ATOM     13  N   UNL     1      -0.696  11.476  22.477  0.00  0.00    +0.000 N 
ATOM     14  C   UNL     1      -0.883  10.332  23.180  0.00  0.00    +0.000 A 
ATOM     15  C   UNL     1      -0.306   9.126  22.755  0.00  0.00    +0.000 A 
ATOM     16  C   UNL     1       0.509   9.084  21.617  0.00  0.00    +0.000 A 
ATOM     17  C   UNL     1       0.706  10.285  20.945  0.00  0.00    +0.000 A 
ATOM     18  C   UNL     1       0.096  11.461  21.375  0.00  0.00    +0.000 A 
BRANCH  13  19
ATOM     19  C   UNL     1      -1.468  12.712  22.813  0.00  0.00    +0.000 C 
BRANCH  19  20
ATOM     20  C   UNL     1      -2.828  12.407  23.462  0.00  0.00    +0.000 C 
BRANCH  20  21
ATOM     21  O   UNL     1      -3.843  12.279  22.472  0.00  0.00    +0.000 OA
ATOM     22  H   UNL     1      -3.854  11.348  22.170  0.00  0.00    +0.000 HD
ENDBRANCH  20  21
ENDBRANCH  19  20
ENDBRANCH  13  19
ENDBRANCH   1  16
TORSDOF 5
ENDMDL
MODEL 9
REMARK VINA RESULT:      -7.1      3.487      8.482
REMARK  Name = 
REMARK  5 active torsions:
REMARK  status: ('A' for Active; 'I' for Inactive)
REMARK    1  A    between atoms: O_1  and  C_2
REMARK    2  A    between atoms: C_2  and  C_3
REMARK    3  A    between atoms: C_3  and  N_4
REMARK    4  A    between atoms: C_7  and  C_8
REMARK    5  A    between atoms: C_9  and  C_10
REMARK                            x       y       z     vdW  Elec       q    Type
REMARK                         _______ _______ _______ _____ _____    ______ ____
ROOT
ATOM      1  C   UNL     1       8.217   8.957  17.643  0.00  0.00    +0.000 C 
ATOM      2  C   UNL     1       8.810   9.699  18.594  0.00  0.00    +0.000 C 
ENDROOT
BRANCH   2   3
ATOM      3  C   UNL     1       9.378  11.010  18.439  0.00  0.00    +0.000 A 
ATOM      4  C   UNL     1      10.684  11.229  18.830  0.00  0.00    +0.000 A 
ATOM      5  N   UNL     1      11.005  12.481  18.397  0.00  0.00    +0.000 N 
ATOM      6  C   UNL     1       9.854  13.218  18.297  0.00  0.00    +0.000 A 
ATOM      7  C   UNL     1       9.658  14.600  18.354  0.00  0.00    +0.000 A 
ATOM      8  C   UNL     1       8.403  15.071  17.986  0.00  0.00    +0.000 A 
ATOM      9  C   UNL     1       7.452  14.197  17.462  0.00  0.00    +0.000 A 
ATOM     10  C   UNL     1       7.659  12.803  17.458  0.00  0.00    +0.000 A 
ATOM     11  C   UNL     1       8.854  12.285  18.008  0.00  0.00    +0.000 A 
ATOM     12  H   UNL     1      11.885  12.745  17.983  0.00  0.00    +0.000 HD
ENDBRANCH   2   3
BRANCH   1  16
ATOM     13  N   UNL     1       6.034   5.285  18.023  0.00  0.00    +0.000 N 
ATOM     14  C   UNL     1       7.181   5.440  18.729  0.00  0.00    +0.000 A 
ATOM     15  C   UNL     1       7.930   6.622  18.631  0.00  0.00    +0.000 A 
ATOM     16  C   UNL     1       7.489   7.685  17.833  0.00  0.00    +0.000 A 
ATOM     17  C   UNL     1       6.289   7.501  17.154  0.00  0.00    +0.000 A 
ATOM     18  C   UNL     1       5.584   6.304  17.248  0.00  0.00    +0.000 A 
BRANCH  13  19
ATOM     19  C   UNL     1       5.345   3.959  17.969  0.00  0.00    +0.000 C 
BRANCH  19  20
ATOM     20  C   UNL     1       4.694   3.571  19.307  0.00  0.00    +0.000 C 
BRANCH  20  21
ATOM     21  O   UNL     1       5.089   2.261  19.699  0.00  0.00    +0.000 OA
ATOM     22  H   UNL     1       5.551   2.330  20.560  0.00  0.00    +0.000 HD
ENDBRANCH  20  21
ENDBRANCH  19  20
ENDBRANCH  13  19
ENDBRANCH   1  16
TORSDOF 5
ENDMDL
