MODEL 1
REMARK VINA RESULT:      -6.4      0.000      0.000
REMARK  Name = 
REMARK  9 active torsions:
REMARK  status: ('A' for Active; 'I' for Inactive)
REMARK    1  A    between atoms: C_1  and  C_2
REMARK    2  A    between atoms: C_4  and  C_5
REMARK    3  A    between atoms: N_7  and  C_8
REMARK    4  A    between atoms: C_8  and  C_9
REMARK    5  A    between atoms: C_9  and  C_10
REMARK    6  A    between atoms: C_9  and  O_11
REMARK    7  A    between atoms: C_13  and  C_14
REMARK    8  A    between atoms: C_14  and  S_15
REMARK    9  A    between atoms: S_15  and  C_16
REMARK                            x       y       z     vdW  Elec       q    Type
REMARK                         _______ _______ _______ _____ _____    ______ ____
ROOT
ATOM      1  C   UNL     1       6.622   5.396  19.701  0.00  0.00    +0.000 C 
ATOM      2  C   UNL     1       6.229   5.010  18.309  0.00  0.00    +0.000 A 
ATOM      3  S   UNL     1       7.416   5.132  17.081  0.00  0.00    +0.000 S 
ATOM      4  C   UNL     1       6.336   4.628  15.863  0.00  0.00    +0.000 A 
ATOM      5  C   UNL     1       5.100   4.327  16.397  0.00  0.00    +0.000 A 
ATOM      6  C   UNL     1       5.016   4.539  17.820  0.00  0.00    +0.000 A 
ENDROOT
BRANCH   4   7
ATOM      7  C   UNL     1       6.737   4.560  14.458  0.00  0.00    +0.000 C 
ATOM      8  O   UNL     1       7.560   5.324  13.965  0.00  0.00    +0.000 OA
ATOM      9  N   UNL     1       6.137   3.561  13.723  0.00  0.00    +0.000 N 
ATOM     10  H   UNL     1       5.345   3.086  14.140  0.00  0.00    +0.000 HD
BRANCH   9  11
ATOM     11  C   UNL     1       6.397   3.351  12.312  0.00  0.00    +0.000 C 
BRANCH  11  12
ATOM     12  C   UNL     1       5.459   2.304  11.697  0.00  0.00    +0.000 C 
ATOM     13  C   UNL     1       4.292   2.975  10.983  0.00  0.00    +0.000 C 
BRANCH  12  14
ATOM     14  O   UNL     1       6.179   1.501  10.753  0.00  0.00    +0.000 OA
ATOM     15  H   UNL     1       7.101   1.810  10.733  0.00  0.00    +0.000 HD
ENDBRANCH  12  14
ENDBRANCH  11  12
ENDBRANCH   9  11
ENDBRANCH   4   7
BRANCH   6  16
ATOM     16  C   UNL     1       3.794   4.206  18.632  0.00  0.00    +0.000 C 
BRANCH  16  17
ATOM     17  S   UNL     1       3.685   2.534  19.275  0.00  0.00    +0.000 S 
ATOM     18  C   UNL     1       2.205   2.500  20.258  0.00  0.00    +0.000 C 
ATOM     19  O   UNL     1       3.453   1.666  18.135  0.00  0.00    +0.000 OA
ATOM     20  O   UNL     1       4.816   2.291  20.154  0.00  0.00    +0.000 OA
ENDBRANCH  16  17
ENDBRANCH   6  16
TORSDOF 6
ENDMDL
MODEL 2
REMARK VINA RESULT:      -6.3      2.812      6.682
REMARK  Name = 
REMARK  9 active torsions:
REMARK  status: ('A' for Active; 'I' for Inactive)
REMARK    1  A    between atoms: C_1  and  C_2
REMARK    2  A    between atoms: C_4  and  C_5
REMARK    3  A    between atoms: N_7  and  C_8
REMARK    4  A    between atoms: C_8  and  C_9
REMARK    5  A    between atoms: C_9  and  C_10
REMARK    6  A    between atoms: C_9  and  O_11
REMARK    7  A    between atoms: C_13  and  C_14
REMARK    8  A    between atoms: C_14  and  S_15
REMARK    9  A    between atoms: S_15  and  C_16
REMARK                            x       y       z     vdW  Elec       q    Type
REMARK                         _______ _______ _______ _____ _____    ______ ____
ROOT
ATOM      1  C   UNL     1       7.777   5.943  18.775  0.00  0.00    +0.000 C 
ATOM      2  C   UNL     1       6.562   5.250  18.241  0.00  0.00    +0.000 A 
ATOM      3  S   UNL     1       5.137   5.295  19.189  0.00  0.00    +0.000 S 
ATOM      4  C   UNL     1       4.263   4.340  18.081  0.00  0.00    +0.000 A 
ATOM      5  C   UNL     1       5.039   4.031  16.982  0.00  0.00    +0.000 A 
ATOM      6  C   UNL     1       6.379   4.555  17.053  0.00  0.00    +0.000 A 
ENDROOT
BRANCH   4   7
ATOM      7  C   UNL     1       2.882   3.931  18.337  0.00  0.00    +0.000 C 
ATOM      8  O   UNL     1       1.916   4.588  17.965  0.00  0.00    +0.000 OA
ATOM      9  N   UNL     1       2.738   2.738  19.011  0.00  0.00    +0.000 N 
ATOM     10  H   UNL     1       3.566   2.340  19.439  0.00  0.00    +0.000 HD
BRANCH   9  11
ATOM     11  C   UNL     1       1.447   2.181  19.366  0.00  0.00    +0.000 C 
BRANCH  11  12
ATOM     12  C   UNL     1       0.915   2.744  20.692  0.00  0.00    +0.000 C 
ATOM     13  C   UNL     1       2.016   2.780  21.746  0.00  0.00    +0.000 C 
BRANCH  12  14
ATOM     14  O   UNL     1       0.422   4.074  20.492  0.00  0.00    +0.000 OA
ATOM     15  H   UNL     1       0.263   4.473  21.365  0.00  0.00    +0.000 HD
ENDBRANCH  12  14
ENDBRANCH  11  12
ENDBRANCH   9  11
ENDBRANCH   4   7
BRANCH   6  16
ATOM     16  C   UNL     1       7.379   4.412  15.937  0.00  0.00    +0.000 C 
BRANCH  16  17
ATOM     17  S   UNL     1       6.924   5.122  14.353  0.00  0.00    +0.000 S 
ATOM     18  C   UNL     1       6.215   3.785  13.421  0.00  0.00    +0.000 C 
ATOM     19  O   UNL     1       5.854   6.067  14.614  0.00  0.00    +0.000 OA
ATOM     20  O   UNL     1       8.129   5.560  13.668  0.00  0.00    +0.000 OA
ENDBRANCH  16  17
ENDBRANCH   6  16
TORSDOF 6
ENDMDL
MODEL 3
REMARK VINA RESULT:      -6.2      4.795      7.794
REMARK  Name = 
REMARK  9 active torsions:
REMARK  status: ('A' for Active; 'I' for Inactive)
REMARK    1  A    between atoms: C_1  and  C_2
REMARK    2  A    between atoms: C_4  and  C_5
REMARK    3  A    between atoms: N_7  and  C_8
REMARK    4  A    between atoms: C_8  and  C_9
REMARK    5  A    between atoms: C_9  and  C_10
REMARK    6  A    between atoms: C_9  and  O_11
REMARK    7  A    between atoms: C_13  and  C_14
REMARK    8  A    between atoms: C_14  and  S_15
REMARK    9  A    between atoms: S_15  and  C_16
REMARK                            x       y       z     vdW  Elec       q    Type
REMARK                         _______ _______ _______ _____ _____    ______ ____
ROOT
ATOM      1  C   UNL     1       3.297   3.117  17.686  0.00  0.00    +0.000 C 
ATOM      2  C   UNL     1       3.400   4.610  17.719  0.00  0.00    +0.000 A 
ATOM      3  S   UNL     1       2.092   5.486  18.391  0.00  0.00    +0.000 S 
ATOM      4  C   UNL     1       2.819   6.993  18.069  0.00  0.00    +0.000 A 
ATOM      5  C   UNL     1       4.064   6.824  17.497  0.00  0.00    +0.000 A 
ATOM      6  C   UNL     1       4.424   5.445  17.288  0.00  0.00    +0.000 A 
ENDROOT
BRANCH   4   7
ATOM      7  C   UNL     1       2.146   8.255  18.375  0.00  0.00    +0.000 C 
ATOM      8  O   UNL     1       2.056   9.171  17.565  0.00  0.00    +0.000 OA
ATOM      9  N   UNL     1       1.597   8.339  19.635  0.00  0.00    +0.000 N 
ATOM     10  H   UNL     1       1.857   7.625  20.306  0.00  0.00    +0.000 HD
BRANCH   9  11
ATOM     11  C   UNL     1       0.905   9.516  20.121  0.00  0.00    +0.000 C 
BRANCH  11  12
ATOM     12  C   UNL     1       1.019   9.672  21.643  0.00  0.00    +0.000 C 
ATOM     13  C   UNL     1      -0.342   9.506  22.309  0.00  0.00    +0.000 C 
BRANCH  12  14
ATOM     14  O   UNL     1       1.914   8.685  22.168  0.00  0.00    +0.000 OA
ATOM     15  H   UNL     1       1.458   7.825  22.158  0.00  0.00    +0.000 HD
ENDBRANCH  12  14
ENDBRANCH  11  12
ENDBRANCH   9  11
ENDBRANCH   4   7
BRANCH   6  16
ATOM     16  C   UNL     1       5.762   5.015  16.751  0.00  0.00    +0.000 C 
BRANCH  16  17
ATOM     17  S   UNL     1       7.116   4.943  17.927  0.00  0.00    +0.000 S 
ATOM     18  C   UNL     1       7.648   6.625  18.141  0.00  0.00    +0.000 C 
ATOM     19  O   UNL     1       6.544   4.519  19.192  0.00  0.00    +0.000 OA
ATOM     20  O   UNL     1       8.213   4.194  17.339  0.00  0.00    +0.000 OA
ENDBRANCH  16  17
ENDBRANCH   6  16
TORSDOF 6
ENDMDL
MODEL 4
REMARK VINA RESULT:      -6.2      1.724      2.081
REMARK  Name = 
REMARK  9 active torsions:
REMARK  status: ('A' for Active; 'I' for Inactive)
REMARK    1  A    between atoms: C_1  and  C_2
REMARK    2  A    between atoms: C_4  and  C_5
REMARK    3  A    between atoms: N_7  and  C_8
REMARK    4  A    between atoms: C_8  and  C_9
REMARK    5  A    between atoms: C_9  and  C_10
REMARK    6  A    between atoms: C_9  and  O_11
REMARK    7  A    between atoms: C_13  and  C_14
REMARK    8  A    between atoms: C_14  and  S_15
REMARK    9  A    between atoms: S_15  and  C_16
REMARK                            x       y       z     vdW  Elec       q    Type
REMARK                         _______ _______ _______ _____ _____    ______ ____
ROOT
ATOM      1  C   UNL     1       3.117   6.359  19.666  0.00  0.00    +0.000 C 
ATOM      2  C   UNL     1       3.572   5.565  18.480  0.00  0.00    +0.000 A 
ATOM      3  S   UNL     1       5.166   5.822  17.913  0.00  0.00    +0.000 S 
ATOM      4  C   UNL     1       4.981   4.720  16.626  0.00  0.00    +0.000 A 
ATOM      5  C   UNL     1       3.733   4.133  16.660  0.00  0.00    +0.000 A 
ATOM      6  C   UNL     1       2.897   4.607  17.734  0.00  0.00    +0.000 A 
ENDROOT
BRANCH   4   7
ATOM      7  C   UNL     1       6.044   4.491  15.648  0.00  0.00    +0.000 C 
ATOM      8  O   UNL     1       7.235   4.538  15.939  0.00  0.00    +0.000 OA
ATOM      9  N   UNL     1       5.616   4.196  14.372  0.00  0.00    +0.000 N 
ATOM     10  H   UNL     1       4.636   4.346  14.162  0.00  0.00    +0.000 HD
BRANCH   9  11
ATOM     11  C   UNL     1       6.524   3.954  13.269  0.00  0.00    +0.000 C 
BRANCH  11  12
ATOM     12  C   UNL     1       6.060   2.794  12.377  0.00  0.00    +0.000 C 
ATOM     13  C   UNL     1       4.840   3.195  11.557  0.00  0.00    +0.000 C 
BRANCH  12  14
ATOM     14  O   UNL     1       7.115   2.416  11.483  0.00  0.00    +0.000 OA
ATOM     15  H   UNL     1       7.957   2.472  11.967  0.00  0.00    +0.000 HD
ENDBRANCH  12  14
ENDBRANCH  11  12
ENDBRANCH   9  11
ENDBRANCH   4   7
BRANCH   6  16
ATOM     16  C   UNL     1       1.526   4.055  18.016  0.00  0.00    +0.000 C 
BRANCH  16  17
ATOM     17  S   UNL     1       1.442   2.615  19.082  0.00  0.00    +0.000 S 
ATOM     18  C   UNL     1       1.268   3.255  20.731  0.00  0.00    +0.000 C 
ATOM     19  O   UNL     1       0.200   1.934  18.762  0.00  0.00    +0.000 OA
ATOM     20  O   UNL     1       2.703   1.897  19.008  0.00  0.00    +0.000 OA
ENDBRANCH  16  17
ENDBRANCH   6  16
TORSDOF 6
ENDMDL
MODEL 5
REMARK VINA RESULT:      -6.2      1.656      1.930
REMARK  Name = 
REMARK  9 active torsions:
REMARK  status: ('A' for Active; 'I' for Inactive)
REMARK    1  A    between atoms: C_1  and  C_2
REMARK    2  A    between atoms: C_4  and  C_5
REMARK    3  A    between atoms: N_7  and  C_8
REMARK    4  A    between atoms: C_8  and  C_9
REMARK    5  A    between atoms: C_9  and  C_10
REMARK    6  A    between atoms: C_9  and  O_11
REMARK    7  A    between atoms: C_13  and  C_14
REMARK    8  A    between atoms: C_14  and  S_15
REMARK    9  A    between atoms: S_15  and  C_16
REMARK                            x       y       z     vdW  Elec       q    Type
REMARK                         _______ _______ _______ _____ _____    ______ ____
ROOT
ATOM      1  C   UNL     1       5.992   5.159  19.511  0.00  0.00    +0.000 C 
ATOM      2  C   UNL     1       5.786   5.104  18.029  0.00  0.00    +0.000 A 
ATOM      3  S   UNL     1       7.138   4.731  17.049  0.00  0.00    +0.000 S 
ATOM      4  C   UNL     1       6.248   4.887  15.605  0.00  0.00    +0.000 A 
ATOM      5  C   UNL     1       4.925   5.177  15.874  0.00  0.00    +0.000 A 
ATOM      6  C   UNL     1       4.634   5.303  17.279  0.00  0.00    +0.000 A 
ENDROOT
BRANCH   4   7
ATOM      7  C   UNL     1       6.874   4.734  14.292  0.00  0.00    +0.000 C 
ATOM      8  O   UNL     1       7.840   5.401  13.936  0.00  0.00    +0.000 OA
ATOM      9  N   UNL     1       6.315   3.770  13.482  0.00  0.00    +0.000 N 
ATOM     10  H   UNL     1       5.422   3.384  13.764  0.00  0.00    +0.000 HD
BRANCH   9  11
ATOM     11  C   UNL     1       6.792   3.487  12.143  0.00  0.00    +0.000 C 
BRANCH  11  12
ATOM     12  C   UNL     1       5.745   2.753  11.295  0.00  0.00    +0.000 C 
ATOM     13  C   UNL     1       5.964   1.245  11.350  0.00  0.00    +0.000 C 
BRANCH  12  14
ATOM     14  O   UNL     1       4.430   3.048  11.783  0.00  0.00    +0.000 OA
ATOM     15  H   UNL     1       3.833   2.335  11.495  0.00  0.00    +0.000 HD
ENDBRANCH  12  14
ENDBRANCH  11  12
ENDBRANCH   9  11
ENDBRANCH   4   7
BRANCH   6  16
ATOM     16  C   UNL     1       3.247   5.538  17.814  0.00  0.00    +0.000 C 
BRANCH  16  17
ATOM     17  S   UNL     1       2.269   4.080  18.183  0.00  0.00    +0.000 S 
ATOM     18  C   UNL     1       3.312   2.697  17.787  0.00  0.00    +0.000 C 
ATOM     19  O   UNL     1       2.076   4.063  19.622  0.00  0.00    +0.000 OA
ATOM     20  O   UNL     1       1.118   4.046  17.297  0.00  0.00    +0.000 OA
ENDBRANCH  16  17
ENDBRANCH   6  16
TORSDOF 6
ENDMDL
MODEL 6
REMARK VINA RESULT:      -6.1      5.250      7.527
REMARK  Name = 
REMARK  9 active torsions:
REMARK  status: ('A' for Active; 'I' for Inactive)
REMARK    1  A    between atoms: C_1  and  C_2
REMARK    2  A    between atoms: C_4  and  C_5
REMARK    3  A    between atoms: N_7  and  C_8
REMARK    4  A    between atoms: C_8  and  C_9
REMARK    5  A    between atoms: C_9  and  C_10
REMARK    6  A    between atoms: C_9  and  O_11
REMARK    7  A    between atoms: C_13  and  C_14
REMARK    8  A    between atoms: C_14  and  S_15
REMARK    9  A    between atoms: S_15  and  C_16
REMARK                            x       y       z     vdW  Elec       q    Type
REMARK                         _______ _______ _______ _____ _____    ______ ____
ROOT
ATOM      1  C   UNL     1       3.498   3.617  19.916  0.00  0.00    +0.000 C 
ATOM      2  C   UNL     1       3.502   4.928  19.192  0.00  0.00    +0.000 A 
ATOM      3  S   UNL     1       2.340   6.097  19.652  0.00  0.00    +0.000 S 
ATOM      4  C   UNL     1       2.860   7.209  18.470  0.00  0.00    +0.000 A 
ATOM      5  C   UNL     1       3.935   6.708  17.765  0.00  0.00    +0.000 A 
ATOM      6  C   UNL     1       4.328   5.383  18.172  0.00  0.00    +0.000 A 
ENDROOT
BRANCH   4   7
ATOM      7  C   UNL     1       2.195   8.498  18.278  0.00  0.00    +0.000 C 
ATOM      8  O   UNL     1       2.217   9.103  17.212  0.00  0.00    +0.000 OA
ATOM      9  N   UNL     1       1.520   8.981  19.378  0.00  0.00    +0.000 N 
ATOM     10  H   UNL     1       1.687   8.524  20.267  0.00  0.00    +0.000 HD
BRANCH   9  11
ATOM     11  C   UNL     1       0.816  10.248  19.381  0.00  0.00    +0.000 C 
BRANCH  11  12
ATOM     12  C   UNL     1      -0.631  10.111  18.885  0.00  0.00    +0.000 C 
ATOM     13  C   UNL     1      -1.498  11.243  19.423  0.00  0.00    +0.000 C 
BRANCH  12  14
ATOM     14  O   UNL     1      -0.659  10.146  17.453  0.00  0.00    +0.000 OA
ATOM     15  H   UNL     1       0.091  10.685  17.147  0.00  0.00    +0.000 HD
ENDBRANCH  12  14
ENDBRANCH  11  12
ENDBRANCH   9  11
ENDBRANCH   4   7
BRANCH   6  16
ATOM     16  C   UNL     1       5.522   4.666  17.600  0.00  0.00    +0.000 C 
BRANCH  16  17
ATOM     17  S   UNL     1       7.127   5.125  18.257  0.00  0.00    +0.000 S 
ATOM     18  C   UNL     1       7.464   6.742  17.600  0.00  0.00    +0.000 C 
ATOM     19  O   UNL     1       6.960   5.279  19.691  0.00  0.00    +0.000 OA
ATOM     20  O   UNL     1       8.130   4.210  17.738  0.00  0.00    +0.000 OA
ENDBRANCH  16  17
ENDBRANCH   6  16
TORSDOF 6
ENDMDL
MODEL 7
REMARK VINA RESULT:      -6.1      1.681      1.850
REMARK  Name = 
REMARK  9 active torsions:
REMARK  status: ('A' for Active; 'I' for Inactive)
REMARK    1  A    between atoms: C_1  and  C_2
REMARK    2  A    between atoms: C_4  and  C_5
REMARK    3  A    between atoms: N_7  and  C_8
REMARK    4  A    between atoms: C_8  and  C_9
REMARK    5  A    between atoms: C_9  and  C_10
REMARK    6  A    between atoms: C_9  and  O_11
REMARK    7  A    between atoms: C_13  and  C_14
REMARK    8  A    between atoms: C_14  and  S_15
REMARK    9  A    between atoms: S_15  and  C_16
REMARK                            x       y       z     vdW  Elec       q    Type
REMARK                         _______ _______ _______ _____ _____    ______ ____
ROOT
ATOM      1  C   UNL     1       5.523   5.495  19.460  0.00  0.00    +0.000 C 
ATOM      2  C   UNL     1       5.531   4.916  18.079  0.00  0.00    +0.000 A 
ATOM      3  S   UNL     1       6.728   5.469  16.989  0.00  0.00    +0.000 S 
ATOM      4  C   UNL     1       6.141   4.502  15.714  0.00  0.00    +0.000 A 
ATOM      5  C   UNL     1       5.073   3.735  16.133  0.00  0.00    +0.000 A 
ATOM      6  C   UNL     1       4.703   3.957  17.508  0.00  0.00    +0.000 A 
ENDROOT
BRANCH   4   7
ATOM      7  C   UNL     1       6.734   4.545  14.377  0.00  0.00    +0.000 C 
ATOM      8  O   UNL     1       7.613   5.341  14.067  0.00  0.00    +0.000 OA
ATOM      9  N   UNL     1       6.249   3.610  13.489  0.00  0.00    +0.000 N 
ATOM     10  H   UNL     1       5.410   3.106  13.752  0.00  0.00    +0.000 HD
BRANCH   9  11
ATOM     11  C   UNL     1       6.705   3.511  12.117  0.00  0.00    +0.000 C 
BRANCH  11  12
ATOM     12  C   UNL     1       5.724   2.730  11.232  0.00  0.00    +0.000 C 
ATOM     13  C   UNL     1       5.987   1.231  11.324  0.00  0.00    +0.000 C 
BRANCH  12  14
ATOM     14  O   UNL     1       4.379   2.989  11.651  0.00  0.00    +0.000 OA
ATOM     15  H   UNL     1       4.404   3.658  12.357  0.00  0.00    +0.000 HD
ENDBRANCH  12  14
ENDBRANCH  11  12
ENDBRANCH   9  11
ENDBRANCH   4   7
BRANCH   6  16
ATOM     16  C   UNL     1       3.621   3.179  18.205  0.00  0.00    +0.000 C 
BRANCH  16  17
ATOM     17  S   UNL     1       2.051   4.016  18.440  0.00  0.00    +0.000 S 
ATOM     18  C   UNL     1       1.916   4.288  20.191  0.00  0.00    +0.000 C 
ATOM     19  O   UNL     1       2.181   5.322  17.820  0.00  0.00    +0.000 OA
ATOM     20  O   UNL     1       0.975   3.125  18.038  0.00  0.00    +0.000 OA
ENDBRANCH  16  17
ENDBRANCH   6  16
TORSDOF 6
ENDMDL
MODEL 8
REMARK VINA RESULT:      -6.1      1.410      1.610
REMARK  Name = 
REMARK  9 active torsions:
REMARK  status: ('A' for Active; 'I' for Inactive)
REMARK    1  A    between atoms: C_1  and  C_2
REMARK    2  A    between atoms: C_4  and  C_5
REMARK    3  A    between atoms: N_7  and  C_8
REMARK    4  A    between atoms: C_8  and  C_9
REMARK    5  A    between atoms: C_9  and  C_10
REMARK    6  A    between atoms: C_9  and  O_11
REMARK    7  A    between atoms: C_13  and  C_14
REMARK    8  A    between atoms: C_14  and  S_15
REMARK    9  A    between atoms: S_15  and  C_16
REMARK                            x       y       z     vdW  Elec       q    Type
REMARK                         _______ _______ _______ _____ _____    ______ ____
ROOT
ATOM      1  C   UNL     1       6.506   5.548  19.646  0.00  0.00    +0.000 C 
ATOM      2  C   UNL     1       6.191   5.021  18.280  0.00  0.00    +0.000 A 
ATOM      3  S   UNL     1       7.315   5.330  17.027  0.00  0.00    +0.000 S 
ATOM      4  C   UNL     1       6.355   4.552  15.853  0.00  0.00    +0.000 A 
ATOM      5  C   UNL     1       5.214   4.025  16.424  0.00  0.00    +0.000 A 
ATOM      6  C   UNL     1       5.100   4.283  17.837  0.00  0.00    +0.000 A 
ENDROOT
BRANCH   4   7
ATOM      7  C   UNL     1       6.748   4.502  14.445  0.00  0.00    +0.000 C 
ATOM      8  O   UNL     1       7.606   5.237  13.969  0.00  0.00    +0.000 OA
ATOM      9  N   UNL     1       6.099   3.552  13.686  0.00  0.00    +0.000 N 
ATOM     10  H   UNL     1       5.286   3.105  14.094  0.00  0.00    +0.000 HD
BRANCH   9  11
ATOM     11  C   UNL     1       6.346   3.366  12.270  0.00  0.00    +0.000 C 
BRANCH  11  12
ATOM     12  C   UNL     1       5.524   2.210  11.683  0.00  0.00    +0.000 C 
ATOM     13  C   UNL     1       4.390   2.739  10.813  0.00  0.00    +0.000 C 
BRANCH  12  14
ATOM     14  O   UNL     1       6.367   1.370  10.886  0.00  0.00    +0.000 OA
ATOM     15  H   UNL     1       6.181   1.556   9.948  0.00  0.00    +0.000 HD
ENDBRANCH  12  14
ENDBRANCH  11  12
ENDBRANCH   9  11
ENDBRANCH   4   7
BRANCH   6  16
ATOM     16  C   UNL     1       3.982   3.741  18.685  0.00  0.00    +0.000 C 
BRANCH  16  17
ATOM     17  S   UNL     1       2.323   4.287  18.275  0.00  0.00    +0.000 S 
ATOM     18  C   UNL     1       1.351   3.986  19.733  0.00  0.00    +0.000 C 
ATOM     19  O   UNL     1       2.390   5.728  18.105  0.00  0.00    +0.000 OA
ATOM     20  O   UNL     1       1.801   3.454  17.206  0.00  0.00    +0.000 OA
ENDBRANCH  16  17
ENDBRANCH   6  16
TORSDOF 6
ENDMDL
MODEL 9
REMARK VINA RESULT:      -6.0      4.872      7.451
REMARK  Name = 
REMARK  9 active torsions:
REMARK  status: ('A' for Active; 'I' for Inactive)
REMARK    1  A    between atoms: C_1  and  C_2
REMARK    2  A    between atoms: C_4  and  C_5
REMARK    3  A    between atoms: N_7  and  C_8
REMARK    4  A    between atoms: C_8  and  C_9
REMARK    5  A    between atoms: C_9  and  C_10
REMARK    6  A    between atoms: C_9  and  O_11
REMARK    7  A    between atoms: C_13  and  C_14
REMARK    8  A    between atoms: C_14  and  S_15
REMARK    9  A    between atoms: S_15  and  C_16
REMARK                            x       y       z     vdW  Elec       q    Type
REMARK                         _______ _______ _______ _____ _____    ______ ____
ROOT
ATOM      1  C   UNL     1       3.145   2.828  17.629  0.00  0.00    +0.000 C 
ATOM      2  C   UNL     1       3.271   4.307  17.825  0.00  0.00    +0.000 A 
ATOM      3  S   UNL     1       2.051   5.098  18.728  0.00  0.00    +0.000 S 
ATOM      4  C   UNL     1       2.760   6.632  18.511  0.00  0.00    +0.000 A 
ATOM      5  C   UNL     1       3.936   6.532  17.796  0.00  0.00    +0.000 A 
ATOM      6  C   UNL     1       4.255   5.186  17.390  0.00  0.00    +0.000 A 
ENDROOT
BRANCH   4   7
ATOM      7  C   UNL     1       2.138   7.850  19.030  0.00  0.00    +0.000 C 
ATOM      8  O   UNL     1       1.855   7.997  20.214  0.00  0.00    +0.000 OA
ATOM      9  N   UNL     1       1.908   8.837  18.097  0.00  0.00    +0.000 N 
ATOM     10  H   UNL     1       2.001   8.586  17.119  0.00  0.00    +0.000 HD
BRANCH   9  11
ATOM     11  C   UNL     1       1.287  10.105  18.423  0.00  0.00    +0.000 C 
BRANCH  11  12
ATOM     12  C   UNL     1      -0.237   9.987  18.569  0.00  0.00    +0.000 C 
ATOM     13  C   UNL     1      -0.748  10.905  19.673  0.00  0.00    +0.000 C 
BRANCH  12  14
ATOM     14  O   UNL     1      -0.873  10.346  17.336  0.00  0.00    +0.000 OA
ATOM     15  H   UNL     1      -0.942   9.546  16.786  0.00  0.00    +0.000 HD
ENDBRANCH  12  14
ENDBRANCH  11  12
ENDBRANCH   9  11
ENDBRANCH   4   7
BRANCH   6  16
ATOM     16  C   UNL     1       5.525   4.822  16.670  0.00  0.00    +0.000 C 
BRANCH  16  17
ATOM     17  S   UNL     1       7.043   4.905  17.623  0.00  0.00    +0.000 S 
ATOM     18  C   UNL     1       7.487   6.625  17.659  0.00  0.00    +0.000 C 
ATOM     19  O   UNL     1       6.700   4.530  18.983  0.00  0.00    +0.000 OA
ATOM     20  O   UNL     1       8.087   4.185  16.913  0.00  0.00    +0.000 OA
ENDBRANCH  16  17
ENDBRANCH   6  16
TORSDOF 6
ENDMDL
