MODEL 1
REMARK VINA RESULT:      -8.3      0.000      0.000
REMARK  Name = 
REMARK  4 active torsions:
REMARK  status: ('A' for Active; 'I' for Inactive)
REMARK    1  A    between atoms: C_2  and  C_13
REMARK    2  A    between atoms: N_3  and  C_4
REMARK    3  A    between atoms: C_7  and  N_8
REMARK    4  A    between atoms: C_24  and  C_25
REMARK                            x       y       z     vdW  Elec       q    Type
REMARK                         _______ _______ _______ _____ _____    ______ ____
ROOT
ATOM      1  C   UNL     1       2.068   6.068  20.040  0.00  0.00    +0.000 A 
ATOM      2  C   UNL     1       1.732   5.029  20.943  0.00  0.00    +0.000 A 
ATOM      3  N   UNL     1       2.244   3.848  20.618  0.00  0.00    +0.000 NA
ATOM      4  N   UNL     1       2.959   4.084  19.493  0.00  0.00    +0.000 N 
ATOM      5  C   UNL     1       2.857   5.437  19.098  0.00  0.00    +0.000 A 
ATOM      6  N   UNL     1       3.540   5.825  17.977  0.00  0.00    +0.000 N 
ATOM      7  C   UNL     1       4.352   4.956  17.247  0.00  0.00    +0.000 C 
ATOM      8  C   UNL     1       5.041   5.299  16.174  0.00  0.00    +0.000 C 
ATOM      9  C   UNL     1       5.943   4.854  15.181  0.00  0.00    +0.000 C 
ATOM     10  C   UNL     1       5.376   6.309  15.252  0.00  0.00    +0.000 C 
ATOM     11  C   UNL     1       4.445   3.576  17.718  0.00  0.00    +0.000 C 
ATOM     12  C   UNL     1       3.752   3.169  18.800  0.00  0.00    +0.000 C 
ATOM     13  H   UNL     1       3.623   6.790  17.678  0.00  0.00    +0.000 HD
ENDROOT
BRANCH   1  15
ATOM     14  O   UNL     1       2.117   8.314  19.533  0.00  0.00    +0.000 OA
ATOM     15  C   UNL     1       1.631   7.438  20.243  0.00  0.00    +0.000 C 
ATOM     16  N   UNL     1       0.728   7.675  21.267  0.00  0.00    +0.000 N 
ATOM     17  H   UNL     1       0.583   6.926  21.928  0.00  0.00    +0.000 HD
BRANCH  16  18
ATOM     18  C   UNL     1       0.194   8.948  21.589  0.00  0.00    +0.000 A 
ATOM     19  C   UNL     1      -0.126   9.330  22.899  0.00  0.00    +0.000 A 
ATOM     20  C   UNL     1      -0.724  10.563  23.175  0.00  0.00    +0.000 A 
ATOM     21  C   UNL     1      -0.989  11.444  22.129  0.00  0.00    +0.000 A 
ATOM     22  C   UNL     1      -0.635  11.105  20.816  0.00  0.00    +0.000 A 
ATOM     23  C   UNL     1      -0.035   9.862  20.552  0.00  0.00    +0.000 A 
BRANCH  21  24
ATOM     24  N   UNL     1      -1.647  12.727  22.415  0.00  0.00    +0.000 N 
ATOM     25  O   UNL     1      -2.652  13.025  21.754  0.00  0.00    +0.000 OA
ATOM     26  O   UNL     1      -1.153  13.439  23.304  0.00  0.00    +0.000 OA
ENDBRANCH  21  24
ENDBRANCH  16  18
ENDBRANCH   1  15
BRANCH  12  27
ATOM     27  C   UNL     1       3.815   1.784  19.343  0.00  0.00    +0.000 C 
ATOM     28  F   UNL     1       3.927   0.878  18.333  0.00  0.00    +0.000 F 
ATOM     29  F   UNL     1       4.931   1.613  20.111  0.00  0.00    +0.000 F 
ENDBRANCH  12  27
TORSDOF 4
ENDMDL
MODEL 2
REMARK VINA RESULT:      -8.1      5.101      9.101
REMARK  Name = 
REMARK  4 active torsions:
REMARK  status: ('A' for Active; 'I' for Inactive)
REMARK    1  A    between atoms: C_2  and  C_13
REMARK    2  A    between atoms: N_3  and  C_4
REMARK    3  A    between atoms: C_7  and  N_8
REMARK    4  A    between atoms: C_24  and  C_25
REMARK                            x       y       z     vdW  Elec       q    Type
REMARK                         _______ _______ _______ _____ _____    ______ ____
ROOT
ATOM      1  C   UNL     1       1.034   9.371  19.460  0.00  0.00    +0.000 A 
ATOM      2  C   UNL     1       1.311  10.148  20.611  0.00  0.00    +0.000 A 
ATOM      3  N   UNL     1       0.562  11.239  20.717  0.00  0.00    +0.000 NA
ATOM      4  N   UNL     1      -0.256  11.196  19.639  0.00  0.00    +0.000 N 
ATOM      5  C   UNL     1       0.021  10.069  18.833  0.00  0.00    +0.000 A 
ATOM      6  N   UNL     1      -0.738   9.891  17.708  0.00  0.00    +0.000 N 
ATOM      7  C   UNL     1      -1.785  10.745  17.358  0.00  0.00    +0.000 C 
ATOM      8  C   UNL     1      -2.551  10.593  16.293  0.00  0.00    +0.000 C 
ATOM      9  C   UNL     1      -3.649  11.109  15.569  0.00  0.00    +0.000 C 
ATOM     10  C   UNL     1      -2.835   9.849  15.132  0.00  0.00    +0.000 C 
ATOM     11  C   UNL     1      -2.046  11.877  18.243  0.00  0.00    +0.000 C 
ATOM     12  C   UNL     1      -1.286  12.086  19.336  0.00  0.00    +0.000 C 
ATOM     13  H   UNL     1      -0.695   9.059  17.130  0.00  0.00    +0.000 HD
ENDROOT
BRANCH   1  15
ATOM     14  O   UNL     1       2.135   7.924  18.045  0.00  0.00    +0.000 OA
ATOM     15  C   UNL     1       1.726   8.123  19.186  0.00  0.00    +0.000 C 
ATOM     16  N   UNL     1       1.833   7.212  20.224  0.00  0.00    +0.000 N 
ATOM     17  H   UNL     1       1.260   7.379  21.038  0.00  0.00    +0.000 HD
BRANCH  16  18
ATOM     18  C   UNL     1       2.486   5.957  20.127  0.00  0.00    +0.000 A 
ATOM     19  C   UNL     1       3.738   5.795  19.517  0.00  0.00    +0.000 A 
ATOM     20  C   UNL     1       4.320   4.532  19.368  0.00  0.00    +0.000 A 
ATOM     21  C   UNL     1       3.654   3.410  19.856  0.00  0.00    +0.000 A 
ATOM     22  C   UNL     1       2.423   3.552  20.514  0.00  0.00    +0.000 A 
ATOM     23  C   UNL     1       1.849   4.826  20.655  0.00  0.00    +0.000 A 
BRANCH  21  24
ATOM     24  N   UNL     1       4.251   2.080  19.672  0.00  0.00    +0.000 N 
ATOM     25  O   UNL     1       5.113   1.712  20.483  0.00  0.00    +0.000 OA
ATOM     26  O   UNL     1       3.855   1.403  18.709  0.00  0.00    +0.000 OA
ENDBRANCH  21  24
ENDBRANCH  16  18
ENDBRANCH   1  15
BRANCH  12  27
ATOM     27  C   UNL     1      -1.509  13.209  20.289  0.00  0.00    +0.000 C 
ATOM     28  F   UNL     1      -1.051  14.380  19.766  0.00  0.00    +0.000 F 
ATOM     29  F   UNL     1      -2.842  13.404  20.507  0.00  0.00    +0.000 F 
ENDBRANCH  12  27
TORSDOF 4
ENDMDL
MODEL 3
REMARK VINA RESULT:      -8.1      1.852      2.121
REMARK  Name = 
REMARK  4 active torsions:
REMARK  status: ('A' for Active; 'I' for Inactive)
REMARK    1  A    between atoms: C_2  and  C_13
REMARK    2  A    between atoms: N_3  and  C_4
REMARK    3  A    between atoms: C_7  and  N_8
REMARK    4  A    between atoms: C_24  and  C_25
REMARK                            x       y       z     vdW  Elec       q    Type
REMARK                         _______ _______ _______ _____ _____    ______ ____
ROOT
ATOM      1  C   UNL     1       2.246   7.029  19.338  0.00  0.00    +0.000 A 
ATOM      2  C   UNL     1       1.789   6.387  20.515  0.00  0.00    +0.000 A 
ATOM      3  N   UNL     1       2.179   5.123  20.625  0.00  0.00    +0.000 NA
ATOM      4  N   UNL     1       2.934   4.903  19.523  0.00  0.00    +0.000 N 
ATOM      5  C   UNL     1       2.980   6.050  18.698  0.00  0.00    +0.000 A 
ATOM      6  N   UNL     1       3.718   5.976  17.548  0.00  0.00    +0.000 N 
ATOM      7  C   UNL     1       4.447   4.842  17.188  0.00  0.00    +0.000 C 
ATOM      8  C   UNL     1       5.186   4.741  16.097  0.00  0.00    +0.000 C 
ATOM      9  C   UNL     1       6.052   3.909  15.354  0.00  0.00    +0.000 C 
ATOM     10  C   UNL     1       5.640   5.350  14.912  0.00  0.00    +0.000 C 
ATOM     11  C   UNL     1       4.387   3.696  18.092  0.00  0.00    +0.000 C 
ATOM     12  C   UNL     1       3.638   3.740  19.211  0.00  0.00    +0.000 C 
ATOM     13  H   UNL     1       3.907   6.774  16.952  0.00  0.00    +0.000 HD
ENDROOT
BRANCH   1  15
ATOM     14  O   UNL     1       2.491   8.946  18.083  0.00  0.00    +0.000 OA
ATOM     15  C   UNL     1       1.952   8.423  19.056  0.00  0.00    +0.000 C 
ATOM     16  N   UNL     1       1.118   9.092  19.937  0.00  0.00    +0.000 N 
ATOM     17  H   UNL     1       0.927   8.636  20.818  0.00  0.00    +0.000 HD
BRANCH  16  18
ATOM     18  C   UNL     1       0.722  10.446  19.800  0.00  0.00    +0.000 A 
ATOM     19  C   UNL     1       1.240  11.475  20.598  0.00  0.00    +0.000 A 
ATOM     20  C   UNL     1       0.772  12.788  20.492  0.00  0.00    +0.000 A 
ATOM     21  C   UNL     1      -0.215  13.089  19.557  0.00  0.00    +0.000 A 
ATOM     22  C   UNL     1      -0.716  12.086  18.713  0.00  0.00    +0.000 A 
ATOM     23  C   UNL     1      -0.238  10.770  18.832  0.00  0.00    +0.000 A 
BRANCH  21  24
ATOM     24  N   UNL     1      -0.730  14.463  19.467  0.00  0.00    +0.000 N 
ATOM     25  O   UNL     1      -0.233  15.214  18.616  0.00  0.00    +0.000 OA
ATOM     26  O   UNL     1      -1.632  14.789  20.254  0.00  0.00    +0.000 OA
ENDBRANCH  21  24
ENDBRANCH  16  18
ENDBRANCH   1  15
BRANCH  12  27
ATOM     27  C   UNL     1       3.547   2.615  20.184  0.00  0.00    +0.000 C 
ATOM     28  F   UNL     1       2.438   1.863  19.943  0.00  0.00    +0.000 F 
ATOM     29  F   UNL     1       4.603   1.763  20.041  0.00  0.00    +0.000 F 
ENDBRANCH  12  27
TORSDOF 4
ENDMDL
MODEL 4
REMARK VINA RESULT:      -8.0      4.198      9.105
REMARK  Name = 
REMARK  4 active torsions:
REMARK  status: ('A' for Active; 'I' for Inactive)
REMARK    1  A    between atoms: C_2  and  C_13
REMARK    2  A    between atoms: N_3  and  C_4
REMARK    3  A    between atoms: C_7  and  N_8
REMARK    4  A    between atoms: C_24  and  C_25
REMARK                            x       y       z     vdW  Elec       q    Type
REMARK                         _______ _______ _______ _____ _____    ______ ____
ROOT
ATOM      1  C   UNL     1       1.815   8.244  19.504  0.00  0.00    +0.000 A 
ATOM      2  C   UNL     1       1.591   7.373  20.599  0.00  0.00    +0.000 A 
ATOM      3  N   UNL     1       0.884   7.915  21.582  0.00  0.00    +0.000 NA
ATOM      4  N   UNL     1       0.597   9.164  21.146  0.00  0.00    +0.000 N 
ATOM      5  C   UNL     1       1.171   9.407  19.879  0.00  0.00    +0.000 A 
ATOM      6  N   UNL     1       0.955  10.632  19.307  0.00  0.00    +0.000 N 
ATOM      7  C   UNL     1       0.167  11.617  19.904  0.00  0.00    +0.000 C 
ATOM      8  C   UNL     1      -0.080  12.802  19.374  0.00  0.00    +0.000 C 
ATOM      9  C   UNL     1      -0.762  14.028  19.538  0.00  0.00    +0.000 C 
ATOM     10  C   UNL     1       0.142  13.693  18.307  0.00  0.00    +0.000 C 
ATOM     11  C   UNL     1      -0.427  11.301  21.201  0.00  0.00    +0.000 C 
ATOM     12  C   UNL     1      -0.196  10.113  21.793  0.00  0.00    +0.000 C 
ATOM     13  H   UNL     1       1.226  10.862  18.358  0.00  0.00    +0.000 HD
ENDROOT
BRANCH   1  15
ATOM     14  O   UNL     1       2.400   8.479  17.289  0.00  0.00    +0.000 OA
ATOM     15  C   UNL     1       2.539   7.822  18.317  0.00  0.00    +0.000 C 
ATOM     16  N   UNL     1       3.301   6.669  18.410  0.00  0.00    +0.000 N 
ATOM     17  H   UNL     1       3.152   6.089  19.223  0.00  0.00    +0.000 HD
BRANCH  16  18
ATOM     18  C   UNL     1       4.075   6.130  17.352  0.00  0.00    +0.000 A 
ATOM     19  C   UNL     1       4.162   4.754  17.097  0.00  0.00    +0.000 A 
ATOM     20  C   UNL     1       4.996   4.248  16.096  0.00  0.00    +0.000 A 
ATOM     21  C   UNL     1       5.742   5.129  15.317  0.00  0.00    +0.000 A 
ATOM     22  C   UNL     1       5.636   6.513  15.521  0.00  0.00    +0.000 A 
ATOM     23  C   UNL     1       4.795   7.008  16.531  0.00  0.00    +0.000 A 
BRANCH  21  24
ATOM     24  N   UNL     1       6.643   4.596  14.285  0.00  0.00    +0.000 N 
ATOM     25  O   UNL     1       6.278   3.591  13.659  0.00  0.00    +0.000 OA
ATOM     26  O   UNL     1       7.721   5.185  14.105  0.00  0.00    +0.000 OA
ENDBRANCH  21  24
ENDBRANCH  16  18
ENDBRANCH   1  15
BRANCH  12  27
ATOM     27  C   UNL     1      -0.783   9.720  23.104  0.00  0.00    +0.000 C 
ATOM     28  F   UNL     1       0.193   9.563  24.039  0.00  0.00    +0.000 F 
ATOM     29  F   UNL     1      -1.596  10.705  23.586  0.00  0.00    +0.000 F 
ENDBRANCH  12  27
TORSDOF 4
ENDMDL
MODEL 5
REMARK VINA RESULT:      -8.0      0.949      1.455
REMARK  Name = 
REMARK  4 active torsions:
REMARK  status: ('A' for Active; 'I' for Inactive)
REMARK    1  A    between atoms: C_2  and  C_13
REMARK    2  A    between atoms: N_3  and  C_4
REMARK    3  A    between atoms: C_7  and  N_8
REMARK    4  A    between atoms: C_24  and  C_25
REMARK                            x       y       z     vdW  Elec       q    Type
REMARK                         _______ _______ _______ _____ _____    ______ ____
ROOT
ATOM      1  C   UNL     1       2.057   6.149  20.099  0.00  0.00    +0.000 A 
ATOM      2  C   UNL     1       1.370   5.032  20.634  0.00  0.00    +0.000 A 
ATOM      3  N   UNL     1       1.959   3.868  20.387  0.00  0.00    +0.000 NA
ATOM      4  N   UNL     1       3.077   4.193  19.696  0.00  0.00    +0.000 N 
ATOM      5  C   UNL     1       3.159   5.588  19.484  0.00  0.00    +0.000 A 
ATOM      6  N   UNL     1       4.248   6.065  18.805  0.00  0.00    +0.000 N 
ATOM      7  C   UNL     1       5.281   5.240  18.358  0.00  0.00    +0.000 C 
ATOM      8  C   UNL     1       6.355   5.667  17.718  0.00  0.00    +0.000 C 
ATOM      9  C   UNL     1       7.583   5.289  17.129  0.00  0.00    +0.000 C 
ATOM     10  C   UNL     1       7.050   6.757  17.161  0.00  0.00    +0.000 C 
ATOM     11  C   UNL     1       5.159   3.810  18.630  0.00  0.00    +0.000 C 
ATOM     12  C   UNL     1       4.078   3.321  19.268  0.00  0.00    +0.000 C 
ATOM     13  H   UNL     1       4.455   7.052  18.702  0.00  0.00    +0.000 HD
ENDROOT
BRANCH   1  15
ATOM     14  O   UNL     1       2.105   8.404  19.629  0.00  0.00    +0.000 OA
ATOM     15  C   UNL     1       1.587   7.510  20.294  0.00  0.00    +0.000 C 
ATOM     16  N   UNL     1       0.617   7.719  21.260  0.00  0.00    +0.000 N 
ATOM     17  H   UNL     1       0.441   6.958  21.900  0.00  0.00    +0.000 HD
BRANCH  16  18
ATOM     18  C   UNL     1       0.045   8.979  21.566  0.00  0.00    +0.000 A 
ATOM     19  C   UNL     1      -0.240   9.943  20.588  0.00  0.00    +0.000 A 
ATOM     20  C   UNL     1      -0.732  11.206  20.929  0.00  0.00    +0.000 A 
ATOM     21  C   UNL     1      -0.967  11.509  22.268  0.00  0.00    +0.000 A 
ATOM     22  C   UNL     1      -0.737  10.546  23.260  0.00  0.00    +0.000 A 
ATOM     23  C   UNL     1      -0.241   9.280  22.904  0.00  0.00    +0.000 A 
BRANCH  21  24
ATOM     24  N   UNL     1      -1.455  12.848  22.630  0.00  0.00    +0.000 N 
ATOM     25  O   UNL     1      -0.890  13.440  23.561  0.00  0.00    +0.000 OA
ATOM     26  O   UNL     1      -2.408  13.306  21.980  0.00  0.00    +0.000 OA
ENDBRANCH  21  24
ENDBRANCH  16  18
ENDBRANCH   1  15
BRANCH  12  27
ATOM     27  C   UNL     1       3.898   1.878  19.592  0.00  0.00    +0.000 C 
ATOM     28  F   UNL     1       3.817   1.137  18.453  0.00  0.00    +0.000 F 
ATOM     29  F   UNL     1       4.983   1.394  20.266  0.00  0.00    +0.000 F 
ENDBRANCH  12  27
TORSDOF 4
ENDMDL
MODEL 6
REMARK VINA RESULT:      -8.0      2.119      2.527
REMARK  Name = 
REMARK  4 active torsions:
REMARK  status: ('A' for Active; 'I' for Inactive)
REMARK    1  A    between atoms: C_2  and  C_13
REMARK    2  A    between atoms: N_3  and  C_4
REMARK    3  A    between atoms: C_7  and  N_8
REMARK    4  A    between atoms: C_24  and  C_25
REMARK                            x       y       z     vdW  Elec       q    Type
REMARK                         _______ _______ _______ _____ _____    ______ ____
ROOT
ATOM      1  C   UNL     1       2.220   6.367  19.765  0.00  0.00    +0.000 A 
ATOM      2  C   UNL     1       1.802   5.408  20.720  0.00  0.00    +0.000 A 
ATOM      3  N   UNL     1       2.222   4.175  20.464  0.00  0.00    +0.000 NA
ATOM      4  N   UNL     1       2.959   4.294  19.335  0.00  0.00    +0.000 N 
ATOM      5  C   UNL     1       2.963   5.627  18.866  0.00  0.00    +0.000 A 
ATOM      6  N   UNL     1       3.679   5.900  17.732  0.00  0.00    +0.000 N 
ATOM      7  C   UNL     1       4.426   4.933  17.057  0.00  0.00    +0.000 C 
ATOM      8  C   UNL     1       5.144   5.163  15.973  0.00  0.00    +0.000 C 
ATOM      9  C   UNL     1       6.014   4.597  15.014  0.00  0.00    +0.000 C 
ATOM     10  C   UNL     1       5.561   6.092  15.001  0.00  0.00    +0.000 C 
ATOM     11  C   UNL     1       4.409   3.577  17.603  0.00  0.00    +0.000 C 
ATOM     12  C   UNL     1       3.682   3.285  18.699  0.00  0.00    +0.000 C 
ATOM     13  H   UNL     1       3.838   6.838  17.382  0.00  0.00    +0.000 HD
ENDROOT
BRANCH   1  15
ATOM     14  O   UNL     1       1.725   8.236  21.018  0.00  0.00    +0.000 OA
ATOM     15  C   UNL     1       1.890   7.776  19.891  0.00  0.00    +0.000 C 
ATOM     16  N   UNL     1       1.729   8.501  18.721  0.00  0.00    +0.000 N 
ATOM     17  H   UNL     1       1.655   7.971  17.865  0.00  0.00    +0.000 HD
BRANCH  16  18
ATOM     18  C   UNL     1       1.420   9.883  18.668  0.00  0.00    +0.000 A 
ATOM     19  C   UNL     1       2.342  10.854  18.253  0.00  0.00    +0.000 A 
ATOM     20  C   UNL     1       2.031  12.217  18.286  0.00  0.00    +0.000 A 
ATOM     21  C   UNL     1       0.771  12.621  18.719  0.00  0.00    +0.000 A 
ATOM     22  C   UNL     1      -0.185  11.666  19.094  0.00  0.00    +0.000 A 
ATOM     23  C   UNL     1       0.140  10.300  19.057  0.00  0.00    +0.000 A 
BRANCH  21  24
ATOM     24  N   UNL     1       0.455  14.055  18.784  0.00  0.00    +0.000 N 
ATOM     25  O   UNL     1      -0.715  14.382  19.026  0.00  0.00    +0.000 OA
ATOM     26  O   UNL     1       1.384  14.856  18.590  0.00  0.00    +0.000 OA
ENDBRANCH  21  24
ENDBRANCH  16  18
ENDBRANCH   1  15
BRANCH  12  27
ATOM     27  C   UNL     1       3.635   1.930  19.316  0.00  0.00    +0.000 C 
ATOM     28  F   UNL     1       3.654   0.965  18.356  0.00  0.00    +0.000 F 
ATOM     29  F   UNL     1       4.744   1.706  20.080  0.00  0.00    +0.000 F 
ENDBRANCH  12  27
TORSDOF 4
ENDMDL
MODEL 7
REMARK VINA RESULT:      -7.9      4.822      9.140
REMARK  Name = 
REMARK  4 active torsions:
REMARK  status: ('A' for Active; 'I' for Inactive)
REMARK    1  A    between atoms: C_2  and  C_13
REMARK    2  A    between atoms: N_3  and  C_4
REMARK    3  A    between atoms: C_7  and  N_8
REMARK    4  A    between atoms: C_24  and  C_25
REMARK                            x       y       z     vdW  Elec       q    Type
REMARK                         _______ _______ _______ _____ _____    ______ ____
ROOT
ATOM      1  C   UNL     1       0.827   9.304  20.312  0.00  0.00    +0.000 A 
ATOM      2  C   UNL     1       1.161   9.926  21.541  0.00  0.00    +0.000 A 
ATOM      3  N   UNL     1       0.420  10.989  21.825  0.00  0.00    +0.000 NA
ATOM      4  N   UNL     1      -0.450  11.083  20.792  0.00  0.00    +0.000 N 
ATOM      5  C   UNL     1      -0.215  10.074  19.833  0.00  0.00    +0.000 A 
ATOM      6  N   UNL     1      -1.029  10.040  18.733  0.00  0.00    +0.000 N 
ATOM      7  C   UNL     1      -2.091  10.927  18.550  0.00  0.00    +0.000 C 
ATOM      8  C   UNL     1      -2.909  10.912  17.513  0.00  0.00    +0.000 C 
ATOM      9  C   UNL     1      -4.041  11.512  16.918  0.00  0.00    +0.000 C 
ATOM     10  C   UNL     1      -3.251  10.325  16.280  0.00  0.00    +0.000 C 
ATOM     11  C   UNL     1      -2.307  11.932  19.588  0.00  0.00    +0.000 C 
ATOM     12  C   UNL     1      -1.493  12.000  20.660  0.00  0.00    +0.000 C 
ATOM     13  H   UNL     1      -1.016   9.291  18.049  0.00  0.00    +0.000 HD
ENDROOT
BRANCH   1  15
ATOM     14  O   UNL     1       2.013   8.127  18.726  0.00  0.00    +0.000 OA
ATOM     15  C   UNL     1       1.503   8.107  19.844  0.00  0.00    +0.000 C 
ATOM     16  N   UNL     1       1.482   6.997  20.671  0.00  0.00    +0.000 N 
ATOM     17  H   UNL     1       0.839   7.021  21.449  0.00  0.00    +0.000 HD
BRANCH  16  18
ATOM     18  C   UNL     1       2.102   5.758  20.371  0.00  0.00    +0.000 A 
ATOM     19  C   UNL     1       1.522   4.520  20.684  0.00  0.00    +0.000 A 
ATOM     20  C   UNL     1       2.194   3.317  20.446  0.00  0.00    +0.000 A 
ATOM     21  C   UNL     1       3.459   3.344  19.864  0.00  0.00    +0.000 A 
ATOM     22  C   UNL     1       4.040   4.567  19.497  0.00  0.00    +0.000 A 
ATOM     23  C   UNL     1       3.355   5.768  19.744  0.00  0.00    +0.000 A 
BRANCH  21  24
ATOM     24  N   UNL     1       4.178   2.082  19.642  0.00  0.00    +0.000 N 
ATOM     25  O   UNL     1       3.816   1.364  18.699  0.00  0.00    +0.000 OA
ATOM     26  O   UNL     1       5.108   1.808  20.418  0.00  0.00    +0.000 OA
ENDBRANCH  21  24
ENDBRANCH  16  18
ENDBRANCH   1  15
BRANCH  12  27
ATOM     27  C   UNL     1      -1.667  12.987  21.762  0.00  0.00    +0.000 C 
ATOM     28  F   UNL     1      -2.486  14.002  21.371  0.00  0.00    +0.000 F 
ATOM     29  F   UNL     1      -2.285  12.413  22.835  0.00  0.00    +0.000 F 
ENDBRANCH  12  27
TORSDOF 4
ENDMDL
MODEL 8
REMARK VINA RESULT:      -7.9      2.424      3.934
REMARK  Name = 
REMARK  4 active torsions:
REMARK  status: ('A' for Active; 'I' for Inactive)
REMARK    1  A    between atoms: C_2  and  C_13
REMARK    2  A    between atoms: N_3  and  C_4
REMARK    3  A    between atoms: C_7  and  N_8
REMARK    4  A    between atoms: C_24  and  C_25
REMARK                            x       y       z     vdW  Elec       q    Type
REMARK                         _______ _______ _______ _____ _____    ______ ____
ROOT
ATOM      1  C   UNL     1       1.490   8.625  19.576  0.00  0.00    +0.000 A 
ATOM      2  C   UNL     1       2.014   9.325  18.462  0.00  0.00    +0.000 A 
ATOM      3  N   UNL     1       2.901   8.631  17.759  0.00  0.00    +0.000 NA
ATOM      4  N   UNL     1       2.967   7.431  18.384  0.00  0.00    +0.000 N 
ATOM      5  C   UNL     1       2.126   7.400  19.519  0.00  0.00    +0.000 A 
ATOM      6  N   UNL     1       2.083   6.242  20.247  0.00  0.00    +0.000 N 
ATOM      7  C   UNL     1       2.797   5.097  19.890  0.00  0.00    +0.000 C 
ATOM      8  C   UNL     1       2.765   3.957  20.555  0.00  0.00    +0.000 C 
ATOM      9  C   UNL     1       3.234   2.624  20.600  0.00  0.00    +0.000 C 
ATOM     10  C   UNL     1       2.273   3.244  21.666  0.00  0.00    +0.000 C 
ATOM     11  C   UNL     1       3.628   5.176  18.691  0.00  0.00    +0.000 C 
ATOM     12  C   UNL     1       3.708   6.320  17.982  0.00  0.00    +0.000 C 
ATOM     13  H   UNL     1       1.429   6.081  21.004  0.00  0.00    +0.000 HD
ENDROOT
BRANCH   1  15
ATOM     14  O   UNL     1      -0.056   8.477  21.278  0.00  0.00    +0.000 OA
ATOM     15  C   UNL     1       0.482   9.204  20.447  0.00  0.00    +0.000 C 
ATOM     16  N   UNL     1       0.152  10.535  20.246  0.00  0.00    +0.000 N 
ATOM     17  H   UNL     1       0.481  10.961  19.391  0.00  0.00    +0.000 HD
BRANCH  16  18
ATOM     18  C   UNL     1      -0.799  11.253  21.013  0.00  0.00    +0.000 A 
ATOM     19  C   UNL     1      -0.790  11.268  22.415  0.00  0.00    +0.000 A 
ATOM     20  C   UNL     1      -1.788  11.922  23.145  0.00  0.00    +0.000 A 
ATOM     21  C   UNL     1      -2.802  12.593  22.467  0.00  0.00    +0.000 A 
ATOM     22  C   UNL     1      -2.807  12.633  21.065  0.00  0.00    +0.000 A 
ATOM     23  C   UNL     1      -1.799  11.971  20.344  0.00  0.00    +0.000 A 
BRANCH  21  24
ATOM     24  N   UNL     1      -3.869  13.253  23.233  0.00  0.00    +0.000 N 
ATOM     25  O   UNL     1      -4.814  12.557  23.632  0.00  0.00    +0.000 OA
ATOM     26  O   UNL     1      -3.760  14.473  23.433  0.00  0.00    +0.000 OA
ENDBRANCH  21  24
ENDBRANCH  16  18
ENDBRANCH   1  15
BRANCH  12  27
ATOM     27  C   UNL     1       4.521   6.463  16.743  0.00  0.00    +0.000 C 
ATOM     28  F   UNL     1       5.722   7.040  17.022  0.00  0.00    +0.000 F 
ATOM     29  F   UNL     1       4.818   5.241  16.213  0.00  0.00    +0.000 F 
ENDBRANCH  12  27
TORSDOF 4
ENDMDL
MODEL 9
REMARK VINA RESULT:      -7.9      5.173      9.288
REMARK  Name = 
REMARK  4 active torsions:
REMARK  status: ('A' for Active; 'I' for Inactive)
REMARK    1  A    between atoms: C_2  and  C_13
REMARK    2  A    between atoms: N_3  and  C_4
REMARK    3  A    between atoms: C_7  and  N_8
REMARK    4  A    between atoms: C_24  and  C_25
REMARK                            x       y       z     vdW  Elec       q    Type
REMARK                         _______ _______ _______ _____ _____    ______ ____
ROOT
ATOM      1  C   UNL     1       0.545   9.710  19.916  0.00  0.00    +0.000 A 
ATOM      2  C   UNL     1       0.531  10.441  21.129  0.00  0.00    +0.000 A 
ATOM      3  N   UNL     1      -0.402  11.384  21.178  0.00  0.00    +0.000 NA
ATOM      4  N   UNL     1      -1.053  11.282  19.995  0.00  0.00    +0.000 N 
ATOM      5  C   UNL     1      -0.483  10.274  19.185  0.00  0.00    +0.000 A 
ATOM      6  N   UNL     1      -1.047  10.050  17.958  0.00  0.00    +0.000 N 
ATOM      7  C   UNL     1      -2.170  10.743  17.504  0.00  0.00    +0.000 C 
ATOM      8  C   UNL     1      -2.754  10.541  16.336  0.00  0.00    +0.000 C 
ATOM      9  C   UNL     1      -3.820  10.918  15.490  0.00  0.00    +0.000 C 
ATOM     10  C   UNL     1      -2.752   9.841  15.115  0.00  0.00    +0.000 C 
ATOM     11  C   UNL     1      -2.736  11.753  18.395  0.00  0.00    +0.000 C 
ATOM     12  C   UNL     1      -2.172  12.009  19.592  0.00  0.00    +0.000 C 
ATOM     13  H   UNL     1      -0.787   9.279  17.355  0.00  0.00    +0.000 HD
ENDROOT
BRANCH   1  15
ATOM     14  O   UNL     1       1.870   7.978  20.657  0.00  0.00    +0.000 OA
ATOM     15  C   UNL     1       1.470   8.615  19.685  0.00  0.00    +0.000 C 
ATOM     16  N   UNL     1       1.885   8.392  18.382  0.00  0.00    +0.000 N 
ATOM     17  H   UNL     1       1.680   9.117  17.710  0.00  0.00    +0.000 HD
BRANCH  16  18
ATOM     18  C   UNL     1       2.772   7.361  17.986  0.00  0.00    +0.000 A 
ATOM     19  C   UNL     1       2.479   5.999  18.150  0.00  0.00    +0.000 A 
ATOM     20  C   UNL     1       3.408   5.007  17.821  0.00  0.00    +0.000 A 
ATOM     21  C   UNL     1       4.645   5.375  17.297  0.00  0.00    +0.000 A 
ATOM     22  C   UNL     1       4.944   6.728  17.079  0.00  0.00    +0.000 A 
ATOM     23  C   UNL     1       4.002   7.715  17.415  0.00  0.00    +0.000 A 
BRANCH  21  24
ATOM     24  N   UNL     1       5.634   4.334  16.981  0.00  0.00    +0.000 N 
ATOM     25  O   UNL     1       6.725   4.373  17.565  0.00  0.00    +0.000 OA
ATOM     26  O   UNL     1       5.314   3.477  16.141  0.00  0.00    +0.000 OA
ENDBRANCH  21  24
ENDBRANCH  16  18
ENDBRANCH   1  15
BRANCH  12  27
ATOM     27  C   UNL     1      -2.707  13.012  20.555  0.00  0.00    +0.000 C 
ATOM     28  F   UNL     1      -2.116  14.223  20.363  0.00  0.00    +0.000 F 
ATOM     29  F   UNL     1      -4.040  13.221  20.347  0.00  0.00    +0.000 F 
ENDBRANCH  12  27
TORSDOF 4
ENDMDL
