MODEL 1
REMARK VINA RESULT:      -7.7      0.000      0.000
REMARK  Name = 
REMARK  7 active torsions:
REMARK  status: ('A' for Active; 'I' for Inactive)
REMARK    1  A    between atoms: C_1  and  C_2
REMARK    2  A    between atoms: C_2  and  O_3
REMARK    3  A    between atoms: O_3  and  C_4
REMARK    4  A    between atoms: C_7  and  C_8
REMARK    5  A    between atoms: N_10  and  C_11
REMARK    6  A    between atoms: C_14  and  N_15
REMARK    7  A    between atoms: N_18  and  C_19
REMARK                            x       y       z     vdW  Elec       q    Type
REMARK                         _______ _______ _______ _____ _____    ______ ____
ROOT
ATOM      1  C   UNL     1       2.511   7.926  18.334  0.00  0.00    +0.000 C 
ATOM      2  O   UNL     1       2.435   8.922  17.621  0.00  0.00    +0.000 OA
ATOM      3  N   UNL     1       1.999   7.779  19.609  0.00  0.00    +0.000 N 
ATOM      4  H   UNL     1       2.275   6.968  20.146  0.00  0.00    +0.000 HD
ENDROOT
BRANCH   1   8
ATOM      5  C   UNL     1       4.880   4.789  16.622  0.00  0.00    +0.000 A 
ATOM      6  C   UNL     1       5.177   6.142  16.424  0.00  0.00    +0.000 A 
ATOM      7  C   UNL     1       4.400   7.135  17.010  0.00  0.00    +0.000 A 
ATOM      8  C   UNL     1       3.306   6.796  17.806  0.00  0.00    +0.000 A 
ATOM      9  C   UNL     1       2.977   5.452  18.012  0.00  0.00    +0.000 A 
ATOM     10  C   UNL     1       3.768   4.457  17.417  0.00  0.00    +0.000 A 
ATOM     11 BR   UNL     1       3.270   2.645  17.714  0.00  0.00    +0.000 Br
BRANCH   5  12
ATOM     12  O   UNL     1       5.623   3.770  16.071  0.00  0.00    +0.000 OA
BRANCH  12  14
ATOM     13  C   UNL     1       5.953   3.872  13.676  0.00  0.00    +0.000 C 
ATOM     14  C   UNL     1       6.539   4.159  15.043  0.00  0.00    +0.000 C 
ENDBRANCH  12  14
ENDBRANCH   5  12
ENDBRANCH   1   8
BRANCH   3  15
ATOM     15  C   UNL     1       1.242   8.757  20.289  0.00  0.00    +0.000 A 
ATOM     16  C   UNL     1       1.102   8.785  21.674  0.00  0.00    +0.000 A 
ATOM     17  C   UNL     1       0.354   9.781  22.301  0.00  0.00    +0.000 A 
ATOM     18  C   UNL     1      -0.281  10.797  21.579  0.00  0.00    +0.000 A 
ATOM     19  C   UNL     1      -0.141  10.750  20.185  0.00  0.00    +0.000 A 
ATOM     20  C   UNL     1       0.613   9.754  19.543  0.00  0.00    +0.000 A 
BRANCH  18  21
ATOM     21  N   UNL     1      -0.944  11.813  22.230  0.00  0.00    +0.000 N 
ATOM     22  C   UNL     1      -1.957  11.557  23.260  0.00  0.00    +0.000 C 
ATOM     23  C   UNL     1      -3.137  12.542  23.082  0.00  0.00    +0.000 C 
ATOM     24  N   UNL     1      -2.715  13.961  23.078  0.00  0.00    +0.000 NA
ATOM     25  C   UNL     1      -3.863  14.835  22.863  0.00  0.00    +0.000 C 
ATOM     26  C   UNL     1      -1.701  14.159  22.014  0.00  0.00    +0.000 C 
ATOM     27  C   UNL     1      -0.487  13.214  22.170  0.00  0.00    +0.000 C 
ENDBRANCH  18  21
ENDBRANCH   3  15
TORSDOF 5
ENDMDL
MODEL 2
REMARK VINA RESULT:      -7.6      2.223      3.020
REMARK  Name = 
REMARK  7 active torsions:
REMARK  status: ('A' for Active; 'I' for Inactive)
REMARK    1  A    between atoms: C_1  and  C_2
REMARK    2  A    between atoms: C_2  and  O_3
REMARK    3  A    between atoms: O_3  and  C_4
REMARK    4  A    between atoms: C_7  and  C_8
REMARK    5  A    between atoms: N_10  and  C_11
REMARK    6  A    between atoms: C_14  and  N_15
REMARK    7  A    between atoms: N_18  and  C_19
REMARK                            x       y       z     vdW  Elec       q    Type
REMARK                         _______ _______ _______ _____ _____    ______ ____
ROOT
ATOM      1  C   UNL     1       1.776   7.826  19.978  0.00  0.00    +0.000 C 
ATOM      2  O   UNL     1       1.750   8.586  19.015  0.00  0.00    +0.000 OA
ATOM      3  N   UNL     1       1.313   8.089  21.252  0.00  0.00    +0.000 N 
ATOM      4  H   UNL     1       1.545   7.438  21.991  0.00  0.00    +0.000 HD
ENDROOT
BRANCH   1   8
ATOM      5  C   UNL     1       3.671   3.998  19.609  0.00  0.00    +0.000 A 
ATOM      6  C   UNL     1       2.587   4.214  20.466  0.00  0.00    +0.000 A 
ATOM      7  C   UNL     1       1.982   5.464  20.548  0.00  0.00    +0.000 A 
ATOM      8  C   UNL     1       2.451   6.525  19.774  0.00  0.00    +0.000 A 
ATOM      9  C   UNL     1       3.541   6.342  18.918  0.00  0.00    +0.000 A 
ATOM     10  C   UNL     1       4.145   5.077  18.842  0.00  0.00    +0.000 A 
ATOM     11 BR   UNL     1       5.634   4.883  17.674  0.00  0.00    +0.000 Br
BRANCH   5  12
ATOM     12  O   UNL     1       4.298   2.778  19.487  0.00  0.00    +0.000 OA
BRANCH  12  14
ATOM     13  C   UNL     1       2.879   2.044  17.670  0.00  0.00    +0.000 C 
ATOM     14  C   UNL     1       3.475   1.705  19.020  0.00  0.00    +0.000 C 
ENDBRANCH  12  14
ENDBRANCH   5  12
ENDBRANCH   1   8
BRANCH   3  15
ATOM     15  C   UNL     1       0.671   9.284  21.644  0.00  0.00    +0.000 A 
ATOM     16  C   UNL     1       0.860  10.499  20.991  0.00  0.00    +0.000 A 
ATOM     17  C   UNL     1       0.192  11.651  21.408  0.00  0.00    +0.000 A 
ATOM     18  C   UNL     1      -0.698  11.642  22.486  0.00  0.00    +0.000 A 
ATOM     19  C   UNL     1      -0.870  10.415  23.141  0.00  0.00    +0.000 A 
ATOM     20  C   UNL     1      -0.206   9.248  22.728  0.00  0.00    +0.000 A 
BRANCH  18  21
ATOM     21  N   UNL     1      -1.405  12.775  22.823  0.00  0.00    +0.000 N 
ATOM     22  C   UNL     1      -0.786  14.105  22.859  0.00  0.00    +0.000 C 
ATOM     23  C   UNL     1      -1.308  14.886  24.089  0.00  0.00    +0.000 C 
ATOM     24  N   UNL     1      -2.785  14.973  24.139  0.00  0.00    +0.000 NA
ATOM     25  C   UNL     1      -3.215  15.680  25.341  0.00  0.00    +0.000 C 
ATOM     26  C   UNL     1      -3.350  13.602  24.109  0.00  0.00    +0.000 C 
ATOM     27  C   UNL     1      -2.878  12.794  22.878  0.00  0.00    +0.000 C 
ENDBRANCH  18  21
ENDBRANCH   3  15
TORSDOF 5
ENDMDL
MODEL 3
REMARK VINA RESULT:      -7.6      0.865      1.277
REMARK  Name = 
REMARK  7 active torsions:
REMARK  status: ('A' for Active; 'I' for Inactive)
REMARK    1  A    between atoms: C_1  and  C_2
REMARK    2  A    between atoms: C_2  and  O_3
REMARK    3  A    between atoms: O_3  and  C_4
REMARK    4  A    between atoms: C_7  and  C_8
REMARK    5  A    between atoms: N_10  and  C_11
REMARK    6  A    between atoms: C_14  and  N_15
REMARK    7  A    between atoms: N_18  and  C_19
REMARK                            x       y       z     vdW  Elec       q    Type
REMARK                         _______ _______ _______ _____ _____    ______ ____
ROOT
ATOM      1  C   UNL     1       2.247   7.883  18.238  0.00  0.00    +0.000 C 
ATOM      2  O   UNL     1       1.793   8.563  17.324  0.00  0.00    +0.000 OA
ATOM      3  N   UNL     1       2.017   8.053  19.590  0.00  0.00    +0.000 N 
ATOM      4  H   UNL     1       2.584   7.527  20.243  0.00  0.00    +0.000 HD
ENDROOT
BRANCH   1   8
ATOM      5  C   UNL     1       5.118   4.961  16.971  0.00  0.00    +0.000 A 
ATOM      6  C   UNL     1       5.344   6.335  16.838  0.00  0.00    +0.000 A 
ATOM      7  C   UNL     1       4.400   7.258  17.277  0.00  0.00    +0.000 A 
ATOM      8  C   UNL     1       3.208   6.825  17.858  0.00  0.00    +0.000 A 
ATOM      9  C   UNL     1       2.950   5.457  17.993  0.00  0.00    +0.000 A 
ATOM     10  C   UNL     1       3.909   4.533  17.548  0.00  0.00    +0.000 A 
ATOM     11 BR   UNL     1       3.503   2.685  17.739  0.00  0.00    +0.000 Br
BRANCH   5  12
ATOM     12  O   UNL     1       6.024   4.010  16.560  0.00  0.00    +0.000 OA
BRANCH  12  14
ATOM     13  C   UNL     1       6.033   3.876  14.144  0.00  0.00    +0.000 C 
ATOM     14  C   UNL     1       6.771   4.336  15.384  0.00  0.00    +0.000 C 
ENDBRANCH  12  14
ENDBRANCH   5  12
ENDBRANCH   1   8
BRANCH   3  15
ATOM     15  C   UNL     1       1.159   9.027  20.143  0.00  0.00    +0.000 A 
ATOM     16  C   UNL     1       0.966  10.283  19.574  0.00  0.00    +0.000 A 
ATOM     17  C   UNL     1       0.096  11.207  20.153  0.00  0.00    +0.000 A 
ATOM     18  C   UNL     1      -0.626  10.920  21.315  0.00  0.00    +0.000 A 
ATOM     19  C   UNL     1      -0.414   9.656  21.882  0.00  0.00    +0.000 A 
ATOM     20  C   UNL     1       0.457   8.715  21.307  0.00  0.00    +0.000 A 
BRANCH  18  21
ATOM     21  N   UNL     1      -1.539  11.821  21.816  0.00  0.00    +0.000 N 
ATOM     22  C   UNL     1      -1.716  12.041  23.256  0.00  0.00    +0.000 C 
ATOM     23  C   UNL     1      -3.223  12.186  23.577  0.00  0.00    +0.000 C 
ATOM     24  N   UNL     1      -3.889  13.242  22.781  0.00  0.00    +0.000 NA
ATOM     25  C   UNL     1      -5.312  13.298  23.096  0.00  0.00    +0.000 C 
ATOM     26  C   UNL     1      -3.683  12.960  21.339  0.00  0.00    +0.000 C 
ATOM     27  C   UNL     1      -2.188  12.837  20.967  0.00  0.00    +0.000 C 
ENDBRANCH  18  21
ENDBRANCH   3  15
TORSDOF 5
ENDMDL
MODEL 4
REMARK VINA RESULT:      -7.5      0.838      1.526
REMARK  Name = 
REMARK  7 active torsions:
REMARK  status: ('A' for Active; 'I' for Inactive)
REMARK    1  A    between atoms: C_1  and  C_2
REMARK    2  A    between atoms: C_2  and  O_3
REMARK    3  A    between atoms: O_3  and  C_4
REMARK    4  A    between atoms: C_7  and  C_8
REMARK    5  A    between atoms: N_10  and  C_11
REMARK    6  A    between atoms: C_14  and  N_15
REMARK    7  A    between atoms: N_18  and  C_19
REMARK                            x       y       z     vdW  Elec       q    Type
REMARK                         _______ _______ _______ _____ _____    ______ ____
ROOT
ATOM      1  C   UNL     1       2.152   8.125  18.360  0.00  0.00    +0.000 C 
ATOM      2  O   UNL     1       1.963   8.977  17.498  0.00  0.00    +0.000 OA
ATOM      3  N   UNL     1       1.790   8.201  19.692  0.00  0.00    +0.000 N 
ATOM      4  H   UNL     1       2.152   7.502  20.327  0.00  0.00    +0.000 HD
ENDROOT
BRANCH   1   8
ATOM      5  C   UNL     1       4.500   4.799  17.018  0.00  0.00    +0.000 A 
ATOM      6  C   UNL     1       4.972   6.115  16.965  0.00  0.00    +0.000 A 
ATOM      7  C   UNL     1       4.192   7.170  17.427  0.00  0.00    +0.000 A 
ATOM      8  C   UNL     1       2.922   6.931  17.951  0.00  0.00    +0.000 A 
ATOM      9  C   UNL     1       2.419   5.627  18.004  0.00  0.00    +0.000 A 
ATOM     10  C   UNL     1       3.214   4.568  17.537  0.00  0.00    +0.000 A 
ATOM     11 BR   UNL     1       2.478   2.816  17.617  0.00  0.00    +0.000 Br
BRANCH   5  12
ATOM     12  O   UNL     1       5.237   3.721  16.581  0.00  0.00    +0.000 OA
BRANCH  12  14
ATOM     13  C   UNL     1       5.731   4.054  14.236  0.00  0.00    +0.000 C 
ATOM     14  C   UNL     1       6.279   4.022  15.647  0.00  0.00    +0.000 C 
ENDBRANCH  12  14
ENDBRANCH   5  12
ENDBRANCH   1   8
BRANCH   3  15
ATOM     15  C   UNL     1       1.080   9.273  20.272  0.00  0.00    +0.000 A 
ATOM     16  C   UNL     1       0.835  10.472  19.607  0.00  0.00    +0.000 A 
ATOM     17  C   UNL     1       0.116  11.499  20.220  0.00  0.00    +0.000 A 
ATOM     18  C   UNL     1      -0.397  11.376  21.515  0.00  0.00    +0.000 A 
ATOM     19  C   UNL     1      -0.132  10.168  22.176  0.00  0.00    +0.000 A 
ATOM     20  C   UNL     1       0.587   9.125  21.568  0.00  0.00    +0.000 A 
BRANCH  18  21
ATOM     21  N   UNL     1      -1.172  12.373  22.062  0.00  0.00    +0.000 N 
ATOM     22  C   UNL     1      -0.646  13.715  22.338  0.00  0.00    +0.000 C 
ATOM     23  C   UNL     1      -1.193  14.217  23.696  0.00  0.00    +0.000 C 
ATOM     24  N   UNL     1      -2.671  14.187  23.775  0.00  0.00    +0.000 NA
ATOM     25  C   UNL     1      -3.122  14.627  25.091  0.00  0.00    +0.000 C 
ATOM     26  C   UNL     1      -3.141  12.808  23.497  0.00  0.00    +0.000 C 
ATOM     27  C   UNL     1      -2.642  12.276  22.133  0.00  0.00    +0.000 C 
ENDBRANCH  18  21
ENDBRANCH   3  15
TORSDOF 5
ENDMDL
MODEL 5
REMARK VINA RESULT:      -7.5      2.051      2.703
REMARK  Name = 
REMARK  7 active torsions:
REMARK  status: ('A' for Active; 'I' for Inactive)
REMARK    1  A    between atoms: C_1  and  C_2
REMARK    2  A    between atoms: C_2  and  O_3
REMARK    3  A    between atoms: O_3  and  C_4
REMARK    4  A    between atoms: C_7  and  C_8
REMARK    5  A    between atoms: N_10  and  C_11
REMARK    6  A    between atoms: C_14  and  N_15
REMARK    7  A    between atoms: N_18  and  C_19
REMARK                            x       y       z     vdW  Elec       q    Type
REMARK                         _______ _______ _______ _____ _____    ______ ____
ROOT
ATOM      1  C   UNL     1       1.605   8.159  19.776  0.00  0.00    +0.000 C 
ATOM      2  O   UNL     1       1.447   8.952  18.854  0.00  0.00    +0.000 OA
ATOM      3  N   UNL     1       1.233   8.338  21.095  0.00  0.00    +0.000 N 
ATOM      4  H   UNL     1       1.570   7.677  21.783  0.00  0.00    +0.000 HD
ENDROOT
BRANCH   1   8
ATOM      5  C   UNL     1       3.764   4.519  19.093  0.00  0.00    +0.000 A 
ATOM      6  C   UNL     1       2.935   4.697  20.206  0.00  0.00    +0.000 A 
ATOM      7  C   UNL     1       2.233   5.883  20.388  0.00  0.00    +0.000 A 
ATOM      8  C   UNL     1       2.347   6.919  19.461  0.00  0.00    +0.000 A 
ATOM      9  C   UNL     1       3.178   6.774  18.345  0.00  0.00    +0.000 A 
ATOM     10  C   UNL     1       3.882   5.573  18.169  0.00  0.00    +0.000 A 
ATOM     11 BR   UNL     1       5.011   5.431  16.645  0.00  0.00    +0.000 Br
BRANCH   5  12
ATOM     12  O   UNL     1       4.473   3.361  18.864  0.00  0.00    +0.000 OA
BRANCH  12  14
ATOM     13  C   UNL     1       2.707   2.142  17.745  0.00  0.00    +0.000 C 
ATOM     14  C   UNL     1       3.706   2.153  18.883  0.00  0.00    +0.000 C 
ENDBRANCH  12  14
ENDBRANCH   5  12
ENDBRANCH   1   8
BRANCH   3  15
ATOM     15  C   UNL     1       0.547   9.467  21.591  0.00  0.00    +0.000 A 
ATOM     16  C   UNL     1       0.692  10.743  21.051  0.00  0.00    +0.000 A 
ATOM     17  C   UNL     1      -0.019  11.826  21.569  0.00  0.00    +0.000 A 
ATOM     18  C   UNL     1      -0.910  11.687  22.638  0.00  0.00    +0.000 A 
ATOM     19  C   UNL     1      -1.037  10.399  23.177  0.00  0.00    +0.000 A 
ATOM     20  C   UNL     1      -0.329   9.300  22.663  0.00  0.00    +0.000 A 
BRANCH  18  21
ATOM     21  N   UNL     1      -1.659  12.757  23.073  0.00  0.00    +0.000 N 
ATOM     22  C   UNL     1      -3.026  12.603  23.584  0.00  0.00    +0.000 C 
ATOM     23  C   UNL     1      -3.910  13.757  23.055  0.00  0.00    +0.000 C 
ATOM     24  N   UNL     1      -3.364  15.098  23.364  0.00  0.00    +0.000 NA
ATOM     25  C   UNL     1      -4.216  16.140  22.801  0.00  0.00    +0.000 C 
ATOM     26  C   UNL     1      -1.989  15.196  22.816  0.00  0.00    +0.000 C 
ATOM     27  C   UNL     1      -1.060  14.077  23.342  0.00  0.00    +0.000 C 
ENDBRANCH  18  21
ENDBRANCH   3  15
TORSDOF 5
ENDMDL
MODEL 6
REMARK VINA RESULT:      -7.5      2.032      2.469
REMARK  Name = 
REMARK  7 active torsions:
REMARK  status: ('A' for Active; 'I' for Inactive)
REMARK    1  A    between atoms: C_1  and  C_2
REMARK    2  A    between atoms: C_2  and  O_3
REMARK    3  A    between atoms: O_3  and  C_4
REMARK    4  A    between atoms: C_7  and  C_8
REMARK    5  A    between atoms: N_10  and  C_11
REMARK    6  A    between atoms: C_14  and  N_15
REMARK    7  A    between atoms: N_18  and  C_19
REMARK                            x       y       z     vdW  Elec       q    Type
REMARK                         _______ _______ _______ _____ _____    ______ ____
ROOT
ATOM      1  C   UNL     1       2.429   7.734  18.586  0.00  0.00    +0.000 C 
ATOM      2  O   UNL     1       2.082   7.602  19.755  0.00  0.00    +0.000 OA
ATOM      3  N   UNL     1       2.117   8.783  17.742  0.00  0.00    +0.000 N 
ATOM      4  H   UNL     1       2.328   8.685  16.758  0.00  0.00    +0.000 HD
ENDROOT
BRANCH   1   8
ATOM      5  C   UNL     1       4.702   4.628  16.696  0.00  0.00    +0.000 A 
ATOM      6  C   UNL     1       5.046   5.979  16.583  0.00  0.00    +0.000 A 
ATOM      7  C   UNL     1       4.299   6.961  17.225  0.00  0.00    +0.000 A 
ATOM      8  C   UNL     1       3.189   6.611  17.993  0.00  0.00    +0.000 A 
ATOM      9  C   UNL     1       2.813   5.269  18.114  0.00  0.00    +0.000 A 
ATOM     10  C   UNL     1       3.574   4.286  17.463  0.00  0.00    +0.000 A 
ATOM     11 BR   UNL     1       3.012   2.478  17.646  0.00  0.00    +0.000 Br
BRANCH   5  12
ATOM     12  O   UNL     1       5.414   3.620  16.087  0.00  0.00    +0.000 OA
BRANCH  12  14
ATOM     13  C   UNL     1       5.809   3.909  13.717  0.00  0.00    +0.000 C 
ATOM     14  C   UNL     1       6.375   4.042  15.115  0.00  0.00    +0.000 C 
ENDBRANCH  12  14
ENDBRANCH   5  12
ENDBRANCH   1   8
BRANCH   3  15
ATOM     15  C   UNL     1       1.376   9.923  18.118  0.00  0.00    +0.000 A 
ATOM     16  C   UNL     1      -0.004   9.908  18.303  0.00  0.00    +0.000 A 
ATOM     17  C   UNL     1      -0.690  11.060  18.688  0.00  0.00    +0.000 A 
ATOM     18  C   UNL     1      -0.034  12.274  18.914  0.00  0.00    +0.000 A 
ATOM     19  C   UNL     1       1.354  12.277  18.714  0.00  0.00    +0.000 A 
ATOM     20  C   UNL     1       2.056  11.122  18.330  0.00  0.00    +0.000 A 
BRANCH  18  21
ATOM     21  N   UNL     1      -0.725  13.372  19.373  0.00  0.00    +0.000 N 
ATOM     22  C   UNL     1      -0.340  14.745  19.026  0.00  0.00    +0.000 C 
ATOM     23  C   UNL     1      -0.481  15.654  20.270  0.00  0.00    +0.000 C 
ATOM     24  N   UNL     1      -1.831  15.607  20.875  0.00  0.00    +0.000 NA
ATOM     25  C   UNL     1      -1.887  16.447  22.067  0.00  0.00    +0.000 C 
ATOM     26  C   UNL     1      -2.159  14.200  21.212  0.00  0.00    +0.000 C 
ATOM     27  C   UNL     1      -2.060  13.259  19.989  0.00  0.00    +0.000 C 
ENDBRANCH  18  21
ENDBRANCH   3  15
TORSDOF 5
ENDMDL
MODEL 7
REMARK VINA RESULT:      -7.5      2.174      2.953
REMARK  Name = 
REMARK  7 active torsions:
REMARK  status: ('A' for Active; 'I' for Inactive)
REMARK    1  A    between atoms: C_1  and  C_2
REMARK    2  A    between atoms: C_2  and  O_3
REMARK    3  A    between atoms: O_3  and  C_4
REMARK    4  A    between atoms: C_7  and  C_8
REMARK    5  A    between atoms: N_10  and  C_11
REMARK    6  A    between atoms: C_14  and  N_15
REMARK    7  A    between atoms: N_18  and  C_19
REMARK                            x       y       z     vdW  Elec       q    Type
REMARK                         _______ _______ _______ _____ _____    ______ ____
ROOT
ATOM      1  C   UNL     1       1.498   8.075  20.062  0.00  0.00    +0.000 C 
ATOM      2  O   UNL     1       1.796   8.936  19.241  0.00  0.00    +0.000 OA
ATOM      3  N   UNL     1       0.668   8.225  21.156  0.00  0.00    +0.000 N 
ATOM      4  H   UNL     1       0.640   7.483  21.842  0.00  0.00    +0.000 HD
ENDROOT
BRANCH   1   8
ATOM      5  C   UNL     1       3.454   4.318  19.397  0.00  0.00    +0.000 A 
ATOM      6  C   UNL     1       3.714   5.444  18.609  0.00  0.00    +0.000 A 
ATOM      7  C   UNL     1       3.077   6.654  18.863  0.00  0.00    +0.000 A 
ATOM      8  C   UNL     1       2.164   6.762  19.912  0.00  0.00    +0.000 A 
ATOM      9  C   UNL     1       1.874   5.650  20.709  0.00  0.00    +0.000 A 
ATOM     10  C   UNL     1       2.523   4.433  20.445  0.00  0.00    +0.000 A 
ATOM     11 BR   UNL     1       2.083   2.946  21.546  0.00  0.00    +0.000 Br
BRANCH   5  12
ATOM     12  O   UNL     1       4.065   3.101  19.190  0.00  0.00    +0.000 OA
BRANCH  12  14
ATOM     13  C   UNL     1       2.389   2.160  17.720  0.00  0.00    +0.000 C 
ATOM     14  C   UNL     1       3.850   2.513  17.903  0.00  0.00    +0.000 C 
ENDBRANCH  12  14
ENDBRANCH   5  12
ENDBRANCH   1   8
BRANCH   3  15
ATOM     15  C   UNL     1      -0.028   9.410  21.480  0.00  0.00    +0.000 A 
ATOM     16  C   UNL     1      -0.406  10.354  20.530  0.00  0.00    +0.000 A 
ATOM     17  C   UNL     1      -1.105  11.504  20.899  0.00  0.00    +0.000 A 
ATOM     18  C   UNL     1      -1.464  11.760  22.225  0.00  0.00    +0.000 A 
ATOM     19  C   UNL     1      -1.067  10.806  23.172  0.00  0.00    +0.000 A 
ATOM     20  C   UNL     1      -0.366   9.643  22.812  0.00  0.00    +0.000 A 
BRANCH  18  21
ATOM     21  N   UNL     1      -2.225  12.861  22.548  0.00  0.00    +0.000 N 
ATOM     22  C   UNL     1      -1.839  14.224  22.162  0.00  0.00    +0.000 C 
ATOM     23  C   UNL     1      -2.129  15.195  23.330  0.00  0.00    +0.000 C 
ATOM     24  N   UNL     1      -3.533  15.142  23.797  0.00  0.00    +0.000 NA
ATOM     25  C   UNL     1      -3.731  16.045  24.926  0.00  0.00    +0.000 C 
ATOM     26  C   UNL     1      -3.860  13.747  24.180  0.00  0.00    +0.000 C 
ATOM     27  C   UNL     1      -3.613  12.743  23.030  0.00  0.00    +0.000 C 
ENDBRANCH  18  21
ENDBRANCH   3  15
TORSDOF 5
ENDMDL
MODEL 8
REMARK VINA RESULT:      -7.4      1.763      2.291
REMARK  Name = 
REMARK  7 active torsions:
REMARK  status: ('A' for Active; 'I' for Inactive)
REMARK    1  A    between atoms: C_1  and  C_2
REMARK    2  A    between atoms: C_2  and  O_3
REMARK    3  A    between atoms: O_3  and  C_4
REMARK    4  A    between atoms: C_7  and  C_8
REMARK    5  A    between atoms: N_10  and  C_11
REMARK    6  A    between atoms: C_14  and  N_15
REMARK    7  A    between atoms: N_18  and  C_19
REMARK                            x       y       z     vdW  Elec       q    Type
REMARK                         _______ _______ _______ _____ _____    ______ ____
ROOT
ATOM      1  C   UNL     1       2.066   7.904  18.919  0.00  0.00    +0.000 C 
ATOM      2  O   UNL     1       1.855   7.729  20.115  0.00  0.00    +0.000 OA
ATOM      3  N   UNL     1       1.500   8.872  18.112  0.00  0.00    +0.000 N 
ATOM      4  H   UNL     1       1.635   8.801  17.112  0.00  0.00    +0.000 HD
ENDROOT
BRANCH   1   8
ATOM      5  C   UNL     1       4.678   5.226  16.825  0.00  0.00    +0.000 A 
ATOM      6  C   UNL     1       4.805   6.616  16.732  0.00  0.00    +0.000 A 
ATOM      7  C   UNL     1       3.953   7.457  17.440  0.00  0.00    +0.000 A 
ATOM      8  C   UNL     1       2.955   6.925  18.256  0.00  0.00    +0.000 A 
ATOM      9  C   UNL     1       2.797   5.539  18.358  0.00  0.00    +0.000 A 
ATOM     10  C   UNL     1       3.661   4.698  17.640  0.00  0.00    +0.000 A 
ATOM     11 BR   UNL     1       3.395   2.822  17.800  0.00  0.00    +0.000 Br
BRANCH   5  12
ATOM     12  O   UNL     1       5.501   4.352  16.150  0.00  0.00    +0.000 OA
BRANCH  12  14
ATOM     13  C   UNL     1       7.555   4.537  17.416  0.00  0.00    +0.000 C 
ATOM     14  C   UNL     1       6.878   4.733  16.076  0.00  0.00    +0.000 C 
ENDBRANCH  12  14
ENDBRANCH   5  12
ENDBRANCH   1   8
BRANCH   3  15
ATOM     15  C   UNL     1       0.608   9.870  18.558  0.00  0.00    +0.000 A 
ATOM     16  C   UNL     1      -0.690  10.003  18.071  0.00  0.00    +0.000 A 
ATOM     17  C   UNL     1      -1.539  11.000  18.555  0.00  0.00    +0.000 A 
ATOM     18  C   UNL     1      -1.138  11.899  19.547  0.00  0.00    +0.000 A 
ATOM     19  C   UNL     1       0.174  11.760  20.019  0.00  0.00    +0.000 A 
ATOM     20  C   UNL     1       1.037  10.759  19.543  0.00  0.00    +0.000 A 
BRANCH  18  21
ATOM     21  N   UNL     1      -2.025  12.818  20.063  0.00  0.00    +0.000 N 
ATOM     22  C   UNL     1      -1.623  14.185  20.414  0.00  0.00    +0.000 C 
ATOM     23  C   UNL     1      -2.303  14.599  21.741  0.00  0.00    +0.000 C 
ATOM     24  N   UNL     1      -3.776  14.458  21.710  0.00  0.00    +0.000 NA
ATOM     25  C   UNL     1      -4.352  14.820  23.001  0.00  0.00    +0.000 C 
ATOM     26  C   UNL     1      -4.118  13.058  21.359  0.00  0.00    +0.000 C 
ATOM     27  C   UNL     1      -3.484  12.610  20.022  0.00  0.00    +0.000 C 
ENDBRANCH  18  21
ENDBRANCH   3  15
TORSDOF 5
ENDMDL
MODEL 9
REMARK VINA RESULT:      -7.4      1.233      1.455
REMARK  Name = 
REMARK  7 active torsions:
REMARK  status: ('A' for Active; 'I' for Inactive)
REMARK    1  A    between atoms: C_1  and  C_2
REMARK    2  A    between atoms: C_2  and  O_3
REMARK    3  A    between atoms: O_3  and  C_4
REMARK    4  A    between atoms: C_7  and  C_8
REMARK    5  A    between atoms: N_10  and  C_11
REMARK    6  A    between atoms: C_14  and  N_15
REMARK    7  A    between atoms: N_18  and  C_19
REMARK                            x       y       z     vdW  Elec       q    Type
REMARK                         _______ _______ _______ _____ _____    ______ ____
ROOT
ATOM      1  C   UNL     1       2.152   6.949  19.611  0.00  0.00    +0.000 C 
ATOM      2  O   UNL     1       1.690   6.488  20.649  0.00  0.00    +0.000 OA
ATOM      3  N   UNL     1       1.914   8.204  19.084  0.00  0.00    +0.000 N 
ATOM      4  H   UNL     1       2.226   8.395  18.141  0.00  0.00    +0.000 HD
ENDROOT
BRANCH   1   8
ATOM      5  C   UNL     1       4.577   4.473  17.087  0.00  0.00    +0.000 A 
ATOM      6  C   UNL     1       4.662   5.869  17.066  0.00  0.00    +0.000 A 
ATOM      7  C   UNL     1       3.875   6.643  17.912  0.00  0.00    +0.000 A 
ATOM      8  C   UNL     1       2.984   6.036  18.797  0.00  0.00    +0.000 A 
ATOM      9  C   UNL     1       2.869   4.642  18.831  0.00  0.00    +0.000 A 
ATOM     10  C   UNL     1       3.668   3.870  17.974  0.00  0.00    +0.000 A 
ATOM     11 BR   UNL     1       3.462   1.980  18.048  0.00  0.00    +0.000 Br
BRANCH   5  12
ATOM     12  O   UNL     1       5.340   3.664  16.276  0.00  0.00    +0.000 OA
BRANCH  12  14
ATOM     13  C   UNL     1       5.944   4.024  13.960  0.00  0.00    +0.000 C 
ATOM     14  C   UNL     1       6.253   4.343  15.408  0.00  0.00    +0.000 C 
ENDBRANCH  12  14
ENDBRANCH   5  12
ENDBRANCH   1   8
BRANCH   3  15
ATOM     15  C   UNL     1       1.123   9.197  19.700  0.00  0.00    +0.000 A 
ATOM     16  C   UNL     1       1.130   9.433  21.072  0.00  0.00    +0.000 A 
ATOM     17  C   UNL     1       0.339  10.437  21.632  0.00  0.00    +0.000 A 
ATOM     18  C   UNL     1      -0.485  11.254  20.852  0.00  0.00    +0.000 A 
ATOM     19  C   UNL     1      -0.489  10.998  19.473  0.00  0.00    +0.000 A 
ATOM     20  C   UNL     1       0.305   9.992  18.898  0.00  0.00    +0.000 A 
BRANCH  18  21
ATOM     21  N   UNL     1      -1.191  12.290  21.421  0.00  0.00    +0.000 N 
ATOM     22  C   UNL     1      -0.539  13.350  22.199  0.00  0.00    +0.000 C 
ATOM     23  C   UNL     1      -1.403  13.690  23.437  0.00  0.00    +0.000 C 
ATOM     24  N   UNL     1      -2.797  14.050  23.093  0.00  0.00    +0.000 NA
ATOM     25  C   UNL     1      -3.570  14.315  24.302  0.00  0.00    +0.000 C 
ATOM     26  C   UNL     1      -3.403  12.940  22.318  0.00  0.00    +0.000 C 
ATOM     27  C   UNL     1      -2.587  12.585  21.054  0.00  0.00    +0.000 C 
ENDBRANCH  18  21
ENDBRANCH   3  15
TORSDOF 5
ENDMDL
