MODEL 1
REMARK VINA RESULT:      -8.8      0.000      0.000
REMARK  Name = 
REMARK  3 active torsions:
REMARK  status: ('A' for Active; 'I' for Inactive)
REMARK    1  A    between atoms: C_1  and  C_2
REMARK    2  A    between atoms: C_5  and  N_6
REMARK    3  A    between atoms: N_9  and  C_10
REMARK                            x       y       z     vdW  Elec       q    Type
REMARK                         _______ _______ _______ _____ _____    ______ ____
ROOT
ATOM      1  C   UNL     1       2.179   5.113  20.173  0.00  0.00    +0.000 A 
ATOM      2  C   UNL     1       1.176   4.284  20.717  0.00  0.00    +0.000 A 
ATOM      3  C   UNL     1       1.042   2.928  20.369  0.00  0.00    +0.000 A 
ATOM      4  C   UNL     1       1.877   2.367  19.418  0.00  0.00    +0.000 A 
ATOM      5  C   UNL     1       2.800   3.207  18.827  0.00  0.00    +0.000 A 
ATOM      6  C   UNL     1       2.972   4.562  19.175  0.00  0.00    +0.000 A 
ATOM      7  C   UNL     1       4.133   5.096  18.393  0.00  0.00    +0.000 C 
ATOM      8  C   UNL     1       4.000   6.446  17.694  0.00  0.00    +0.000 C 
ATOM      9  C   UNL     1       5.253   6.674  16.843  0.00  0.00    +0.000 C 
ATOM     10  C   UNL     1       5.343   5.597  15.761  0.00  0.00    +0.000 C 
ATOM     11  C   UNL     1       5.351   4.190  16.357  0.00  0.00    +0.000 C 
ATOM     12  N   UNL     1       4.352   4.051  17.401  0.00  0.00    +0.000 N 
ATOM     13  C   UNL     1       3.724   2.871  17.734  0.00  0.00    +0.000 C 
ATOM     14  O   UNL     1       3.851   1.773  17.232  0.00  0.00    +0.000 OA
ENDROOT
BRANCH   1  18
ATOM     15  N   UNL     1       1.828   8.576  21.306  0.00  0.00    +0.000 N 
ATOM     16  C   UNL     1       1.360   7.319  20.959  0.00  0.00    +0.000 C 
ATOM     17  O   UNL     1       0.182   6.991  20.973  0.00  0.00    +0.000 OA
ATOM     18  N   UNL     1       2.385   6.445  20.630  0.00  0.00    +0.000 N 
ATOM     19  H   UNL     1       2.811   8.779  21.236  0.00  0.00    +0.000 HD
ATOM     20  H   UNL     1       3.289   6.673  21.000  0.00  0.00    +0.000 HD
BRANCH  15  25
ATOM     21  C   UNL     1      -1.738  12.606  22.929  0.00  0.00    +0.000 C 
ATOM     22  C   UNL     1      -0.773  11.536  22.532  0.00  0.00    +0.000 A 
ATOM     23  C   UNL     1      -0.144  11.587  21.298  0.00  0.00    +0.000 A 
ATOM     24  N   UNL     1       0.710  10.638  20.889  0.00  0.00    +0.000 NA
ATOM     25  C   UNL     1       0.960   9.609  21.715  0.00  0.00    +0.000 A 
ATOM     26  C   UNL     1       0.345   9.572  22.961  0.00  0.00    +0.000 A 
ATOM     27  N   UNL     1      -0.530  10.520  23.397  0.00  0.00    +0.000 NA
ENDBRANCH  15  25
ENDBRANCH   1  18
TORSDOF 2
ENDMDL
MODEL 2
REMARK VINA RESULT:      -8.2      2.392      4.063
REMARK  Name = 
REMARK  3 active torsions:
REMARK  status: ('A' for Active; 'I' for Inactive)
REMARK    1  A    between atoms: C_1  and  C_2
REMARK    2  A    between atoms: C_5  and  N_6
REMARK    3  A    between atoms: N_9  and  C_10
REMARK                            x       y       z     vdW  Elec       q    Type
REMARK                         _______ _______ _______ _____ _____    ______ ____
ROOT
ATOM      1  C   UNL     1       3.093   6.909  18.091  0.00  0.00    +0.000 A 
ATOM      2  C   UNL     1       4.101   7.417  17.245  0.00  0.00    +0.000 A 
ATOM      3  C   UNL     1       4.900   6.590  16.437  0.00  0.00    +0.000 A 
ATOM      4  C   UNL     1       4.756   5.213  16.490  0.00  0.00    +0.000 A 
ATOM      5  C   UNL     1       3.827   4.719  17.384  0.00  0.00    +0.000 A 
ATOM      6  C   UNL     1       2.996   5.527  18.187  0.00  0.00    +0.000 A 
ATOM      7  C   UNL     1       2.060   4.626  18.934  0.00  0.00    +0.000 C 
ATOM      8  C   UNL     1       1.842   4.855  20.427  0.00  0.00    +0.000 C 
ATOM      9  C   UNL     1       0.981   3.710  20.970  0.00  0.00    +0.000 C 
ATOM     10  C   UNL     1       1.724   2.383  20.805  0.00  0.00    +0.000 C 
ATOM     11  C   UNL     1       2.106   2.121  19.349  0.00  0.00    +0.000 C 
ATOM     12  N   UNL     1       2.650   3.311  18.721  0.00  0.00    +0.000 N 
ATOM     13  C   UNL     1       3.562   3.306  17.687  0.00  0.00    +0.000 C 
ATOM     14  O   UNL     1       4.086   2.358  17.139  0.00  0.00    +0.000 OA
ENDROOT
BRANCH   1  18
ATOM     15  N   UNL     1       1.118   9.715  19.364  0.00  0.00    +0.000 N 
ATOM     16  C   UNL     1       1.967   9.087  18.468  0.00  0.00    +0.000 C 
ATOM     17  O   UNL     1       2.433   9.615  17.468  0.00  0.00    +0.000 OA
ATOM     18  N   UNL     1       2.206   7.763  18.804  0.00  0.00    +0.000 N 
ATOM     19  H   UNL     1       0.804   9.222  20.183  0.00  0.00    +0.000 HD
ATOM     20  H   UNL     1       1.515   7.330  19.388  0.00  0.00    +0.000 HD
BRANCH  15  25
ATOM     21  C   UNL     1      -0.540  15.058  18.813  0.00  0.00    +0.000 C 
ATOM     22  C   UNL     1      -0.063  13.648  18.950  0.00  0.00    +0.000 A 
ATOM     23  C   UNL     1      -0.791  12.609  18.392  0.00  0.00    +0.000 A 
ATOM     24  N   UNL     1      -0.415  11.327  18.510  0.00  0.00    +0.000 NA
ATOM     25  C   UNL     1       0.709  11.054  19.192  0.00  0.00    +0.000 A 
ATOM     26  C   UNL     1       1.449  12.100  19.732  0.00  0.00    +0.000 A 
ATOM     27  N   UNL     1       1.085  13.408  19.631  0.00  0.00    +0.000 NA
ENDBRANCH  15  25
ENDBRANCH   1  18
TORSDOF 2
ENDMDL
MODEL 3
REMARK VINA RESULT:      -8.0      1.620      1.770
REMARK  Name = 
REMARK  3 active torsions:
REMARK  status: ('A' for Active; 'I' for Inactive)
REMARK    1  A    between atoms: C_1  and  C_2
REMARK    2  A    between atoms: C_5  and  N_6
REMARK    3  A    between atoms: N_9  and  C_10
REMARK                            x       y       z     vdW  Elec       q    Type
REMARK                         _______ _______ _______ _____ _____    ______ ____
ROOT
ATOM      1  C   UNL     1       2.139   6.089  19.783  0.00  0.00    +0.000 A 
ATOM      2  C   UNL     1       1.178   5.330  20.483  0.00  0.00    +0.000 A 
ATOM      3  C   UNL     1       1.425   4.019  20.926  0.00  0.00    +0.000 A 
ATOM      4  C   UNL     1       2.629   3.398  20.634  0.00  0.00    +0.000 A 
ATOM      5  C   UNL     1       3.531   4.117  19.874  0.00  0.00    +0.000 A 
ATOM      6  C   UNL     1       3.318   5.441  19.439  0.00  0.00    +0.000 A 
ATOM      7  C   UNL     1       4.562   5.902  18.741  0.00  0.00    +0.000 C 
ATOM      8  C   UNL     1       4.438   6.623  17.402  0.00  0.00    +0.000 C 
ATOM      9  C   UNL     1       5.846   6.834  16.836  0.00  0.00    +0.000 C 
ATOM     10  C   UNL     1       6.505   5.479  16.576  0.00  0.00    +0.000 C 
ATOM     11  C   UNL     1       6.560   4.621  17.840  0.00  0.00    +0.000 C 
ATOM     12  N   UNL     1       5.302   4.660  18.562  0.00  0.00    +0.000 N 
ATOM     13  C   UNL     1       4.823   3.644  19.361  0.00  0.00    +0.000 C 
ATOM     14  O   UNL     1       5.317   2.559  19.589  0.00  0.00    +0.000 OA
ENDROOT
BRANCH   1  18
ATOM     15  N   UNL     1       1.199   9.626  19.731  0.00  0.00    +0.000 N 
ATOM     16  C   UNL     1       1.362   8.383  20.320  0.00  0.00    +0.000 C 
ATOM     17  O   UNL     1       1.082   8.125  21.482  0.00  0.00    +0.000 OA
ATOM     18  N   UNL     1       1.925   7.457  19.455  0.00  0.00    +0.000 N 
ATOM     19  H   UNL     1       1.422   9.750  18.757  0.00  0.00    +0.000 HD
ATOM     20  H   UNL     1       2.450   7.838  18.690  0.00  0.00    +0.000 HD
BRANCH  15  25
ATOM     21  C   UNL     1      -0.781  13.986  22.674  0.00  0.00    +0.000 C 
ATOM     22  C   UNL     1      -0.240  12.851  21.866  0.00  0.00    +0.000 A 
ATOM     23  C   UNL     1      -1.037  11.752  21.586  0.00  0.00    +0.000 A 
ATOM     24  N   UNL     1      -0.586  10.701  20.886  0.00  0.00    +0.000 NA
ATOM     25  C   UNL     1       0.681  10.728  20.443  0.00  0.00    +0.000 A 
ATOM     26  C   UNL     1       1.471  11.841  20.707  0.00  0.00    +0.000 A 
ATOM     27  N   UNL     1       1.039  12.917  21.420  0.00  0.00    +0.000 NA
ENDBRANCH  15  25
ENDBRANCH   1  18
TORSDOF 2
ENDMDL
MODEL 4
REMARK VINA RESULT:      -7.8      2.153      3.939
REMARK  Name = 
REMARK  3 active torsions:
REMARK  status: ('A' for Active; 'I' for Inactive)
REMARK    1  A    between atoms: C_1  and  C_2
REMARK    2  A    between atoms: C_5  and  N_6
REMARK    3  A    between atoms: N_9  and  C_10
REMARK                            x       y       z     vdW  Elec       q    Type
REMARK                         _______ _______ _______ _____ _____    ______ ____
ROOT
ATOM      1  C   UNL     1       3.907   6.527  17.650  0.00  0.00    +0.000 A 
ATOM      2  C   UNL     1       4.854   6.664  16.613  0.00  0.00    +0.000 A 
ATOM      3  C   UNL     1       5.309   5.572  15.854  0.00  0.00    +0.000 A 
ATOM      4  C   UNL     1       4.872   4.290  16.144  0.00  0.00    +0.000 A 
ATOM      5  C   UNL     1       4.012   4.153  17.216  0.00  0.00    +0.000 A 
ATOM      6  C   UNL     1       3.521   5.234  17.977  0.00  0.00    +0.000 A 
ATOM      7  C   UNL     1       2.540   4.689  18.971  0.00  0.00    +0.000 C 
ATOM      8  C   UNL     1       2.621   5.150  20.423  0.00  0.00    +0.000 C 
ATOM      9  C   UNL     1       1.625   4.327  21.246  0.00  0.00    +0.000 C 
ATOM     10  C   UNL     1       2.018   2.850  21.204  0.00  0.00    +0.000 C 
ATOM     11  C   UNL     1       2.093   2.322  19.771  0.00  0.00    +0.000 C 
ATOM     12  N   UNL     1       2.781   3.254  18.898  0.00  0.00    +0.000 N 
ATOM     13  C   UNL     1       3.491   2.898  17.772  0.00  0.00    +0.000 C 
ATOM     14  O   UNL     1       3.695   1.789  17.321  0.00  0.00    +0.000 OA
ENDROOT
BRANCH   1  18
ATOM     15  N   UNL     1       1.814   9.284  18.838  0.00  0.00    +0.000 N 
ATOM     16  C   UNL     1       2.076   8.135  18.111  0.00  0.00    +0.000 C 
ATOM     17  O   UNL     1       1.264   7.574  17.387  0.00  0.00    +0.000 OA
ATOM     18  N   UNL     1       3.358   7.654  18.323  0.00  0.00    +0.000 N 
ATOM     19  H   UNL     1       2.547   9.706  19.385  0.00  0.00    +0.000 HD
ATOM     20  H   UNL     1       3.795   7.941  19.179  0.00  0.00    +0.000 HD
BRANCH  15  25
ATOM     21  C   UNL     1      -3.247  11.730  18.792  0.00  0.00    +0.000 C 
ATOM     22  C   UNL     1      -1.886  11.112  18.819  0.00  0.00    +0.000 A 
ATOM     23  C   UNL     1      -1.411  10.424  17.714  0.00  0.00    +0.000 A 
ATOM     24  N   UNL     1      -0.207   9.833  17.702  0.00  0.00    +0.000 NA
ATOM     25  C   UNL     1       0.556   9.921  18.803  0.00  0.00    +0.000 A 
ATOM     26  C   UNL     1       0.085  10.629  19.903  0.00  0.00    +0.000 A 
ATOM     27  N   UNL     1      -1.134  11.233  19.942  0.00  0.00    +0.000 NA
ENDBRANCH  15  25
ENDBRANCH   1  18
TORSDOF 2
ENDMDL
MODEL 5
REMARK VINA RESULT:      -7.8      3.412      8.619
REMARK  Name = 
REMARK  3 active torsions:
REMARK  status: ('A' for Active; 'I' for Inactive)
REMARK    1  A    between atoms: C_1  and  C_2
REMARK    2  A    between atoms: C_5  and  N_6
REMARK    3  A    between atoms: N_9  and  C_10
REMARK                            x       y       z     vdW  Elec       q    Type
REMARK                         _______ _______ _______ _____ _____    ______ ____
ROOT
ATOM      1  C   UNL     1       0.614  10.785  19.128  0.00  0.00    +0.000 A 
ATOM      2  C   UNL     1       1.404  11.578  19.986  0.00  0.00    +0.000 A 
ATOM      3  C   UNL     1       0.856  12.560  20.830  0.00  0.00    +0.000 A 
ATOM      4  C   UNL     1      -0.504  12.821  20.805  0.00  0.00    +0.000 A 
ATOM      5  C   UNL     1      -1.259  12.100  19.900  0.00  0.00    +0.000 A 
ATOM      6  C   UNL     1      -0.738  11.094  19.062  0.00  0.00    +0.000 A 
ATOM      7  C   UNL     1      -1.883  10.479  18.313  0.00  0.00    +0.000 C 
ATOM      8  C   UNL     1      -1.749  10.247  16.811  0.00  0.00    +0.000 C 
ATOM      9  C   UNL     1      -3.101   9.770  16.274  0.00  0.00    +0.000 C 
ATOM     10  C   UNL     1      -4.153  10.859  16.485  0.00  0.00    +0.000 C 
ATOM     11  C   UNL     1      -4.272  11.259  17.956  0.00  0.00    +0.000 C 
ATOM     12  N   UNL     1      -2.967  11.419  18.569  0.00  0.00    +0.000 N 
ATOM     13  C   UNL     1      -2.693  12.263  19.623  0.00  0.00    +0.000 C 
ATOM     14  O   UNL     1      -3.440  13.023  20.203  0.00  0.00    +0.000 OA
ENDROOT
BRANCH   1  18
ATOM     15  N   UNL     1       2.204   7.689  17.996  0.00  0.00    +0.000 N 
ATOM     16  C   UNL     1       1.661   8.544  18.941  0.00  0.00    +0.000 C 
ATOM     17  O   UNL     1       1.587   8.298  20.137  0.00  0.00    +0.000 OA
ATOM     18  N   UNL     1       1.164   9.709  18.377  0.00  0.00    +0.000 N 
ATOM     19  H   UNL     1       2.259   7.979  17.034  0.00  0.00    +0.000 HD
ATOM     20  H   UNL     1       0.930   9.657  17.403  0.00  0.00    +0.000 HD
BRANCH  15  25
ATOM     21  C   UNL     1       4.214   2.657  19.492  0.00  0.00    +0.000 C 
ATOM     22  C   UNL     1       3.667   3.980  19.061  0.00  0.00    +0.000 A 
ATOM     23  C   UNL     1       4.432   5.128  19.196  0.00  0.00    +0.000 A 
ATOM     24  N   UNL     1       3.973   6.339  18.846  0.00  0.00    +0.000 NA
ATOM     25  C   UNL     1       2.731   6.428  18.345  0.00  0.00    +0.000 A 
ATOM     26  C   UNL     1       1.974   5.272  18.191  0.00  0.00    +0.000 A 
ATOM     27  N   UNL     1       2.414   4.033  18.544  0.00  0.00    +0.000 NA
ENDBRANCH  15  25
ENDBRANCH   1  18
TORSDOF 2
ENDMDL
MODEL 6
REMARK VINA RESULT:      -7.6      3.427      8.781
REMARK  Name = 
REMARK  3 active torsions:
REMARK  status: ('A' for Active; 'I' for Inactive)
REMARK    1  A    between atoms: C_1  and  C_2
REMARK    2  A    between atoms: C_5  and  N_6
REMARK    3  A    between atoms: N_9  and  C_10
REMARK                            x       y       z     vdW  Elec       q    Type
REMARK                         _______ _______ _______ _____ _____    ______ ____
ROOT
ATOM      1  C   UNL     1       0.602  11.120  19.002  0.00  0.00    +0.000 A 
ATOM      2  C   UNL     1       1.410  11.948  19.810  0.00  0.00    +0.000 A 
ATOM      3  C   UNL     1       0.873  12.893  20.701  0.00  0.00    +0.000 A 
ATOM      4  C   UNL     1      -0.497  13.083  20.776  0.00  0.00    +0.000 A 
ATOM      5  C   UNL     1      -1.276  12.329  19.920  0.00  0.00    +0.000 A 
ATOM      6  C   UNL     1      -0.765  11.358  19.036  0.00  0.00    +0.000 A 
ATOM      7  C   UNL     1      -1.927  10.689  18.364  0.00  0.00    +0.000 C 
ATOM      8  C   UNL     1      -1.890  10.475  16.854  0.00  0.00    +0.000 C 
ATOM      9  C   UNL     1      -3.251   9.930  16.410  0.00  0.00    +0.000 C 
ATOM     10  C   UNL     1      -4.340  10.962  16.707  0.00  0.00    +0.000 C 
ATOM     11  C   UNL     1      -4.374  11.344  18.187  0.00  0.00    +0.000 C 
ATOM     12  N   UNL     1      -3.038  11.568  18.707  0.00  0.00    +0.000 N 
ATOM     13  C   UNL     1      -2.732  12.418  19.748  0.00  0.00    +0.000 C 
ATOM     14  O   UNL     1      -3.475  13.134  20.388  0.00  0.00    +0.000 OA
ENDROOT
BRANCH   1  18
ATOM     15  N   UNL     1       2.181   8.074  17.728  0.00  0.00    +0.000 N 
ATOM     16  C   UNL     1       1.635   8.884  18.710  0.00  0.00    +0.000 C 
ATOM     17  O   UNL     1       1.547   8.577  19.891  0.00  0.00    +0.000 OA
ATOM     18  N   UNL     1       1.152  10.080  18.202  0.00  0.00    +0.000 N 
ATOM     19  H   UNL     1       2.249   8.413  16.783  0.00  0.00    +0.000 HD
ATOM     20  H   UNL     1       0.928  10.080  17.224  0.00  0.00    +0.000 HD
BRANCH  15  25
ATOM     21  C   UNL     1       4.292   2.967  18.756  0.00  0.00    +0.000 C 
ATOM     22  C   UNL     1       3.752   4.339  18.511  0.00  0.00    +0.000 A 
ATOM     23  C   UNL     1       2.389   4.535  18.355  0.00  0.00    +0.000 A 
ATOM     24  N   UNL     1       1.863   5.744  18.109  0.00  0.00    +0.000 NA
ATOM     25  C   UNL     1       2.695   6.793  18.017  0.00  0.00    +0.000 A 
ATOM     26  C   UNL     1       4.060   6.597  18.197  0.00  0.00    +0.000 A 
ATOM     27  N   UNL     1       4.619   5.380  18.441  0.00  0.00    +0.000 NA
ENDBRANCH  15  25
ENDBRANCH   1  18
TORSDOF 2
ENDMDL
MODEL 7
REMARK VINA RESULT:      -7.6      2.522      2.821
REMARK  Name = 
REMARK  3 active torsions:
REMARK  status: ('A' for Active; 'I' for Inactive)
REMARK    1  A    between atoms: C_1  and  C_2
REMARK    2  A    between atoms: C_5  and  N_6
REMARK    3  A    between atoms: N_9  and  C_10
REMARK                            x       y       z     vdW  Elec       q    Type
REMARK                         _______ _______ _______ _____ _____    ______ ____
ROOT
ATOM      1  C   UNL     1       2.417   6.671  19.140  0.00  0.00    +0.000 A 
ATOM      2  C   UNL     1       1.454   6.203  20.059  0.00  0.00    +0.000 A 
ATOM      3  C   UNL     1       1.635   5.032  20.816  0.00  0.00    +0.000 A 
ATOM      4  C   UNL     1       2.767   4.254  20.637  0.00  0.00    +0.000 A 
ATOM      5  C   UNL     1       3.664   4.673  19.674  0.00  0.00    +0.000 A 
ATOM      6  C   UNL     1       3.519   5.855  18.921  0.00  0.00    +0.000 A 
ATOM      7  C   UNL     1       4.742   6.012  18.068  0.00  0.00    +0.000 C 
ATOM      8  C   UNL     1       4.579   6.375  16.595  0.00  0.00    +0.000 C 
ATOM      9  C   UNL     1       5.955   6.309  15.927  0.00  0.00    +0.000 C 
ATOM     10  C   UNL     1       6.495   4.880  15.997  0.00  0.00    +0.000 C 
ATOM     11  C   UNL     1       6.574   4.372  17.436  0.00  0.00    +0.000 C 
ATOM     12  N   UNL     1       5.376   4.704  18.183  0.00  0.00    +0.000 N 
ATOM     13  C   UNL     1       4.880   3.972  19.240  0.00  0.00    +0.000 C 
ATOM     14  O   UNL     1       5.308   2.942  19.718  0.00  0.00    +0.000 OA
ENDROOT
BRANCH   1  18
ATOM     15  N   UNL     1       1.585  10.094  18.149  0.00  0.00    +0.000 N 
ATOM     16  C   UNL     1       1.642   9.025  19.026  0.00  0.00    +0.000 C 
ATOM     17  O   UNL     1       1.215   9.046  20.173  0.00  0.00    +0.000 OA
ATOM     18  N   UNL     1       2.281   7.923  18.478  0.00  0.00    +0.000 N 
ATOM     19  H   UNL     1       1.928   9.988  17.209  0.00  0.00    +0.000 HD
ATOM     20  H   UNL     1       2.906   8.116  17.717  0.00  0.00    +0.000 HD
BRANCH  15  25
ATOM     21  C   UNL     1      -0.651  15.002  19.736  0.00  0.00    +0.000 C 
ATOM     22  C   UNL     1      -0.031  13.716  19.292  0.00  0.00    +0.000 A 
ATOM     23  C   UNL     1      -0.832  12.659  18.888  0.00  0.00    +0.000 A 
ATOM     24  N   UNL     1      -0.321  11.479  18.505  0.00  0.00    +0.000 NA
ATOM     25  C   UNL     1       1.013  11.331  18.515  0.00  0.00    +0.000 A 
ATOM     26  C   UNL     1       1.815  12.400  18.900  0.00  0.00    +0.000 A 
ATOM     27  N   UNL     1       1.321  13.605  19.298  0.00  0.00    +0.000 NA
ENDBRANCH  15  25
ENDBRANCH   1  18
TORSDOF 2
ENDMDL
MODEL 8
REMARK VINA RESULT:      -7.5      9.046     10.705
REMARK  Name = 
REMARK  3 active torsions:
REMARK  status: ('A' for Active; 'I' for Inactive)
REMARK    1  A    between atoms: C_1  and  C_2
REMARK    2  A    between atoms: C_5  and  N_6
REMARK    3  A    between atoms: N_9  and  C_10
REMARK                            x       y       z     vdW  Elec       q    Type
REMARK                         _______ _______ _______ _____ _____    ______ ____
ROOT
ATOM      1  C   UNL     1       9.697  11.681  20.493  0.00  0.00    +0.000 A 
ATOM      2  C   UNL     1       9.285  10.712  19.555  0.00  0.00    +0.000 A 
ATOM      3  C   UNL     1       9.545  10.831  18.179  0.00  0.00    +0.000 A 
ATOM      4  C   UNL     1      10.181  11.958  17.684  0.00  0.00    +0.000 A 
ATOM      5  C   UNL     1      10.505  12.941  18.598  0.00  0.00    +0.000 A 
ATOM      6  C   UNL     1      10.278  12.835  19.985  0.00  0.00    +0.000 A 
ATOM      7  C   UNL     1      10.861  14.051  20.641  0.00  0.00    +0.000 C 
ATOM      8  C   UNL     1      10.039  14.794  21.690  0.00  0.00    +0.000 C 
ATOM      9  C   UNL     1      10.790  16.073  22.074  0.00  0.00    +0.000 C 
ATOM     10  C   UNL     1      10.917  16.983  20.851  0.00  0.00    +0.000 C 
ATOM     11  C   UNL     1      11.617  16.279  19.688  0.00  0.00    +0.000 C 
ATOM     12  N   UNL     1      11.117  14.929  19.507  0.00  0.00    +0.000 N 
ATOM     13  C   UNL     1      11.093  14.255  18.305  0.00  0.00    +0.000 C 
ATOM     14  O   UNL     1      11.442  14.642  17.209  0.00  0.00    +0.000 OA
ENDROOT
BRANCH   1  18
ATOM     15  N   UNL     1       8.554  11.632  23.970  0.00  0.00    +0.000 N 
ATOM     16  C   UNL     1       8.421  11.870  22.612  0.00  0.00    +0.000 C 
ATOM     17  O   UNL     1       7.418  12.331  22.085  0.00  0.00    +0.000 OA
ATOM     18  N   UNL     1       9.543  11.487  21.894  0.00  0.00    +0.000 N 
ATOM     19  H   UNL     1       9.425  11.282  24.332  0.00  0.00    +0.000 HD
ATOM     20  H   UNL     1      10.128  10.801  22.334  0.00  0.00    +0.000 HD
BRANCH  15  25
ATOM     21  C   UNL     1       4.502  12.723  27.711  0.00  0.00    +0.000 C 
ATOM     22  C   UNL     1       5.577  12.469  26.703  0.00  0.00    +0.000 A 
ATOM     23  C   UNL     1       5.543  11.326  25.921  0.00  0.00    +0.000 A 
ATOM     24  N   UNL     1       6.498  11.045  25.022  0.00  0.00    +0.000 NA
ATOM     25  C   UNL     1       7.515  11.910  24.882  0.00  0.00    +0.000 A 
ATOM     26  C   UNL     1       7.535  13.067  25.653  0.00  0.00    +0.000 A 
ATOM     27  N   UNL     1       6.581  13.372  26.576  0.00  0.00    +0.000 NA
ENDBRANCH  15  25
ENDBRANCH   1  18
TORSDOF 2
ENDMDL
MODEL 9
REMARK VINA RESULT:      -7.4      2.624      2.945
REMARK  Name = 
REMARK  3 active torsions:
REMARK  status: ('A' for Active; 'I' for Inactive)
REMARK    1  A    between atoms: C_1  and  C_2
REMARK    2  A    between atoms: C_5  and  N_6
REMARK    3  A    between atoms: N_9  and  C_10
REMARK                            x       y       z     vdW  Elec       q    Type
REMARK                         _______ _______ _______ _____ _____    ______ ____
ROOT
ATOM      1  C   UNL     1       2.298   5.805  17.896  0.00  0.00    +0.000 A 
ATOM      2  C   UNL     1       1.180   4.944  17.889  0.00  0.00    +0.000 A 
ATOM      3  C   UNL     1       1.213   3.654  18.447  0.00  0.00    +0.000 A 
ATOM      4  C   UNL     1       2.388   3.157  18.985  0.00  0.00    +0.000 A 
ATOM      5  C   UNL     1       3.501   3.972  18.911  0.00  0.00    +0.000 A 
ATOM      6  C   UNL     1       3.488   5.278  18.380  0.00  0.00    +0.000 A 
ATOM      7  C   UNL     1       4.852   5.869  18.576  0.00  0.00    +0.000 C 
ATOM      8  C   UNL     1       5.519   6.600  17.415  0.00  0.00    +0.000 C 
ATOM      9  C   UNL     1       6.951   6.954  17.827  0.00  0.00    +0.000 C 
ATOM     10  C   UNL     1       7.744   5.673  18.087  0.00  0.00    +0.000 C 
ATOM     11  C   UNL     1       7.082   4.800  19.153  0.00  0.00    +0.000 C 
ATOM     12  N   UNL     1       5.649   4.705  18.945  0.00  0.00    +0.000 N 
ATOM     13  C   UNL     1       4.869   3.634  19.323  0.00  0.00    +0.000 C 
ATOM     14  O   UNL     1       5.209   2.596  19.853  0.00  0.00    +0.000 OA
ENDROOT
BRANCH   1  18
ATOM     15  N   UNL     1       1.844   9.422  17.575  0.00  0.00    +0.000 N 
ATOM     16  C   UNL     1       1.939   8.230  18.274  0.00  0.00    +0.000 C 
ATOM     17  O   UNL     1       1.833   8.129  19.488  0.00  0.00    +0.000 OA
ATOM     18  N   UNL     1       2.214   7.152  17.447  0.00  0.00    +0.000 N 
ATOM     19  H   UNL     1       1.909   9.419  16.571  0.00  0.00    +0.000 HD
ATOM     20  H   UNL     1       2.646   7.375  16.569  0.00  0.00    +0.000 HD
BRANCH  15  25
ATOM     21  C   UNL     1       0.802  14.346  20.079  0.00  0.00    +0.000 C 
ATOM     22  C   UNL     1       1.069  13.019  19.446  0.00  0.00    +0.000 A 
ATOM     23  C   UNL     1       2.228  12.816  18.713  0.00  0.00    +0.000 A 
ATOM     24  N   UNL     1       2.498  11.651  18.107  0.00  0.00    +0.000 NA
ATOM     25  C   UNL     1       1.609  10.652  18.225  0.00  0.00    +0.000 A 
ATOM     26  C   UNL     1       0.458  10.850  18.979  0.00  0.00    +0.000 A 
ATOM     27  N   UNL     1       0.158  12.025  19.598  0.00  0.00    +0.000 NA
ENDBRANCH  15  25
ENDBRANCH   1  18
TORSDOF 2
ENDMDL
