MODEL 1
REMARK VINA RESULT:      -7.1      0.000      0.000
REMARK  Name = 
REMARK  11 active torsions:
REMARK  status: ('A' for Active; 'I' for Inactive)
REMARK    1  A    between atoms: C_1  and  O_2
REMARK    2  A    between atoms: O_2  and  C_3
REMARK    3  A    between atoms: N_8  and  C_9
REMARK    4  A    between atoms: C_9  and  C_10
REMARK    5  A    between atoms: C_10  and  C_11
REMARK    6  A    between atoms: C_11  and  N_12
REMARK    7  A    between atoms: C_19  and  O_20
REMARK    8  A    between atoms: O_20  and  C_21
REMARK    9  A    between atoms: C_25  and  N_26
REMARK   10  A    between atoms: N_26  and  C_27
REMARK   11  A    between atoms: N_26  and  C_28
REMARK                            x       y       z     vdW  Elec       q    Type
REMARK                         _______ _______ _______ _____ _____    ______ ____
ROOT
ATOM      1  C   UNL     1       6.861   5.561  16.551  0.00  0.00    +0.000 A 
ATOM      2  C   UNL     1       5.747   4.768  16.301  0.00  0.00    +0.000 A 
ATOM      3  C   UNL     1       4.863   4.552  17.356  0.00  0.00    +0.000 A 
ATOM      4  C   UNL     1       3.740   5.530  17.557  0.00  0.00    +0.000 A 
ATOM      5  C   UNL     1       3.064   5.586  18.731  0.00  0.00    +0.000 A 
ATOM      6  N   UNL     1       3.320   4.638  19.727  0.00  0.00    +0.000 N 
ATOM      7  C   UNL     1       4.558   3.958  19.705  0.00  0.00    +0.000 A 
ATOM      8  O   UNL     1       4.929   3.107  20.498  0.00  0.00    +0.000 OA
ATOM      9  C   UNL     1       5.462   4.390  18.607  0.00  0.00    +0.000 A 
ATOM     10  C   UNL     1       6.520   5.255  18.904  0.00  0.00    +0.000 A 
ATOM     11  C   UNL     1       7.042   6.017  17.856  0.00  0.00    +0.000 A 
ATOM     12  C   UNL     1       2.475   6.918  18.924  0.00  0.00    +0.000 A 
ATOM     13  C   UNL     1       1.719   7.524  19.919  0.00  0.00    +0.000 A 
ATOM     14  C   UNL     1       1.493   8.922  19.865  0.00  0.00    +0.000 A 
ATOM     15  C   UNL     1       2.053   9.761  18.872  0.00  0.00    +0.000 A 
ATOM     16  C   UNL     1       2.797   9.120  17.874  0.00  0.00    +0.000 A 
ATOM     17  C   UNL     1       2.939   7.730  17.907  0.00  0.00    +0.000 A 
ATOM     18  C   UNL     1       3.612   6.883  16.947  0.00  0.00    +0.000 C 
ATOM     19  O   UNL     1       4.043   7.251  15.869  0.00  0.00    +0.000 OA
ENDROOT
BRANCH  15  20
ATOM     20  N   UNL     1       1.865  11.131  18.874  0.00  0.00    +0.000 N 
ATOM     21  C   UNL     1       2.604  12.022  17.980  0.00  0.00    +0.000 C 
ATOM     22  C   UNL     1       0.974  11.795  19.818  0.00  0.00    +0.000 C 
ENDBRANCH  15  20
BRANCH   1  24
ATOM     23  C   UNL     1       7.336   5.176  14.291  0.00  0.00    +0.000 C 
ATOM     24  O   UNL     1       7.652   5.896  15.487  0.00  0.00    +0.000 OA
ENDBRANCH   1  24
BRANCH  11  25
ATOM     25  O   UNL     1       7.599   7.232  18.160  0.00  0.00    +0.000 OA
ATOM     26  C   UNL     1       6.979   8.328  17.444  0.00  0.00    +0.000 C 
ENDBRANCH  11  25
BRANCH   6  27
ATOM     27  C   UNL     1       2.416   4.388  20.842  0.00  0.00    +0.000 C 
BRANCH  27  28
ATOM     28  C   UNL     1       1.018   3.939  20.411  0.00  0.00    +0.000 C 
BRANCH  28  29
ATOM     29  C   UNL     1       0.972   2.470  19.995  0.00  0.00    +0.000 C 
BRANCH  29  30
ATOM     30  N   UNL     1       0.681   2.416  18.558  0.00  0.00    +0.000 NA
ATOM     31  N   UNL     1       1.675   2.277  17.815  0.00  0.00    +0.000 NA
ATOM     32  N   UNL     1       2.575   2.155  17.137  0.00  0.00    +0.000 NA
ENDBRANCH  29  30
ENDBRANCH  28  29
ENDBRANCH  27  28
ENDBRANCH   6  27
TORSDOF 7
ENDMDL
MODEL 2
REMARK VINA RESULT:      -6.6      2.532      5.398
REMARK  Name = 
REMARK  11 active torsions:
REMARK  status: ('A' for Active; 'I' for Inactive)
REMARK    1  A    between atoms: C_1  and  O_2
REMARK    2  A    between atoms: O_2  and  C_3
REMARK    3  A    between atoms: N_8  and  C_9
REMARK    4  A    between atoms: C_9  and  C_10
REMARK    5  A    between atoms: C_10  and  C_11
REMARK    6  A    between atoms: C_11  and  N_12
REMARK    7  A    between atoms: C_19  and  O_20
REMARK    8  A    between atoms: O_20  and  C_21
REMARK    9  A    between atoms: C_25  and  N_26
REMARK   10  A    between atoms: N_26  and  C_27
REMARK   11  A    between atoms: N_26  and  C_28
REMARK                            x       y       z     vdW  Elec       q    Type
REMARK                         _______ _______ _______ _____ _____    ______ ____
ROOT
ATOM      1  C   UNL     1       2.578   2.344  19.726  0.00  0.00    +0.000 A 
ATOM      2  C   UNL     1       3.817   2.858  20.093  0.00  0.00    +0.000 A 
ATOM      3  C   UNL     1       4.451   3.710  19.192  0.00  0.00    +0.000 A 
ATOM      4  C   UNL     1       4.160   5.182  19.274  0.00  0.00    +0.000 A 
ATOM      5  C   UNL     1       4.456   6.012  18.245  0.00  0.00    +0.000 A 
ATOM      6  N   UNL     1       5.161   5.525  17.139  0.00  0.00    +0.000 N 
ATOM      7  C   UNL     1       5.139   4.135  16.887  0.00  0.00    +0.000 A 
ATOM      8  O   UNL     1       5.701   3.557  15.969  0.00  0.00    +0.000 OA
ATOM      9  C   UNL     1       4.306   3.363  17.846  0.00  0.00    +0.000 A 
ATOM     10  C   UNL     1       3.033   2.942  17.449  0.00  0.00    +0.000 A 
ATOM     11  C   UNL     1       2.104   2.665  18.455  0.00  0.00    +0.000 A 
ATOM     12  C   UNL     1       3.592   7.200  18.274  0.00  0.00    +0.000 A 
ATOM     13  C   UNL     1       3.448   8.332  17.483  0.00  0.00    +0.000 A 
ATOM     14  C   UNL     1       2.345   9.195  17.698  0.00  0.00    +0.000 A 
ATOM     15  C   UNL     1       1.330   8.935  18.650  0.00  0.00    +0.000 A 
ATOM     16  C   UNL     1       1.511   7.796  19.444  0.00  0.00    +0.000 A 
ATOM     17  C   UNL     1       2.648   7.004  19.264  0.00  0.00    +0.000 A 
ATOM     18  C   UNL     1       3.042   5.832  20.015  0.00  0.00    +0.000 C 
ATOM     19  O   UNL     1       2.499   5.435  21.030  0.00  0.00    +0.000 OA
ENDROOT
BRANCH  15  20
ATOM     20  N   UNL     1       0.233   9.763  18.801  0.00  0.00    +0.000 N 
ATOM     21  C   UNL     1      -0.107  10.381  20.082  0.00  0.00    +0.000 C 
ATOM     22  C   UNL     1      -0.705  10.021  17.716  0.00  0.00    +0.000 C 
ENDBRANCH  15  20
BRANCH   1  24
ATOM     23  C   UNL     1       1.480   2.407  21.793  0.00  0.00    +0.000 C 
ATOM     24  O   UNL     1       1.886   1.628  20.663  0.00  0.00    +0.000 OA
ENDBRANCH   1  24
BRANCH  11  25
ATOM     25  O   UNL     1       0.775   2.842  18.168  0.00  0.00    +0.000 OA
ATOM     26  C   UNL     1       0.512   4.087  17.476  0.00  0.00    +0.000 C 
ENDBRANCH  11  25
BRANCH   6  27
ATOM     27  C   UNL     1       5.836   6.388  16.179  0.00  0.00    +0.000 C 
BRANCH  27  28
ATOM     28  C   UNL     1       7.300   6.667  16.527  0.00  0.00    +0.000 C 
BRANCH  28  29
ATOM     29  C   UNL     1       7.466   7.861  17.465  0.00  0.00    +0.000 C 
BRANCH  29  30
ATOM     30  N   UNL     1       8.306   7.438  18.590  0.00  0.00    +0.000 NA
ATOM     31  N   UNL     1       8.067   6.296  19.038  0.00  0.00    +0.000 NA
ATOM     32  N   UNL     1       7.851   5.263  19.450  0.00  0.00    +0.000 NA
ENDBRANCH  29  30
ENDBRANCH  28  29
ENDBRANCH  27  28
ENDBRANCH   6  27
TORSDOF 7
ENDMDL
MODEL 3
REMARK VINA RESULT:      -6.5      7.222      9.511
REMARK  Name = 
REMARK  11 active torsions:
REMARK  status: ('A' for Active; 'I' for Inactive)
REMARK    1  A    between atoms: C_1  and  O_2
REMARK    2  A    between atoms: O_2  and  C_3
REMARK    3  A    between atoms: N_8  and  C_9
REMARK    4  A    between atoms: C_9  and  C_10
REMARK    5  A    between atoms: C_10  and  C_11
REMARK    6  A    between atoms: C_11  and  N_12
REMARK    7  A    between atoms: C_19  and  O_20
REMARK    8  A    between atoms: O_20  and  C_21
REMARK    9  A    between atoms: C_25  and  N_26
REMARK   10  A    between atoms: N_26  and  C_27
REMARK   11  A    between atoms: N_26  and  C_28
REMARK                            x       y       z     vdW  Elec       q    Type
REMARK                         _______ _______ _______ _____ _____    ______ ____
ROOT
ATOM      1  C   UNL     1       1.340  12.317  20.644  0.00  0.00    +0.000 A 
ATOM      2  C   UNL     1       0.929  12.931  19.467  0.00  0.00    +0.000 A 
ATOM      3  C   UNL     1      -0.177  12.392  18.813  0.00  0.00    +0.000 A 
ATOM      4  C   UNL     1      -1.543  12.893  19.191  0.00  0.00    +0.000 A 
ATOM      5  C   UNL     1      -2.658  12.196  18.863  0.00  0.00    +0.000 A 
ATOM      6  N   UNL     1      -2.556  11.061  18.050  0.00  0.00    +0.000 N 
ATOM      7  C   UNL     1      -1.311  10.398  17.977  0.00  0.00    +0.000 A 
ATOM      8  O   UNL     1      -1.061   9.401  17.317  0.00  0.00    +0.000 OA
ATOM      9  C   UNL     1      -0.258  10.998  18.837  0.00  0.00    +0.000 A 
ATOM     10  C   UNL     1       0.057  10.380  20.051  0.00  0.00    +0.000 A 
ATOM     11  C   UNL     1       0.657  11.167  21.038  0.00  0.00    +0.000 A 
ATOM     12  C   UNL     1      -3.754  12.509  19.790  0.00  0.00    +0.000 A 
ATOM     13  C   UNL     1      -5.070  12.090  19.935  0.00  0.00    +0.000 A 
ATOM     14  C   UNL     1      -5.793  12.459  21.096  0.00  0.00    +0.000 A 
ATOM     15  C   UNL     1      -5.223  13.192  22.165  0.00  0.00    +0.000 A 
ATOM     16  C   UNL     1      -3.900  13.615  21.983  0.00  0.00    +0.000 A 
ATOM     17  C   UNL     1      -3.235  13.303  20.794  0.00  0.00    +0.000 A 
ATOM     18  C   UNL     1      -1.901  13.694  20.394  0.00  0.00    +0.000 C 
ATOM     19  O   UNL     1      -1.195  14.488  20.990  0.00  0.00    +0.000 OA
ENDROOT
BRANCH  15  20
ATOM     20  N   UNL     1      -5.932  13.490  23.314  0.00  0.00    +0.000 N 
ATOM     21  C   UNL     1      -6.939  12.585  23.866  0.00  0.00    +0.000 C 
ATOM     22  C   UNL     1      -5.783  14.759  24.017  0.00  0.00    +0.000 C 
ENDBRANCH  15  20
BRANCH   1  24
ATOM     23  C   UNL     1       2.462  14.323  21.087  0.00  0.00    +0.000 C 
ATOM     24  O   UNL     1       2.329  12.926  21.365  0.00  0.00    +0.000 OA
ENDBRANCH   1  24
BRANCH  11  25
ATOM     25  O   UNL     1       0.438  10.831  22.349  0.00  0.00    +0.000 OA
ATOM     26  C   UNL     1      -0.937  11.031  22.757  0.00  0.00    +0.000 C 
ENDBRANCH  11  25
BRANCH   6  27
ATOM     27  C   UNL     1      -3.692  10.474  17.353  0.00  0.00    +0.000 C 
BRANCH  27  28
ATOM     28  C   UNL     1      -3.782  10.875  15.878  0.00  0.00    +0.000 C 
BRANCH  28  29
ATOM     29  C   UNL     1      -3.534   9.702  14.931  0.00  0.00    +0.000 C 
BRANCH  29  30
ATOM     30  N   UNL     1      -3.044  10.244  13.660  0.00  0.00    +0.000 NA
ATOM     31  N   UNL     1      -3.689   9.901  12.647  0.00  0.00    +0.000 NA
ATOM     32  N   UNL     1      -4.269   9.588  11.724  0.00  0.00    +0.000 NA
ENDBRANCH  29  30
ENDBRANCH  28  29
ENDBRANCH  27  28
ENDBRANCH   6  27
TORSDOF 7
ENDMDL
MODEL 4
REMARK VINA RESULT:      -6.2      2.936      5.752
REMARK  Name = 
REMARK  11 active torsions:
REMARK  status: ('A' for Active; 'I' for Inactive)
REMARK    1  A    between atoms: C_1  and  O_2
REMARK    2  A    between atoms: O_2  and  C_3
REMARK    3  A    between atoms: N_8  and  C_9
REMARK    4  A    between atoms: C_9  and  C_10
REMARK    5  A    between atoms: C_10  and  C_11
REMARK    6  A    between atoms: C_11  and  N_12
REMARK    7  A    between atoms: C_19  and  O_20
REMARK    8  A    between atoms: O_20  and  C_21
REMARK    9  A    between atoms: C_25  and  N_26
REMARK   10  A    between atoms: N_26  and  C_27
REMARK   11  A    between atoms: N_26  and  C_28
REMARK                            x       y       z     vdW  Elec       q    Type
REMARK                         _______ _______ _______ _____ _____    ______ ____
ROOT
ATOM      1  C   UNL     1       2.525   2.464  19.664  0.00  0.00    +0.000 A 
ATOM      2  C   UNL     1       3.717   2.991  20.146  0.00  0.00    +0.000 A 
ATOM      3  C   UNL     1       4.424   3.853  19.309  0.00  0.00    +0.000 A 
ATOM      4  C   UNL     1       4.109   5.321  19.367  0.00  0.00    +0.000 A 
ATOM      5  C   UNL     1       4.491   6.156  18.371  0.00  0.00    +0.000 A 
ATOM      6  N   UNL     1       5.303   5.680  17.335  0.00  0.00    +0.000 N 
ATOM      7  C   UNL     1       5.320   4.291  17.080  0.00  0.00    +0.000 A 
ATOM      8  O   UNL     1       5.972   3.722  16.218  0.00  0.00    +0.000 OA
ATOM      9  C   UNL     1       4.410   3.507  17.956  0.00  0.00    +0.000 A 
ATOM     10  C   UNL     1       3.184   3.073  17.441  0.00  0.00    +0.000 A 
ATOM     11  C   UNL     1       2.168   2.783  18.355  0.00  0.00    +0.000 A 
ATOM     12  C   UNL     1       3.615   7.335  18.320  0.00  0.00    +0.000 A 
ATOM     13  C   UNL     1       3.533   8.467  17.521  0.00  0.00    +0.000 A 
ATOM     14  C   UNL     1       2.405   9.318  17.633  0.00  0.00    +0.000 A 
ATOM     15  C   UNL     1       1.308   9.043  18.485  0.00  0.00    +0.000 A 
ATOM     16  C   UNL     1       1.426   7.904  19.291  0.00  0.00    +0.000 A 
ATOM     17  C   UNL     1       2.585   7.126  19.217  0.00  0.00    +0.000 A 
ATOM     18  C   UNL     1       2.920   5.956  20.000  0.00  0.00    +0.000 C 
ATOM     19  O   UNL     1       2.289   5.551  20.960  0.00  0.00    +0.000 OA
ENDROOT
BRANCH  15  20
ATOM     20  N   UNL     1       0.193   9.859  18.534  0.00  0.00    +0.000 N 
ATOM     21  C   UNL     1      -0.913   9.725  17.586  0.00  0.00    +0.000 C 
ATOM     22  C   UNL     1       0.069  10.957  19.485  0.00  0.00    +0.000 C 
ENDBRANCH  15  20
BRANCH   1  24
ATOM     23  C   UNL     1       1.446   2.436  21.741  0.00  0.00    +0.000 C 
ATOM     24  O   UNL     1       1.757   1.738  20.531  0.00  0.00    +0.000 OA
ENDBRANCH   1  24
BRANCH  11  25
ATOM     25  O   UNL     1       0.870   2.946  17.945  0.00  0.00    +0.000 OA
ATOM     26  C   UNL     1       0.635   4.234  17.325  0.00  0.00    +0.000 C 
ENDBRANCH  11  25
BRANCH   6  27
ATOM     27  C   UNL     1       6.054   6.553  16.443  0.00  0.00    +0.000 C 
BRANCH  27  28
ATOM     28  C   UNL     1       7.440   6.927  16.975  0.00  0.00    +0.000 C 
BRANCH  28  29
ATOM     29  C   UNL     1       7.494   8.346  17.538  0.00  0.00    +0.000 C 
BRANCH  29  30
ATOM     30  N   UNL     1       8.547   8.388  18.558  0.00  0.00    +0.000 NA
ATOM     31  N   UNL     1       8.932   9.531  18.883  0.00  0.00    +0.000 NA
ATOM     32  N   UNL     1       9.288  10.566  19.179  0.00  0.00    +0.000 NA
ENDBRANCH  29  30
ENDBRANCH  28  29
ENDBRANCH  27  28
ENDBRANCH   6  27
TORSDOF 7
ENDMDL
MODEL 5
REMARK VINA RESULT:      -6.1      5.493      9.306
REMARK  Name = 
REMARK  11 active torsions:
REMARK  status: ('A' for Active; 'I' for Inactive)
REMARK    1  A    between atoms: C_1  and  O_2
REMARK    2  A    between atoms: O_2  and  C_3
REMARK    3  A    between atoms: N_8  and  C_9
REMARK    4  A    between atoms: C_9  and  C_10
REMARK    5  A    between atoms: C_10  and  C_11
REMARK    6  A    between atoms: C_11  and  N_12
REMARK    7  A    between atoms: C_19  and  O_20
REMARK    8  A    between atoms: O_20  and  C_21
REMARK    9  A    between atoms: C_25  and  N_26
REMARK   10  A    between atoms: N_26  and  C_27
REMARK   11  A    between atoms: N_26  and  C_28
REMARK                            x       y       z     vdW  Elec       q    Type
REMARK                         _______ _______ _______ _____ _____    ______ ____
ROOT
ATOM      1  C   UNL     1      -2.417  13.864  23.197  0.00  0.00    +0.000 A 
ATOM      2  C   UNL     1      -1.060  13.824  22.895  0.00  0.00    +0.000 A 
ATOM      3  C   UNL     1      -0.525  12.598  22.504  0.00  0.00    +0.000 A 
ATOM      4  C   UNL     1      -0.546  12.243  21.044  0.00  0.00    +0.000 A 
ATOM      5  C   UNL     1      -0.369  10.964  20.634  0.00  0.00    +0.000 A 
ATOM      6  N   UNL     1      -0.031   9.975  21.564  0.00  0.00    +0.000 N 
ATOM      7  C   UNL     1      -0.336  10.200  22.924  0.00  0.00    +0.000 A 
ATOM      8  O   UNL     1      -0.106   9.440  23.853  0.00  0.00    +0.000 OA
ATOM      9  C   UNL     1      -1.035  11.487  23.179  0.00  0.00    +0.000 A 
ATOM     10  C   UNL     1      -2.417  11.475  23.396  0.00  0.00    +0.000 A 
ATOM     11  C   UNL     1      -3.117  12.659  23.154  0.00  0.00    +0.000 A 
ATOM     12  C   UNL     1      -0.997  10.750  19.323  0.00  0.00    +0.000 A 
ATOM     13  C   UNL     1      -1.137   9.669  18.463  0.00  0.00    +0.000 A 
ATOM     14  C   UNL     1      -2.004   9.775  17.347  0.00  0.00    +0.000 A 
ATOM     15  C   UNL     1      -2.796  10.919  17.086  0.00  0.00    +0.000 A 
ATOM     16  C   UNL     1      -2.622  11.999  17.960  0.00  0.00    +0.000 A 
ATOM     17  C   UNL     1      -1.703  11.896  19.008  0.00  0.00    +0.000 A 
ATOM     18  C   UNL     1      -1.339  12.910  19.973  0.00  0.00    +0.000 C 
ATOM     19  O   UNL     1      -1.686  14.077  19.928  0.00  0.00    +0.000 OA
ENDROOT
BRANCH  15  20
ATOM     20  N   UNL     1      -3.678  10.976  16.023  0.00  0.00    +0.000 N 
ATOM     21  C   UNL     1      -3.369  10.387  14.721  0.00  0.00    +0.000 C 
ATOM     22  C   UNL     1      -4.947  11.691  16.098  0.00  0.00    +0.000 C 
ENDBRANCH  15  20
BRANCH   1  24
ATOM     23  C   UNL     1      -3.166  15.366  24.829  0.00  0.00    +0.000 C 
ATOM     24  O   UNL     1      -2.977  15.087  23.438  0.00  0.00    +0.000 OA
ENDBRANCH   1  24
BRANCH  11  25
ATOM     25  O   UNL     1      -4.429  12.562  22.769  0.00  0.00    +0.000 OA
ATOM     26  C   UNL     1      -4.611  12.748  21.344  0.00  0.00    +0.000 C 
ENDBRANCH  11  25
BRANCH   6  27
ATOM     27  C   UNL     1       0.531   8.684  21.189  0.00  0.00    +0.000 C 
BRANCH  27  28
ATOM     28  C   UNL     1       1.856   8.789  20.429  0.00  0.00    +0.000 C 
BRANCH  28  29
ATOM     29  C   UNL     1       2.076   7.627  19.462  0.00  0.00    +0.000 C 
BRANCH  29  30
ATOM     30  N   UNL     1       2.024   6.381  20.235  0.00  0.00    +0.000 NA
ATOM     31  N   UNL     1       2.666   5.424  19.751  0.00  0.00    +0.000 NA
ATOM     32  N   UNL     1       3.243   4.552  19.315  0.00  0.00    +0.000 NA
ENDBRANCH  29  30
ENDBRANCH  28  29
ENDBRANCH  27  28
ENDBRANCH   6  27
TORSDOF 7
ENDMDL
MODEL 6
REMARK VINA RESULT:      -6.0      2.951      5.507
REMARK  Name = 
REMARK  11 active torsions:
REMARK  status: ('A' for Active; 'I' for Inactive)
REMARK    1  A    between atoms: C_1  and  O_2
REMARK    2  A    between atoms: O_2  and  C_3
REMARK    3  A    between atoms: N_8  and  C_9
REMARK    4  A    between atoms: C_9  and  C_10
REMARK    5  A    between atoms: C_10  and  C_11
REMARK    6  A    between atoms: C_11  and  N_12
REMARK    7  A    between atoms: C_19  and  O_20
REMARK    8  A    between atoms: O_20  and  C_21
REMARK    9  A    between atoms: C_25  and  N_26
REMARK   10  A    between atoms: N_26  and  C_27
REMARK   11  A    between atoms: N_26  and  C_28
REMARK                            x       y       z     vdW  Elec       q    Type
REMARK                         _______ _______ _______ _____ _____    ______ ____
ROOT
ATOM      1  C   UNL     1       2.588   2.211  19.826  0.00  0.00    +0.000 A 
ATOM      2  C   UNL     1       3.882   2.705  19.932  0.00  0.00    +0.000 A 
ATOM      3  C   UNL     1       4.321   3.577  18.938  0.00  0.00    +0.000 A 
ATOM      4  C   UNL     1       4.073   5.049  19.119  0.00  0.00    +0.000 A 
ATOM      5  C   UNL     1       4.154   5.904  18.071  0.00  0.00    +0.000 A 
ATOM      6  N   UNL     1       4.600   5.443  16.828  0.00  0.00    +0.000 N 
ATOM      7  C   UNL     1       4.506   4.061  16.551  0.00  0.00    +0.000 A 
ATOM      8  O   UNL     1       4.852   3.505  15.520  0.00  0.00    +0.000 OA
ATOM      9  C   UNL     1       3.887   3.269  17.647  0.00  0.00    +0.000 A 
ATOM     10  C   UNL     1       2.554   2.868  17.520  0.00  0.00    +0.000 A 
ATOM     11  C   UNL     1       1.857   2.570  18.694  0.00  0.00    +0.000 A 
ATOM     12  C   UNL     1       3.332   7.098  18.315  0.00  0.00    +0.000 A 
ATOM     13  C   UNL     1       3.037   8.252  17.601  0.00  0.00    +0.000 A 
ATOM     14  C   UNL     1       2.017   9.117  18.069  0.00  0.00    +0.000 A 
ATOM     15  C   UNL     1       1.225   8.838  19.210  0.00  0.00    +0.000 A 
ATOM     16  C   UNL     1       1.556   7.676  19.918  0.00  0.00    +0.000 A 
ATOM     17  C   UNL     1       2.618   6.881  19.478  0.00  0.00    +0.000 A 
ATOM     18  C   UNL     1       3.148   5.686  20.097  0.00  0.00    +0.000 C 
ATOM     19  O   UNL     1       2.830   5.265  21.195  0.00  0.00    +0.000 OA
ENDROOT
BRANCH  15  20
ATOM     20  N   UNL     1       0.197   9.669  19.613  0.00  0.00    +0.000 N 
ATOM     21  C   UNL     1      -0.291   9.695  20.991  0.00  0.00    +0.000 C 
ATOM     22  C   UNL     1      -0.526  10.526  18.680  0.00  0.00    +0.000 C 
ENDBRANCH  15  20
BRANCH   1  24
ATOM     23  C   UNL     1       1.845   2.250  22.046  0.00  0.00    +0.000 C 
ATOM     24  O   UNL     1       2.102   1.475  20.870  0.00  0.00    +0.000 OA
ENDBRANCH   1  24
BRANCH  11  25
ATOM     25  O   UNL     1       0.500   2.766  18.703  0.00  0.00    +0.000 OA
ATOM     26  C   UNL     1       0.090   3.817  19.610  0.00  0.00    +0.000 C 
ENDBRANCH  11  25
BRANCH   6  27
ATOM     27  C   UNL     1       5.065   6.327  15.768  0.00  0.00    +0.000 C 
BRANCH  27  28
ATOM     28  C   UNL     1       6.440   6.942  16.041  0.00  0.00    +0.000 C 
BRANCH  28  29
ATOM     29  C   UNL     1       7.527   5.889  16.249  0.00  0.00    +0.000 C 
BRANCH  29  30
ATOM     30  N   UNL     1       7.559   5.032  15.059  0.00  0.00    +0.000 NA
ATOM     31  N   UNL     1       8.132   5.520  14.062  0.00  0.00    +0.000 NA
ATOM     32  N   UNL     1       8.648   5.960  13.154  0.00  0.00    +0.000 NA
ENDBRANCH  29  30
ENDBRANCH  28  29
ENDBRANCH  27  28
ENDBRANCH   6  27
TORSDOF 7
ENDMDL
MODEL 7
REMARK VINA RESULT:      -5.9      8.664     10.801
REMARK  Name = 
REMARK  11 active torsions:
REMARK  status: ('A' for Active; 'I' for Inactive)
REMARK    1  A    between atoms: C_1  and  O_2
REMARK    2  A    between atoms: O_2  and  C_3
REMARK    3  A    between atoms: N_8  and  C_9
REMARK    4  A    between atoms: C_9  and  C_10
REMARK    5  A    between atoms: C_10  and  C_11
REMARK    6  A    between atoms: C_11  and  N_12
REMARK    7  A    between atoms: C_19  and  O_20
REMARK    8  A    between atoms: O_20  and  C_21
REMARK    9  A    between atoms: C_25  and  N_26
REMARK   10  A    between atoms: N_26  and  C_27
REMARK   11  A    between atoms: N_26  and  C_28
REMARK                            x       y       z     vdW  Elec       q    Type
REMARK                         _______ _______ _______ _____ _____    ______ ____
ROOT
ATOM      1  C   UNL     1       4.213  16.579  19.554  0.00  0.00    +0.000 A 
ATOM      2  C   UNL     1       4.855  17.270  20.575  0.00  0.00    +0.000 A 
ATOM      3  C   UNL     1       5.503  16.516  21.553  0.00  0.00    +0.000 A 
ATOM      4  C   UNL     1       6.938  16.135  21.325  0.00  0.00    +0.000 A 
ATOM      5  C   UNL     1       7.518  15.140  22.039  0.00  0.00    +0.000 A 
ATOM      6  N   UNL     1       6.821  14.543  23.095  0.00  0.00    +0.000 N 
ATOM      7  C   UNL     1       5.411  14.632  23.104  0.00  0.00    +0.000 A 
ATOM      8  O   UNL     1       4.663  14.168  23.950  0.00  0.00    +0.000 OA
ATOM      9  C   UNL     1       4.846  15.341  21.926  0.00  0.00    +0.000 A 
ATOM     10  C   UNL     1       4.285  14.589  20.889  0.00  0.00    +0.000 A 
ATOM     11  C   UNL     1       4.207  15.187  19.629  0.00  0.00    +0.000 A 
ATOM     12  C   UNL     1       8.640  14.554  21.292  0.00  0.00    +0.000 A 
ATOM     13  C   UNL     1       9.548  13.530  21.524  0.00  0.00    +0.000 A 
ATOM     14  C   UNL     1      10.386  13.091  20.468  0.00  0.00    +0.000 A 
ATOM     15  C   UNL     1      10.307  13.604  19.151  0.00  0.00    +0.000 A 
ATOM     16  C   UNL     1       9.394  14.646  18.951  0.00  0.00    +0.000 A 
ATOM     17  C   UNL     1       8.635  15.113  20.028  0.00  0.00    +0.000 A 
ATOM     18  C   UNL     1       7.690  16.208  20.041  0.00  0.00    +0.000 C 
ATOM     19  O   UNL     1       7.516  16.993  19.126  0.00  0.00    +0.000 OA
ENDROOT
BRANCH  15  20
ATOM     20  N   UNL     1      11.096  13.119  18.124  0.00  0.00    +0.000 N 
ATOM     21  C   UNL     1      11.316  13.869  16.888  0.00  0.00    +0.000 C 
ATOM     22  C   UNL     1      11.705  11.795  18.166  0.00  0.00    +0.000 C 
ENDBRANCH  15  20
BRANCH   1  24
ATOM     23  C   UNL     1       2.285  17.183  18.371  0.00  0.00    +0.000 C 
ATOM     24  O   UNL     1       3.703  17.310  18.518  0.00  0.00    +0.000 OA
ENDBRANCH   1  24
BRANCH  11  25
ATOM     25  O   UNL     1       4.251  14.372  18.527  0.00  0.00    +0.000 OA
ATOM     26  C   UNL     1       5.514  14.448  17.823  0.00  0.00    +0.000 C 
ENDBRANCH  11  25
BRANCH   6  27
ATOM     27  C   UNL     1       7.467  13.750  24.132  0.00  0.00    +0.000 C 
BRANCH  27  28
ATOM     28  C   UNL     1       7.344  12.239  23.917  0.00  0.00    +0.000 C 
BRANCH  28  29
ATOM     29  C   UNL     1       6.595  11.541  25.051  0.00  0.00    +0.000 C 
BRANCH  29  30
ATOM     30  N   UNL     1       5.454  10.829  24.467  0.00  0.00    +0.000 NA
ATOM     31  N   UNL     1       4.630  10.373  25.288  0.00  0.00    +0.000 NA
ATOM     32  N   UNL     1       3.881   9.955  26.030  0.00  0.00    +0.000 NA
ENDBRANCH  29  30
ENDBRANCH  28  29
ENDBRANCH  27  28
ENDBRANCH   6  27
TORSDOF 7
ENDMDL
MODEL 8
REMARK VINA RESULT:      -5.9      5.384      9.086
REMARK  Name = 
REMARK  11 active torsions:
REMARK  status: ('A' for Active; 'I' for Inactive)
REMARK    1  A    between atoms: C_1  and  O_2
REMARK    2  A    between atoms: O_2  and  C_3
REMARK    3  A    between atoms: N_8  and  C_9
REMARK    4  A    between atoms: C_9  and  C_10
REMARK    5  A    between atoms: C_10  and  C_11
REMARK    6  A    between atoms: C_11  and  N_12
REMARK    7  A    between atoms: C_19  and  O_20
REMARK    8  A    between atoms: O_20  and  C_21
REMARK    9  A    between atoms: C_25  and  N_26
REMARK   10  A    between atoms: N_26  and  C_27
REMARK   11  A    between atoms: N_26  and  C_28
REMARK                            x       y       z     vdW  Elec       q    Type
REMARK                         _______ _______ _______ _____ _____    ______ ____
ROOT
ATOM      1  C   UNL     1      -1.699  14.492  22.355  0.00  0.00    +0.000 A 
ATOM      2  C   UNL     1      -0.369  14.143  22.151  0.00  0.00    +0.000 A 
ATOM      3  C   UNL     1      -0.078  12.792  21.977  0.00  0.00    +0.000 A 
ATOM      4  C   UNL     1      -0.118  12.227  20.585  0.00  0.00    +0.000 A 
ATOM      5  C   UNL     1      -0.188  10.890  20.376  0.00  0.00    +0.000 A 
ATOM      6  N   UNL     1      -0.090  10.010  21.459  0.00  0.00    +0.000 N 
ATOM      7  C   UNL     1      -0.392  10.497  22.750  0.00  0.00    +0.000 A 
ATOM      8  O   UNL     1      -0.353   9.859  23.791  0.00  0.00    +0.000 OA
ATOM      9  C   UNL     1      -0.826  11.918  22.770  0.00  0.00    +0.000 A 
ATOM     10  C   UNL     1      -2.188  12.208  22.895  0.00  0.00    +0.000 A 
ATOM     11  C   UNL     1      -2.626  13.454  22.440  0.00  0.00    +0.000 A 
ATOM     12  C   UNL     1      -0.799  10.602  19.071  0.00  0.00    +0.000 A 
ATOM     13  C   UNL     1      -1.123   9.449  18.369  0.00  0.00    +0.000 A 
ATOM     14  C   UNL     1      -1.910   9.548  17.195  0.00  0.00    +0.000 A 
ATOM     15  C   UNL     1      -2.446  10.770  16.720  0.00  0.00    +0.000 A 
ATOM     16  C   UNL     1      -2.089  11.918  17.439  0.00  0.00    +0.000 A 
ATOM     17  C   UNL     1      -1.247  11.801  18.549  0.00  0.00    +0.000 A 
ATOM     18  C   UNL     1      -0.721  12.861  19.380  0.00  0.00    +0.000 C 
ATOM     19  O   UNL     1      -0.824  14.052  19.145  0.00  0.00    +0.000 OA
ENDROOT
BRANCH  15  20
ATOM     20  N   UNL     1      -3.259  10.833  15.604  0.00  0.00    +0.000 N 
ATOM     21  C   UNL     1      -4.520  11.575  15.598  0.00  0.00    +0.000 C 
ATOM     22  C   UNL     1      -2.958  10.105  14.377  0.00  0.00    +0.000 C 
ENDBRANCH  15  20
BRANCH   1  24
ATOM     23  C   UNL     1      -0.936  16.668  21.953  0.00  0.00    +0.000 C 
ATOM     24  O   UNL     1      -2.009  15.823  22.380  0.00  0.00    +0.000 OA
ENDBRANCH   1  24
BRANCH  11  25
ATOM     25  O   UNL     1      -3.916  13.555  21.987  0.00  0.00    +0.000 OA
ATOM     26  C   UNL     1      -4.133  12.840  20.746  0.00  0.00    +0.000 C 
ENDBRANCH  11  25
BRANCH   6  27
ATOM     27  C   UNL     1       0.213   8.592  21.311  0.00  0.00    +0.000 C 
BRANCH  27  28
ATOM     28  C   UNL     1       1.647   8.316  20.850  0.00  0.00    +0.000 C 
BRANCH  28  29
ATOM     29  C   UNL     1       1.784   6.982  20.119  0.00  0.00    +0.000 C 
BRANCH  29  30
ATOM     30  N   UNL     1       2.740   7.165  19.021  0.00  0.00    +0.000 NA
ATOM     31  N   UNL     1       2.463   8.079  18.217  0.00  0.00    +0.000 NA
ATOM     32  N   UNL     1       2.214   8.905  17.482  0.00  0.00    +0.000 NA
ENDBRANCH  29  30
ENDBRANCH  28  29
ENDBRANCH  27  28
ENDBRANCH   6  27
TORSDOF 7
ENDMDL
MODEL 9
REMARK VINA RESULT:      -5.8      5.299      9.095
REMARK  Name = 
REMARK  11 active torsions:
REMARK  status: ('A' for Active; 'I' for Inactive)
REMARK    1  A    between atoms: C_1  and  O_2
REMARK    2  A    between atoms: O_2  and  C_3
REMARK    3  A    between atoms: N_8  and  C_9
REMARK    4  A    between atoms: C_9  and  C_10
REMARK    5  A    between atoms: C_10  and  C_11
REMARK    6  A    between atoms: C_11  and  N_12
REMARK    7  A    between atoms: C_19  and  O_20
REMARK    8  A    between atoms: O_20  and  C_21
REMARK    9  A    between atoms: C_25  and  N_26
REMARK   10  A    between atoms: N_26  and  C_27
REMARK   11  A    between atoms: N_26  and  C_28
REMARK                            x       y       z     vdW  Elec       q    Type
REMARK                         _______ _______ _______ _____ _____    ______ ____
ROOT
ATOM      1  C   UNL     1      -1.807  14.389  22.558  0.00  0.00    +0.000 A 
ATOM      2  C   UNL     1      -0.468  14.095  22.328  0.00  0.00    +0.000 A 
ATOM      3  C   UNL     1      -0.132  12.761  22.105  0.00  0.00    +0.000 A 
ATOM      4  C   UNL     1      -0.171  12.242  20.695  0.00  0.00    +0.000 A 
ATOM      5  C   UNL     1      -0.196  10.911  20.442  0.00  0.00    +0.000 A 
ATOM      6  N   UNL     1      -0.054   9.999  21.493  0.00  0.00    +0.000 N 
ATOM      7  C   UNL     1      -0.356  10.432  22.803  0.00  0.00    +0.000 A 
ATOM      8  O   UNL     1      -0.282   9.761  23.821  0.00  0.00    +0.000 OA
ATOM      9  C   UNL     1      -0.839  11.836  22.876  0.00  0.00    +0.000 A 
ATOM     10  C   UNL     1      -2.210  12.073  23.026  0.00  0.00    +0.000 A 
ATOM     11  C   UNL     1      -2.696  13.317  22.619  0.00  0.00    +0.000 A 
ATOM     12  C   UNL     1      -0.814  10.646  19.134  0.00  0.00    +0.000 A 
ATOM     13  C   UNL     1      -1.106   9.507  18.397  0.00  0.00    +0.000 A 
ATOM     14  C   UNL     1      -1.911   9.617  17.236  0.00  0.00    +0.000 A 
ATOM     15  C   UNL     1      -2.495  10.835  16.810  0.00  0.00    +0.000 A 
ATOM     16  C   UNL     1      -2.169  11.969  17.563  0.00  0.00    +0.000 A 
ATOM     17  C   UNL     1      -1.310  11.845  18.658  0.00  0.00    +0.000 A 
ATOM     18  C   UNL     1      -0.811  12.895  19.519  0.00  0.00    +0.000 C 
ATOM     19  O   UNL     1      -0.958  14.088  19.326  0.00  0.00    +0.000 OA
ENDROOT
BRANCH  15  20
ATOM     20  N   UNL     1      -3.324  10.906  15.706  0.00  0.00    +0.000 N 
ATOM     21  C   UNL     1      -4.605  11.611  15.736  0.00  0.00    +0.000 C 
ATOM     22  C   UNL     1      -3.019  10.222  14.455  0.00  0.00    +0.000 C 
ENDBRANCH  15  20
BRANCH   1  24
ATOM     23  C   UNL     1      -2.196  16.216  23.969  0.00  0.00    +0.000 C 
ATOM     24  O   UNL     1      -2.163  15.707  22.632  0.00  0.00    +0.000 OA
ENDBRANCH   1  24
BRANCH  11  25
ATOM     25  O   UNL     1      -3.995  13.388  22.184  0.00  0.00    +0.000 OA
ATOM     26  C   UNL     1      -4.186  12.774  20.887  0.00  0.00    +0.000 C 
ENDBRANCH  11  25
BRANCH   6  27
ATOM     27  C   UNL     1       0.297   8.599  21.293  0.00  0.00    +0.000 C 
BRANCH  27  28
ATOM     28  C   UNL     1       1.749   8.386  20.858  0.00  0.00    +0.000 C 
BRANCH  28  29
ATOM     29  C   UNL     1       1.933   7.124  20.017  0.00  0.00    +0.000 C 
BRANCH  29  30
ATOM     30  N   UNL     1       1.639   5.967  20.869  0.00  0.00    +0.000 NA
ATOM     31  N   UNL     1       1.448   4.891  20.263  0.00  0.00    +0.000 NA
ATOM     32  N   UNL     1       1.271   3.913  19.718  0.00  0.00    +0.000 NA
ENDBRANCH  29  30
ENDBRANCH  28  29
ENDBRANCH  27  28
ENDBRANCH   6  27
TORSDOF 7
ENDMDL
