MODEL 1
REMARK VINA RESULT:      -7.7      0.000      0.000
REMARK  Name = 
REMARK  8 active torsions:
REMARK  status: ('A' for Active; 'I' for Inactive)
REMARK    1  A    between atoms: C_1  and  C_2
REMARK    2  A    between atoms: N_4  and  C_5
REMARK    3  A    between atoms: C_5  and  C_6
REMARK    4  A    between atoms: C_5  and  C_7
REMARK    5  A    between atoms: C_10  and  C_11
REMARK    6  A    between atoms: N_13  and  C_14
REMARK    7  A    between atoms: N_17  and  C_18
REMARK    8  A    between atoms: N_17  and  C_19
REMARK                            x       y       z     vdW  Elec       q    Type
REMARK                         _______ _______ _______ _____ _____    ______ ____
ROOT
ATOM      1  C   UNL     1       1.918   7.672  18.132  0.00  0.00    +0.000 C 
ATOM      2  C   UNL     1       1.667   8.242  19.540  0.00  0.00    +0.000 C 
ATOM      3  N   UNL     1       1.416   9.518  18.948  0.00  0.00    +0.000 N 
ATOM      4  C   UNL     1       1.846   9.131  17.643  0.00  0.00    +0.000 C 
ENDROOT
BRANCH   3   5
ATOM      5  C   UNL     1       0.360  10.400  19.256  0.00  0.00    +0.000 A 
ATOM      6  N   UNL     1      -0.802  10.275  18.572  0.00  0.00    +0.000 NA
ATOM      7  C   UNL     1      -1.830  11.092  18.864  0.00  0.00    +0.000 A 
ATOM      8  N   UNL     1      -3.027  10.912  18.210  0.00  0.00    +0.000 N 
ATOM      9  C   UNL     1      -4.172  11.744  18.515  0.00  0.00    +0.000 C 
ATOM     10  C   UNL     1      -3.123  10.012  17.079  0.00  0.00    +0.000 C 
ATOM     11  N   UNL     1      -1.738  12.053  19.798  0.00  0.00    +0.000 NA
ATOM     12  C   UNL     1      -0.568  12.181  20.451  0.00  0.00    +0.000 A 
ATOM     13  C   UNL     1       0.513  11.375  20.220  0.00  0.00    +0.000 A 
ATOM     14  F   UNL     1       1.652  11.548  20.907  0.00  0.00    +0.000 F 
ENDBRANCH   3   5
BRANCH   1  18
ATOM     15  C   UNL     1       5.591   5.325  17.247  0.00  0.00    +0.000 A 
ATOM     16  C   UNL     1       4.439   4.687  17.713  0.00  0.00    +0.000 A 
ATOM     17  C   UNL     1       3.283   5.427  17.995  0.00  0.00    +0.000 A 
ATOM     18  C   UNL     1       3.227   6.824  17.835  0.00  0.00    +0.000 A 
ATOM     19  C   UNL     1       4.400   7.442  17.363  0.00  0.00    +0.000 A 
ATOM     20  C   UNL     1       5.559   6.716  17.084  0.00  0.00    +0.000 A 
BRANCH  15  21
ATOM     21  C   UNL     1       6.834   4.526  16.888  0.00  0.00    +0.000 C 
ATOM     22  C   UNL     1       7.878   4.622  18.004  0.00  0.00    +0.000 C 
BRANCH  21  26
ATOM     23  C   UNL     1       7.575   5.216  13.236  0.00  0.00    +0.000 C 
ATOM     24  C   UNL     1       6.913   4.531  14.399  0.00  0.00    +0.000 C 
ATOM     25  O   UNL     1       6.079   3.646  14.260  0.00  0.00    +0.000 OA
ATOM     26  N   UNL     1       7.345   5.008  15.612  0.00  0.00    +0.000 N 
ATOM     27  H   UNL     1       7.843   5.889  15.619  0.00  0.00    +0.000 HD
ENDBRANCH  21  26
ENDBRANCH  15  21
ENDBRANCH   1  18
TORSDOF 4
ENDMDL
MODEL 2
REMARK VINA RESULT:      -7.5      0.772      1.155
REMARK  Name = 
REMARK  8 active torsions:
REMARK  status: ('A' for Active; 'I' for Inactive)
REMARK    1  A    between atoms: C_1  and  C_2
REMARK    2  A    between atoms: N_4  and  C_5
REMARK    3  A    between atoms: C_5  and  C_6
REMARK    4  A    between atoms: C_5  and  C_7
REMARK    5  A    between atoms: C_10  and  C_11
REMARK    6  A    between atoms: N_13  and  C_14
REMARK    7  A    between atoms: N_17  and  C_18
REMARK    8  A    between atoms: N_17  and  C_19
REMARK                            x       y       z     vdW  Elec       q    Type
REMARK                         _______ _______ _______ _____ _____    ______ ____
ROOT
ATOM      1  C   UNL     1       1.670   7.956  18.604  0.00  0.00    +0.000 C 
ATOM      2  C   UNL     1       1.473   8.759  19.901  0.00  0.00    +0.000 C 
ATOM      3  N   UNL     1       1.064   9.879  19.114  0.00  0.00    +0.000 N 
ATOM      4  C   UNL     1       1.429   9.287  17.867  0.00  0.00    +0.000 C 
ENDROOT
BRANCH   3   5
ATOM      5  C   UNL     1      -0.042  10.722  19.350  0.00  0.00    +0.000 A 
ATOM      6  N   UNL     1      -1.155  10.545  18.601  0.00  0.00    +0.000 NA
ATOM      7  C   UNL     1      -2.230  11.322  18.823  0.00  0.00    +0.000 A 
ATOM      8  N   UNL     1      -3.379  11.090  18.103  0.00  0.00    +0.000 N 
ATOM      9  C   UNL     1      -4.571  11.878  18.332  0.00  0.00    +0.000 C 
ATOM     10  C   UNL     1      -3.373  10.177  16.978  0.00  0.00    +0.000 C 
ATOM     11  N   UNL     1      -2.231  12.295  19.751  0.00  0.00    +0.000 NA
ATOM     12  C   UNL     1      -1.107  12.475  20.469  0.00  0.00    +0.000 A 
ATOM     13  C   UNL     1       0.016  11.710  20.310  0.00  0.00    +0.000 A 
ATOM     14  F   UNL     1       1.106  11.934  21.060  0.00  0.00    +0.000 F 
ENDBRANCH   3   5
BRANCH   1  18
ATOM     15  C   UNL     1       5.478   5.754  17.949  0.00  0.00    +0.000 A 
ATOM     16  C   UNL     1       5.133   6.830  17.128  0.00  0.00    +0.000 A 
ATOM     17  C   UNL     1       3.931   7.521  17.332  0.00  0.00    +0.000 A 
ATOM     18  C   UNL     1       3.024   7.169  18.349  0.00  0.00    +0.000 A 
ATOM     19  C   UNL     1       3.397   6.084  19.164  0.00  0.00    +0.000 A 
ATOM     20  C   UNL     1       4.589   5.384  18.967  0.00  0.00    +0.000 A 
BRANCH  15  21
ATOM     21  C   UNL     1       6.803   5.030  17.771  0.00  0.00    +0.000 C 
ATOM     22  C   UNL     1       7.842   5.552  18.768  0.00  0.00    +0.000 C 
BRANCH  21  26
ATOM     23  C   UNL     1       7.354   4.789  14.029  0.00  0.00    +0.000 C 
ATOM     24  C   UNL     1       6.772   4.404  15.361  0.00  0.00    +0.000 C 
ATOM     25  O   UNL     1       5.970   3.489  15.494  0.00  0.00    +0.000 OA
ATOM     26  N   UNL     1       7.237   5.186  16.390  0.00  0.00    +0.000 N 
ATOM     27  H   UNL     1       7.699   6.053  16.147  0.00  0.00    +0.000 HD
ENDBRANCH  21  26
ENDBRANCH  15  21
ENDBRANCH   1  18
TORSDOF 4
ENDMDL
MODEL 3
REMARK VINA RESULT:      -7.4      2.930      3.913
REMARK  Name = 
REMARK  8 active torsions:
REMARK  status: ('A' for Active; 'I' for Inactive)
REMARK    1  A    between atoms: C_1  and  C_2
REMARK    2  A    between atoms: N_4  and  C_5
REMARK    3  A    between atoms: C_5  and  C_6
REMARK    4  A    between atoms: C_5  and  C_7
REMARK    5  A    between atoms: C_10  and  C_11
REMARK    6  A    between atoms: N_13  and  C_14
REMARK    7  A    between atoms: N_17  and  C_18
REMARK    8  A    between atoms: N_17  and  C_19
REMARK                            x       y       z     vdW  Elec       q    Type
REMARK                         _______ _______ _______ _____ _____    ______ ____
ROOT
ATOM      1  C   UNL     1       0.806   8.018  21.026  0.00  0.00    +0.000 C 
ATOM      2  C   UNL     1       1.342   8.931  22.143  0.00  0.00    +0.000 C 
ATOM      3  N   UNL     1       0.946  10.065  21.369  0.00  0.00    +0.000 N 
ATOM      4  C   UNL     1       0.632   9.308  20.201  0.00  0.00    +0.000 C 
ENDROOT
BRANCH   3   5
ATOM      5  C   UNL     1       0.267  11.211  21.833  0.00  0.00    +0.000 A 
ATOM      6  N   UNL     1       0.702  12.425  21.422  0.00  0.00    +0.000 NA
ATOM      7  C   UNL     1       0.057  13.531  21.834  0.00  0.00    +0.000 A 
ATOM      8  N   UNL     1       0.465  14.755  21.358  0.00  0.00    +0.000 N 
ATOM      9  C   UNL     1      -0.221  15.969  21.746  0.00  0.00    +0.000 C 
ATOM     10  C   UNL     1       1.695  14.880  20.603  0.00  0.00    +0.000 C 
ATOM     11  N   UNL     1      -0.996  13.477  22.667  0.00  0.00    +0.000 NA
ATOM     12  C   UNL     1      -1.400  12.263  23.088  0.00  0.00    +0.000 A 
ATOM     13  C   UNL     1      -0.804  11.096  22.694  0.00  0.00    +0.000 A 
ATOM     14  F   UNL     1      -1.255   9.915  23.144  0.00  0.00    +0.000 F 
ENDBRANCH   3   5
BRANCH   1  18
ATOM     15  C   UNL     1       3.321   4.757  19.347  0.00  0.00    +0.000 A 
ATOM     16  C   UNL     1       2.492   4.517  20.445  0.00  0.00    +0.000 A 
ATOM     17  C   UNL     1       1.702   5.545  20.976  0.00  0.00    +0.000 A 
ATOM     18  C   UNL     1       1.711   6.850  20.446  0.00  0.00    +0.000 A 
ATOM     19  C   UNL     1       2.553   7.065  19.340  0.00  0.00    +0.000 A 
ATOM     20  C   UNL     1       3.348   6.049  18.806  0.00  0.00    +0.000 A 
BRANCH  15  21
ATOM     21  C   UNL     1       4.143   3.637  18.730  0.00  0.00    +0.000 C 
ATOM     22  C   UNL     1       3.919   2.323  19.485  0.00  0.00    +0.000 C 
BRANCH  21  26
ATOM     23  C   UNL     1       7.647   4.778  17.846  0.00  0.00    +0.000 C 
ATOM     24  C   UNL     1       6.224   4.374  17.578  0.00  0.00    +0.000 C 
ATOM     25  O   UNL     1       5.740   4.358  16.454  0.00  0.00    +0.000 OA
ATOM     26  N   UNL     1       5.544   4.036  18.722  0.00  0.00    +0.000 N 
ATOM     27  H   UNL     1       5.949   4.311  19.607  0.00  0.00    +0.000 HD
ENDBRANCH  21  26
ENDBRANCH  15  21
ENDBRANCH   1  18
TORSDOF 4
ENDMDL
MODEL 4
REMARK VINA RESULT:      -7.3      4.074     10.011
REMARK  Name = 
REMARK  8 active torsions:
REMARK  status: ('A' for Active; 'I' for Inactive)
REMARK    1  A    between atoms: C_1  and  C_2
REMARK    2  A    between atoms: N_4  and  C_5
REMARK    3  A    between atoms: C_5  and  C_6
REMARK    4  A    between atoms: C_5  and  C_7
REMARK    5  A    between atoms: C_10  and  C_11
REMARK    6  A    between atoms: N_13  and  C_14
REMARK    7  A    between atoms: N_17  and  C_18
REMARK    8  A    between atoms: N_17  and  C_19
REMARK                            x       y       z     vdW  Elec       q    Type
REMARK                         _______ _______ _______ _____ _____    ______ ____
ROOT
ATOM      1  C   UNL     1       2.017   8.889  19.269  0.00  0.00    +0.000 C 
ATOM      2  C   UNL     1       1.996   7.452  19.818  0.00  0.00    +0.000 C 
ATOM      3  N   UNL     1       2.154   6.968  18.483  0.00  0.00    +0.000 N 
ATOM      4  C   UNL     1       1.962   8.243  17.871  0.00  0.00    +0.000 C 
ENDROOT
BRANCH   3   5
ATOM      5  C   UNL     1       3.033   5.954  18.049  0.00  0.00    +0.000 A 
ATOM      6  N   UNL     1       4.347   6.252  17.925  0.00  0.00    +0.000 NA
ATOM      7  C   UNL     1       5.207   5.294  17.534  0.00  0.00    +0.000 A 
ATOM      8  N   UNL     1       6.550   5.588  17.477  0.00  0.00    +0.000 N 
ATOM      9  C   UNL     1       7.515   4.581  17.094  0.00  0.00    +0.000 C 
ATOM     10  C   UNL     1       7.012   6.953  17.622  0.00  0.00    +0.000 C 
ATOM     11  N   UNL     1       4.802   4.049  17.231  0.00  0.00    +0.000 NA
ATOM     12  C   UNL     1       3.487   3.776  17.333  0.00  0.00    +0.000 A 
ATOM     13  C   UNL     1       2.560   4.694  17.744  0.00  0.00    +0.000 A 
ATOM     14  F   UNL     1       1.264   4.361  17.831  0.00  0.00    +0.000 F 
ENDBRANCH   3   5
BRANCH   1  18
ATOM     15  C   UNL     1      -1.139  11.813  20.392  0.00  0.00    +0.000 A 
ATOM     16  C   UNL     1      -0.271  11.304  21.360  0.00  0.00    +0.000 A 
ATOM     17  C   UNL     1       0.721  10.380  21.007  0.00  0.00    +0.000 A 
ATOM     18  C   UNL     1       0.884   9.920  19.686  0.00  0.00    +0.000 A 
ATOM     19  C   UNL     1      -0.001  10.451  18.730  0.00  0.00    +0.000 A 
ATOM     20  C   UNL     1      -0.997  11.368  19.071  0.00  0.00    +0.000 A 
BRANCH  15  21
ATOM     21  C   UNL     1      -2.186  12.856  20.754  0.00  0.00    +0.000 C 
ATOM     22  C   UNL     1      -1.710  14.258  20.360  0.00  0.00    +0.000 C 
BRANCH  21  26
ATOM     23  C   UNL     1      -3.757  12.422  24.176  0.00  0.00    +0.000 C 
ATOM     24  C   UNL     1      -3.733  12.517  22.675  0.00  0.00    +0.000 C 
ATOM     25  O   UNL     1      -4.738  12.393  21.987  0.00  0.00    +0.000 OA
ATOM     26  N   UNL     1      -2.475  12.751  22.177  0.00  0.00    +0.000 N 
ATOM     27  H   UNL     1      -1.690  12.597  22.796  0.00  0.00    +0.000 HD
ENDBRANCH  21  26
ENDBRANCH  15  21
ENDBRANCH   1  18
TORSDOF 4
ENDMDL
MODEL 5
REMARK VINA RESULT:      -7.2      6.645      9.160
REMARK  Name = 
REMARK  8 active torsions:
REMARK  status: ('A' for Active; 'I' for Inactive)
REMARK    1  A    between atoms: C_1  and  C_2
REMARK    2  A    between atoms: N_4  and  C_5
REMARK    3  A    between atoms: C_5  and  C_6
REMARK    4  A    between atoms: C_5  and  C_7
REMARK    5  A    between atoms: C_10  and  C_11
REMARK    6  A    between atoms: N_13  and  C_14
REMARK    7  A    between atoms: N_17  and  C_18
REMARK    8  A    between atoms: N_17  and  C_19
REMARK                            x       y       z     vdW  Elec       q    Type
REMARK                         _______ _______ _______ _____ _____    ______ ____
ROOT
ATOM      1  C   UNL     1       7.925   8.167  17.538  0.00  0.00    +0.000 C 
ATOM      2  C   UNL     1       7.880   6.884  18.386  0.00  0.00    +0.000 C 
ATOM      3  N   UNL     1       6.514   6.712  18.004  0.00  0.00    +0.000 N 
ATOM      4  C   UNL     1       6.403   7.992  17.382  0.00  0.00    +0.000 C 
ENDROOT
BRANCH   3   5
ATOM      5  C   UNL     1       5.897   5.517  17.579  0.00  0.00    +0.000 A 
ATOM      6  N   UNL     1       4.933   4.978  18.361  0.00  0.00    +0.000 NA
ATOM      7  C   UNL     1       4.316   3.850  17.964  0.00  0.00    +0.000 A 
ATOM      8  N   UNL     1       3.291   3.348  18.732  0.00  0.00    +0.000 N 
ATOM      9  C   UNL     1       2.575   2.157  18.328  0.00  0.00    +0.000 C 
ATOM     10  C   UNL     1       3.022   3.890  20.049  0.00  0.00    +0.000 C 
ATOM     11  N   UNL     1       4.643   3.219  16.824  0.00  0.00    +0.000 NA
ATOM     12  C   UNL     1       5.622   3.753  16.071  0.00  0.00    +0.000 A 
ATOM     13  C   UNL     1       6.279   4.907  16.403  0.00  0.00    +0.000 A 
ATOM     14  F   UNL     1       7.244   5.394  15.608  0.00  0.00    +0.000 F 
ENDBRANCH   3   5
BRANCH   1  18
ATOM     15  C   UNL     1       9.522  11.959  19.224  0.00  0.00    +0.000 A 
ATOM     16  C   UNL     1       9.699  10.753  19.905  0.00  0.00    +0.000 A 
ATOM     17  C   UNL     1       9.193   9.559  19.376  0.00  0.00    +0.000 A 
ATOM     18  C   UNL     1       8.486   9.516  18.158  0.00  0.00    +0.000 A 
ATOM     19  C   UNL     1       8.324  10.744  17.492  0.00  0.00    +0.000 A 
ATOM     20  C   UNL     1       8.819  11.941  18.012  0.00  0.00    +0.000 A 
BRANCH  15  21
ATOM     21  C   UNL     1      10.112  13.253  19.763  0.00  0.00    +0.000 C 
ATOM     22  C   UNL     1       9.715  13.459  21.228  0.00  0.00    +0.000 C 
BRANCH  21  26
ATOM     23  C   UNL     1       9.787  16.424  17.712  0.00  0.00    +0.000 C 
ATOM     24  C   UNL     1      10.458  15.448  18.639  0.00  0.00    +0.000 C 
ATOM     25  O   UNL     1      11.584  15.625  19.086  0.00  0.00    +0.000 OA
ATOM     26  N   UNL     1       9.676  14.353  18.914  0.00  0.00    +0.000 N 
ATOM     27  H   UNL     1       8.878  14.184  18.315  0.00  0.00    +0.000 HD
ENDBRANCH  21  26
ENDBRANCH  15  21
ENDBRANCH   1  18
TORSDOF 4
ENDMDL
MODEL 6
REMARK VINA RESULT:      -7.2      1.166      1.538
REMARK  Name = 
REMARK  8 active torsions:
REMARK  status: ('A' for Active; 'I' for Inactive)
REMARK    1  A    between atoms: C_1  and  C_2
REMARK    2  A    between atoms: N_4  and  C_5
REMARK    3  A    between atoms: C_5  and  C_6
REMARK    4  A    between atoms: C_5  and  C_7
REMARK    5  A    between atoms: C_10  and  C_11
REMARK    6  A    between atoms: N_13  and  C_14
REMARK    7  A    between atoms: N_17  and  C_18
REMARK    8  A    between atoms: N_17  and  C_19
REMARK                            x       y       z     vdW  Elec       q    Type
REMARK                         _______ _______ _______ _____ _____    ______ ____
ROOT
ATOM      1  C   UNL     1       2.084   7.580  18.258  0.00  0.00    +0.000 C 
ATOM      2  C   UNL     1       1.739   7.563  19.758  0.00  0.00    +0.000 C 
ATOM      3  N   UNL     1       1.681   8.990  19.733  0.00  0.00    +0.000 N 
ATOM      4  C   UNL     1       2.210   9.108  18.412  0.00  0.00    +0.000 C 
ENDROOT
BRANCH   3   5
ATOM      5  C   UNL     1       0.690   9.808  20.315  0.00  0.00    +0.000 A 
ATOM      6  N   UNL     1      -0.188  10.434  19.497  0.00  0.00    +0.000 NA
ATOM      7  C   UNL     1      -1.155  11.202  20.031  0.00  0.00    +0.000 A 
ATOM      8  N   UNL     1      -2.083  11.779  19.195  0.00  0.00    +0.000 N 
ATOM      9  C   UNL     1      -3.161  12.585  19.727  0.00  0.00    +0.000 C 
ATOM     10  C   UNL     1      -1.903  11.746  17.758  0.00  0.00    +0.000 C 
ATOM     11  N   UNL     1      -1.266  11.394  21.356  0.00  0.00    +0.000 NA
ATOM     12  C   UNL     1      -0.369  10.785  22.154  0.00  0.00    +0.000 A 
ATOM     13  C   UNL     1       0.628   9.976  21.682  0.00  0.00    +0.000 A 
ATOM     14  F   UNL     1       1.490   9.392  22.529  0.00  0.00    +0.000 F 
ENDBRANCH   3   5
BRANCH   1  18
ATOM     15  C   UNL     1       5.584   5.260  16.794  0.00  0.00    +0.000 A 
ATOM     16  C   UNL     1       5.288   6.512  16.250  0.00  0.00    +0.000 A 
ATOM     17  C   UNL     1       4.183   7.241  16.709  0.00  0.00    +0.000 A 
ATOM     18  C   UNL     1       3.327   6.755  17.716  0.00  0.00    +0.000 A 
ATOM     19  C   UNL     1       3.648   5.493  18.247  0.00  0.00    +0.000 A 
ATOM     20  C   UNL     1       4.743   4.755  17.794  0.00  0.00    +0.000 A 
BRANCH  15  21
ATOM     21  C   UNL     1       6.810   4.483  16.341  0.00  0.00    +0.000 C 
ATOM     22  C   UNL     1       7.834   4.381  17.475  0.00  0.00    +0.000 C 
BRANCH  21  26
ATOM     23  C   UNL     1       7.789   5.541  12.835  0.00  0.00    +0.000 C 
ATOM     24  C   UNL     1       7.134   4.679  13.880  0.00  0.00    +0.000 C 
ATOM     25  O   UNL     1       6.472   3.688  13.601  0.00  0.00    +0.000 OA
ATOM     26  N   UNL     1       7.360   5.129  15.157  0.00  0.00    +0.000 N 
ATOM     27  H   UNL     1       7.706   6.073  15.267  0.00  0.00    +0.000 HD
ENDBRANCH  21  26
ENDBRANCH  15  21
ENDBRANCH   1  18
TORSDOF 4
ENDMDL
MODEL 7
REMARK VINA RESULT:      -7.1      2.598      4.240
REMARK  Name = 
REMARK  8 active torsions:
REMARK  status: ('A' for Active; 'I' for Inactive)
REMARK    1  A    between atoms: C_1  and  C_2
REMARK    2  A    between atoms: N_4  and  C_5
REMARK    3  A    between atoms: C_5  and  C_6
REMARK    4  A    between atoms: C_5  and  C_7
REMARK    5  A    between atoms: C_10  and  C_11
REMARK    6  A    between atoms: N_13  and  C_14
REMARK    7  A    between atoms: N_17  and  C_18
REMARK    8  A    between atoms: N_17  and  C_19
REMARK                            x       y       z     vdW  Elec       q    Type
REMARK                         _______ _______ _______ _____ _____    ______ ____
ROOT
ATOM      1  C   UNL     1       0.366  10.198  20.412  0.00  0.00    +0.000 C 
ATOM      2  C   UNL     1       0.922  11.623  20.577  0.00  0.00    +0.000 C 
ATOM      3  N   UNL     1      -0.314  12.134  20.073  0.00  0.00    +0.000 N 
ATOM      4  C   UNL     1      -0.820  10.858  19.683  0.00  0.00    +0.000 C 
ENDROOT
BRANCH   3   5
ATOM      5  C   UNL     1      -1.062  13.208  20.597  0.00  0.00    +0.000 A 
ATOM      6  N   UNL     1      -1.852  12.977  21.672  0.00  0.00    +0.000 NA
ATOM      7  C   UNL     1      -2.558  13.992  22.202  0.00  0.00    +0.000 A 
ATOM      8  N   UNL     1      -3.304  13.762  23.335  0.00  0.00    +0.000 N 
ATOM      9  C   UNL     1      -4.053  14.831  23.961  0.00  0.00    +0.000 C 
ATOM     10  C   UNL     1      -3.505  12.413  23.825  0.00  0.00    +0.000 C 
ATOM     11  N   UNL     1      -2.530  15.231  21.684  0.00  0.00    +0.000 NA
ATOM     12  C   UNL     1      -1.760  15.438  20.599  0.00  0.00    +0.000 A 
ATOM     13  C   UNL     1      -1.001  14.459  20.019  0.00  0.00    +0.000 A 
ATOM     14  F   UNL     1      -0.249  14.728  18.941  0.00  0.00    +0.000 F 
ENDBRANCH   3   5
BRANCH   1  18
ATOM     15  C   UNL     1       2.785   7.094  18.340  0.00  0.00    +0.000 A 
ATOM     16  C   UNL     1       2.391   8.252  17.665  0.00  0.00    +0.000 A 
ATOM     17  C   UNL     1       1.625   9.227  18.316  0.00  0.00    +0.000 A 
ATOM     18  C   UNL     1       1.215   9.091  19.656  0.00  0.00    +0.000 A 
ATOM     19  C   UNL     1       1.627   7.917  20.315  0.00  0.00    +0.000 A 
ATOM     20  C   UNL     1       2.385   6.936  19.674  0.00  0.00    +0.000 A 
BRANCH  15  21
ATOM     21  C   UNL     1       3.659   6.053  17.660  0.00  0.00    +0.000 C 
ATOM     22  C   UNL     1       3.289   4.644  18.132  0.00  0.00    +0.000 C 
BRANCH  21  26
ATOM     23  C   UNL     1       7.318   7.024  17.474  0.00  0.00    +0.000 C 
ATOM     24  C   UNL     1       5.950   6.709  16.936  0.00  0.00    +0.000 C 
ATOM     25  O   UNL     1       5.680   6.754  15.743  0.00  0.00    +0.000 OA
ATOM     26  N   UNL     1       5.055   6.373  17.922  0.00  0.00    +0.000 N 
ATOM     27  H   UNL     1       5.304   6.598  18.877  0.00  0.00    +0.000 HD
ENDBRANCH  21  26
ENDBRANCH  15  21
ENDBRANCH   1  18
TORSDOF 4
ENDMDL
MODEL 8
REMARK VINA RESULT:      -7.1      6.610      9.111
REMARK  Name = 
REMARK  8 active torsions:
REMARK  status: ('A' for Active; 'I' for Inactive)
REMARK    1  A    between atoms: C_1  and  C_2
REMARK    2  A    between atoms: N_4  and  C_5
REMARK    3  A    between atoms: C_5  and  C_6
REMARK    4  A    between atoms: C_5  and  C_7
REMARK    5  A    between atoms: C_10  and  C_11
REMARK    6  A    between atoms: N_13  and  C_14
REMARK    7  A    between atoms: N_17  and  C_18
REMARK    8  A    between atoms: N_17  and  C_19
REMARK                            x       y       z     vdW  Elec       q    Type
REMARK                         _______ _______ _______ _____ _____    ______ ____
ROOT
ATOM      1  C   UNL     1       7.980   8.212  17.506  0.00  0.00    +0.000 C 
ATOM      2  C   UNL     1       7.877   6.956  18.390  0.00  0.00    +0.000 C 
ATOM      3  N   UNL     1       6.541   6.768  17.919  0.00  0.00    +0.000 N 
ATOM      4  C   UNL     1       6.472   8.027  17.251  0.00  0.00    +0.000 C 
ENDROOT
BRANCH   3   5
ATOM      5  C   UNL     1       5.956   5.558  17.490  0.00  0.00    +0.000 A 
ATOM      6  N   UNL     1       5.015   4.985  18.277  0.00  0.00    +0.000 NA
ATOM      7  C   UNL     1       4.428   3.843  17.877  0.00  0.00    +0.000 A 
ATOM      8  N   UNL     1       3.426   3.304  18.650  0.00  0.00    +0.000 N 
ATOM      9  C   UNL     1       2.742   2.095  18.243  0.00  0.00    +0.000 C 
ATOM     10  C   UNL     1       3.153   3.828  19.973  0.00  0.00    +0.000 C 
ATOM     11  N   UNL     1       4.764   3.229  16.729  0.00  0.00    +0.000 NA
ATOM     12  C   UNL     1       5.720   3.799  15.972  0.00  0.00    +0.000 A 
ATOM     13  C   UNL     1       6.345   4.969  16.306  0.00  0.00    +0.000 A 
ATOM     14  F   UNL     1       7.288   5.490  15.507  0.00  0.00    +0.000 F 
ENDBRANCH   3   5
BRANCH   1  18
ATOM     15  C   UNL     1       9.404  12.031  19.284  0.00  0.00    +0.000 A 
ATOM     16  C   UNL     1       8.647  12.036  18.110  0.00  0.00    +0.000 A 
ATOM     17  C   UNL     1       8.202  10.833  17.548  0.00  0.00    +0.000 A 
ATOM     18  C   UNL     1       8.495   9.581  18.121  0.00  0.00    +0.000 A 
ATOM     19  C   UNL     1       9.257   9.604  19.304  0.00  0.00    +0.000 A 
ATOM     20  C   UNL     1       9.710  10.797  19.870  0.00  0.00    +0.000 A 
BRANCH  15  21
ATOM     21  C   UNL     1       9.848  13.334  19.931  0.00  0.00    +0.000 C 
ATOM     22  C   UNL     1       8.846  13.773  21.003  0.00  0.00    +0.000 C 
BRANCH  21  26
ATOM     23  C   UNL     1      11.129  15.690  17.253  0.00  0.00    +0.000 C 
ATOM     24  C   UNL     1      11.232  14.642  18.327  0.00  0.00    +0.000 C 
ATOM     25  O   UNL     1      12.293  14.124  18.648  0.00  0.00    +0.000 OA
ATOM     26  N   UNL     1      10.017  14.338  18.890  0.00  0.00    +0.000 N 
ATOM     27  H   UNL     1       9.184  14.635  18.398  0.00  0.00    +0.000 HD
ENDBRANCH  21  26
ENDBRANCH  15  21
ENDBRANCH   1  18
TORSDOF 4
ENDMDL
MODEL 9
REMARK VINA RESULT:      -7.1      1.818      2.934
REMARK  Name = 
REMARK  8 active torsions:
REMARK  status: ('A' for Active; 'I' for Inactive)
REMARK    1  A    between atoms: C_1  and  C_2
REMARK    2  A    between atoms: N_4  and  C_5
REMARK    3  A    between atoms: C_5  and  C_6
REMARK    4  A    between atoms: C_5  and  C_7
REMARK    5  A    between atoms: C_10  and  C_11
REMARK    6  A    between atoms: N_13  and  C_14
REMARK    7  A    between atoms: N_17  and  C_18
REMARK    8  A    between atoms: N_17  and  C_19
REMARK                            x       y       z     vdW  Elec       q    Type
REMARK                         _______ _______ _______ _____ _____    ______ ____
ROOT
ATOM      1  C   UNL     1       1.619   8.190  18.248  0.00  0.00    +0.000 C 
ATOM      2  C   UNL     1       1.481   8.718  19.686  0.00  0.00    +0.000 C 
ATOM      3  N   UNL     1       1.453  10.048  19.166  0.00  0.00    +0.000 N 
ATOM      4  C   UNL     1       1.799   9.663  17.836  0.00  0.00    +0.000 C 
ENDROOT
BRANCH   3   5
ATOM      5  C   UNL     1       0.569  11.083  19.536  0.00  0.00    +0.000 A 
ATOM      6  N   UNL     1       1.085  12.193  20.115  0.00  0.00    +0.000 NA
ATOM      7  C   UNL     1       0.263  13.202  20.456  0.00  0.00    +0.000 A 
ATOM      8  N   UNL     1       0.805  14.352  20.981  0.00  0.00    +0.000 N 
ATOM      9  C   UNL     1      -0.036  15.477  21.331  0.00  0.00    +0.000 C 
ATOM     10  C   UNL     1       2.201  14.401  21.364  0.00  0.00    +0.000 C 
ATOM     11  N   UNL     1      -1.066  13.138  20.267  0.00  0.00    +0.000 NA
ATOM     12  C   UNL     1      -1.566  12.016  19.714  0.00  0.00    +0.000 A 
ATOM     13  C   UNL     1      -0.789  10.960  19.325  0.00  0.00    +0.000 A 
ATOM     14  F   UNL     1      -1.345   9.871  18.775  0.00  0.00    +0.000 F 
ENDBRANCH   3   5
BRANCH   1  18
ATOM     15  C   UNL     1       4.801   5.235  17.287  0.00  0.00    +0.000 A 
ATOM     16  C   UNL     1       5.022   6.601  17.093  0.00  0.00    +0.000 A 
ATOM     17  C   UNL     1       4.018   7.531  17.392  0.00  0.00    +0.000 A 
ATOM     18  C   UNL     1       2.758   7.145  17.886  0.00  0.00    +0.000 A 
ATOM     19  C   UNL     1       2.562   5.764  18.075  0.00  0.00    +0.000 A 
ATOM     20  C   UNL     1       3.553   4.828  17.775  0.00  0.00    +0.000 A 
BRANCH  15  21
ATOM     21  C   UNL     1       5.901   4.221  17.016  0.00  0.00    +0.000 C 
ATOM     22  C   UNL     1       7.269   4.792  17.399  0.00  0.00    +0.000 C 
BRANCH  21  26
ATOM     23  C   UNL     1       6.367   3.820  13.276  0.00  0.00    +0.000 C 
ATOM     24  C   UNL     1       6.593   4.428  14.633  0.00  0.00    +0.000 C 
ATOM     25  O   UNL     1       7.371   5.353  14.823  0.00  0.00    +0.000 OA
ATOM     26  N   UNL     1       5.840   3.831  15.614  0.00  0.00    +0.000 N 
ATOM     27  H   UNL     1       5.421   2.935  15.403  0.00  0.00    +0.000 HD
ENDBRANCH  21  26
ENDBRANCH  15  21
ENDBRANCH   1  18
TORSDOF 4
ENDMDL
