MODEL 1
REMARK VINA RESULT:      -6.2      0.000      0.000
REMARK  Name = 
REMARK  6 active torsions:
REMARK  status: ('A' for Active; 'I' for Inactive)
REMARK    1  A    between atoms: C_1  and  C_2
REMARK    2  A    between atoms: C_2  and  C_3
REMARK    3  A    between atoms: C_2  and  C_4
REMARK    4  A    between atoms: C_2  and  O_5
REMARK    5  A    between atoms: O_5  and  C_6
REMARK    6  A    between atoms: C_12  and  C_13
REMARK                            x       y       z     vdW  Elec       q    Type
REMARK                         _______ _______ _______ _____ _____    ______ ____
ROOT
ATOM      1  C   UNL     1       2.065   4.489  17.638  0.00  0.00    +0.000 C 
ATOM      2  O   UNL     1       0.880   4.207  17.528  0.00  0.00    +0.000 OA
ATOM      3  N   UNL     1       2.469   5.841  17.662  0.00  0.00    +0.000 N 
ATOM      4  C   UNL     1       1.576   6.865  17.968  0.00  0.00    +0.000 A 
ATOM      5  C   UNL     1       2.248   8.053  18.048  0.00  0.00    +0.000 A 
ATOM      6  C   UNL     1       3.573   7.789  17.654  0.00  0.00    +0.000 A 
ATOM      7  C   UNL     1       3.716   6.433  17.376  0.00  0.00    +0.000 A 
ENDROOT
BRANCH   7   8
ATOM      8  C   UNL     1       4.888   5.748  16.793  0.00  0.00    +0.000 A 
ATOM      9  C   UNL     1       4.957   5.544  15.398  0.00  0.00    +0.000 A 
ATOM     10  C   UNL     1       6.007   4.833  14.790  0.00  0.00    +0.000 A 
ATOM     11  C   UNL     1       7.082   4.377  15.545  0.00  0.00    +0.000 A 
ATOM     12  C   UNL     1       7.085   4.660  16.899  0.00  0.00    +0.000 A 
ATOM     13  C   UNL     1       6.001   5.320  17.516  0.00  0.00    +0.000 A 
ATOM     14  C   UNL     1       6.357   5.422  18.953  0.00  0.00    +0.000 C 
ATOM     15  O   UNL     1       5.697   5.865  19.870  0.00  0.00    +0.000 OA
ATOM     16  N   UNL     1       7.628   4.907  19.097  0.00  0.00    +0.000 N 
ATOM     17  C   UNL     1       8.158   4.354  17.887  0.00  0.00    +0.000 C 
ATOM     18  H   UNL     1       8.074   4.881  20.004  0.00  0.00    +0.000 HD
ENDBRANCH   7   8
BRANCH   1  19
ATOM     19  O   UNL     1       3.107   3.638  17.806  0.00  0.00    +0.000 OA
BRANCH  19  21
ATOM     20  C   UNL     1       2.920   3.849  20.243  0.00  0.00    +0.000 C 
ATOM     21  C   UNL     1       3.253   2.926  19.064  0.00  0.00    +0.000 C 
ATOM     22  C   UNL     1       4.643   2.292  19.200  0.00  0.00    +0.000 C 
ATOM     23  C   UNL     1       2.215   1.793  19.033  0.00  0.00    +0.000 C 
ENDBRANCH  19  21
ENDBRANCH   1  19
TORSDOF 3
ENDMDL
MODEL 2
REMARK VINA RESULT:      -6.1      0.505      1.111
REMARK  Name = 
REMARK  6 active torsions:
REMARK  status: ('A' for Active; 'I' for Inactive)
REMARK    1  A    between atoms: C_1  and  C_2
REMARK    2  A    between atoms: C_2  and  C_3
REMARK    3  A    between atoms: C_2  and  C_4
REMARK    4  A    between atoms: C_2  and  O_5
REMARK    5  A    between atoms: O_5  and  C_6
REMARK    6  A    between atoms: C_12  and  C_13
REMARK                            x       y       z     vdW  Elec       q    Type
REMARK                         _______ _______ _______ _____ _____    ______ ____
ROOT
ATOM      1  C   UNL     1       2.188   4.289  17.748  0.00  0.00    +0.000 C 
ATOM      2  O   UNL     1       1.011   3.963  17.679  0.00  0.00    +0.000 OA
ATOM      3  N   UNL     1       2.541   5.655  17.781  0.00  0.00    +0.000 N 
ATOM      4  C   UNL     1       1.622   6.637  18.140  0.00  0.00    +0.000 A 
ATOM      5  C   UNL     1       2.250   7.850  18.215  0.00  0.00    +0.000 A 
ATOM      6  C   UNL     1       3.568   7.644  17.766  0.00  0.00    +0.000 A 
ATOM      7  C   UNL     1       3.752   6.300  17.458  0.00  0.00    +0.000 A 
ENDROOT
BRANCH   7   8
ATOM      8  C   UNL     1       4.926   5.671  16.819  0.00  0.00    +0.000 A 
ATOM      9  C   UNL     1       4.953   5.504  15.416  0.00  0.00    +0.000 A 
ATOM     10  C   UNL     1       6.005   4.847  14.755  0.00  0.00    +0.000 A 
ATOM     11  C   UNL     1       7.120   4.409  15.461  0.00  0.00    +0.000 A 
ATOM     12  C   UNL     1       7.160   4.657  16.822  0.00  0.00    +0.000 A 
ATOM     13  C   UNL     1       6.077   5.263  17.492  0.00  0.00    +0.000 A 
ATOM     14  C   UNL     1       6.477   5.341  18.918  0.00  0.00    +0.000 C 
ATOM     15  O   UNL     1       5.836   5.736  19.869  0.00  0.00    +0.000 OA
ATOM     16  N   UNL     1       7.770   4.866  19.006  0.00  0.00    +0.000 N 
ATOM     17  C   UNL     1       8.277   4.363  17.764  0.00  0.00    +0.000 C 
ATOM     18  H   UNL     1       8.247   4.832  19.897  0.00  0.00    +0.000 HD
ENDBRANCH   7   8
BRANCH   1  19
ATOM     19  O   UNL     1       3.268   3.476  17.860  0.00  0.00    +0.000 OA
BRANCH  19  21
ATOM     20  C   UNL     1       3.797   1.104  18.200  0.00  0.00    +0.000 C 
ATOM     21  C   UNL     1       3.250   2.393  18.828  0.00  0.00    +0.000 C 
ATOM     22  C   UNL     1       1.854   2.195  19.433  0.00  0.00    +0.000 C 
ATOM     23  C   UNL     1       4.201   2.817  19.959  0.00  0.00    +0.000 C 
ENDBRANCH  19  21
ENDBRANCH   1  19
TORSDOF 3
ENDMDL
MODEL 3
REMARK VINA RESULT:      -6.1      1.862      4.540
REMARK  Name = 
REMARK  6 active torsions:
REMARK  status: ('A' for Active; 'I' for Inactive)
REMARK    1  A    between atoms: C_1  and  C_2
REMARK    2  A    between atoms: C_2  and  C_3
REMARK    3  A    between atoms: C_2  and  C_4
REMARK    4  A    between atoms: C_2  and  O_5
REMARK    5  A    between atoms: O_5  and  C_6
REMARK    6  A    between atoms: C_12  and  C_13
REMARK                            x       y       z     vdW  Elec       q    Type
REMARK                         _______ _______ _______ _____ _____    ______ ____
ROOT
ATOM      1  C   UNL     1       5.076   6.239  17.728  0.00  0.00    +0.000 C 
ATOM      2  O   UNL     1       6.008   7.000  17.952  0.00  0.00    +0.000 OA
ATOM      3  N   UNL     1       3.747   6.704  17.828  0.00  0.00    +0.000 N 
ATOM      4  C   UNL     1       3.442   8.061  17.773  0.00  0.00    +0.000 A 
ATOM      5  C   UNL     1       2.085   8.228  17.763  0.00  0.00    +0.000 A 
ATOM      6  C   UNL     1       1.525   6.950  17.946  0.00  0.00    +0.000 A 
ATOM      7  C   UNL     1       2.540   6.002  18.026  0.00  0.00    +0.000 A 
ENDROOT
BRANCH   7   8
ATOM      8  C   UNL     1       2.415   4.569  18.360  0.00  0.00    +0.000 A 
ATOM      9  C   UNL     1       2.511   3.600  17.337  0.00  0.00    +0.000 A 
ATOM     10  C   UNL     1       2.326   2.227  17.578  0.00  0.00    +0.000 A 
ATOM     11  C   UNL     1       2.130   1.757  18.871  0.00  0.00    +0.000 A 
ATOM     12  C   UNL     1       2.138   2.680  19.901  0.00  0.00    +0.000 A 
ATOM     13  C   UNL     1       2.263   4.062  19.651  0.00  0.00    +0.000 A 
ATOM     14  C   UNL     1       2.210   4.719  20.980  0.00  0.00    +0.000 C 
ATOM     15  O   UNL     1       2.222   5.904  21.244  0.00  0.00    +0.000 OA
ATOM     16  N   UNL     1       2.140   3.720  21.927  0.00  0.00    +0.000 N 
ATOM     17  C   UNL     1       2.036   2.407  21.363  0.00  0.00    +0.000 C 
ATOM     18  H   UNL     1       2.097   3.945  22.912  0.00  0.00    +0.000 HD
ENDBRANCH   7   8
BRANCH   1  19
ATOM     19  O   UNL     1       5.140   4.948  17.320  0.00  0.00    +0.000 OA
BRANCH  19  21
ATOM     20  C   UNL     1       7.433   4.586  16.527  0.00  0.00    +0.000 C 
ATOM     21  C   UNL     1       5.944   4.604  16.159  0.00  0.00    +0.000 C 
ATOM     22  C   UNL     1       5.652   5.531  14.972  0.00  0.00    +0.000 C 
ATOM     23  C   UNL     1       5.530   3.178  15.762  0.00  0.00    +0.000 C 
ENDBRANCH  19  21
ENDBRANCH   1  19
TORSDOF 3
ENDMDL
MODEL 4
REMARK VINA RESULT:      -6.0      1.599      3.927
REMARK  Name = 
REMARK  6 active torsions:
REMARK  status: ('A' for Active; 'I' for Inactive)
REMARK    1  A    between atoms: C_1  and  C_2
REMARK    2  A    between atoms: C_2  and  C_3
REMARK    3  A    between atoms: C_2  and  C_4
REMARK    4  A    between atoms: C_2  and  O_5
REMARK    5  A    between atoms: O_5  and  C_6
REMARK    6  A    between atoms: C_12  and  C_13
REMARK                            x       y       z     vdW  Elec       q    Type
REMARK                         _______ _______ _______ _____ _____    ______ ____
ROOT
ATOM      1  C   UNL     1       4.930   6.355  16.539  0.00  0.00    +0.000 C 
ATOM      2  O   UNL     1       5.954   6.997  16.348  0.00  0.00    +0.000 OA
ATOM      3  N   UNL     1       3.870   6.922  17.279  0.00  0.00    +0.000 N 
ATOM      4  C   UNL     1       3.760   8.298  17.460  0.00  0.00    +0.000 A 
ATOM      5  C   UNL     1       2.585   8.585  18.097  0.00  0.00    +0.000 A 
ATOM      6  C   UNL     1       2.004   7.350  18.439  0.00  0.00    +0.000 A 
ATOM      7  C   UNL     1       2.805   6.313  17.973  0.00  0.00    +0.000 A 
ENDROOT
BRANCH   7   8
ATOM      8  C   UNL     1       2.655   4.866  18.234  0.00  0.00    +0.000 A 
ATOM      9  C   UNL     1       1.536   4.175  17.721  0.00  0.00    +0.000 A 
ATOM     10  C   UNL     1       1.296   2.817  17.997  0.00  0.00    +0.000 A 
ATOM     11  C   UNL     1       2.217   2.070  18.723  0.00  0.00    +0.000 A 
ATOM     12  C   UNL     1       3.372   2.703  19.145  0.00  0.00    +0.000 A 
ATOM     13  C   UNL     1       3.582   4.080  18.919  0.00  0.00    +0.000 A 
ATOM     14  C   UNL     1       4.899   4.392  19.524  0.00  0.00    +0.000 C 
ATOM     15  O   UNL     1       5.459   5.465  19.618  0.00  0.00    +0.000 OA
ATOM     16  N   UNL     1       5.425   3.206  19.992  0.00  0.00    +0.000 N 
ATOM     17  C   UNL     1       4.532   2.094  19.855  0.00  0.00    +0.000 C 
ATOM     18  H   UNL     1       6.329   3.186  20.444  0.00  0.00    +0.000 HD
ENDBRANCH   7   8
BRANCH   1  19
ATOM     19  O   UNL     1       4.625   5.121  16.066  0.00  0.00    +0.000 OA
BRANCH  19  21
ATOM     20  C   UNL     1       6.949   4.481  16.526  0.00  0.00    +0.000 C 
ATOM     21  C   UNL     1       5.696   4.219  15.679  0.00  0.00    +0.000 C 
ATOM     22  C   UNL     1       5.988   4.295  14.175  0.00  0.00    +0.000 C 
ATOM     23  C   UNL     1       5.193   2.801  15.994  0.00  0.00    +0.000 C 
ENDBRANCH  19  21
ENDBRANCH   1  19
TORSDOF 3
ENDMDL
MODEL 5
REMARK VINA RESULT:      -5.9      1.535      2.484
REMARK  Name = 
REMARK  6 active torsions:
REMARK  status: ('A' for Active; 'I' for Inactive)
REMARK    1  A    between atoms: C_1  and  C_2
REMARK    2  A    between atoms: C_2  and  C_3
REMARK    3  A    between atoms: C_2  and  C_4
REMARK    4  A    between atoms: C_2  and  O_5
REMARK    5  A    between atoms: O_5  and  C_6
REMARK    6  A    between atoms: C_12  and  C_13
REMARK                            x       y       z     vdW  Elec       q    Type
REMARK                         _______ _______ _______ _____ _____    ______ ____
ROOT
ATOM      1  C   UNL     1       2.160   4.657  17.835  0.00  0.00    +0.000 C 
ATOM      2  O   UNL     1       1.103   4.310  17.328  0.00  0.00    +0.000 OA
ATOM      3  N   UNL     1       2.512   6.024  17.868  0.00  0.00    +0.000 N 
ATOM      4  C   UNL     1       1.557   7.026  17.721  0.00  0.00    +0.000 A 
ATOM      5  C   UNL     1       2.139   8.248  17.920  0.00  0.00    +0.000 A 
ATOM      6  C   UNL     1       3.519   8.013  18.067  0.00  0.00    +0.000 A 
ATOM      7  C   UNL     1       3.769   6.647  18.000  0.00  0.00    +0.000 A 
ENDROOT
BRANCH   7   8
ATOM      8  C   UNL     1       5.082   5.969  17.959  0.00  0.00    +0.000 A 
ATOM      9  C   UNL     1       5.628   5.430  19.144  0.00  0.00    +0.000 A 
ATOM     10  C   UNL     1       6.904   4.840  19.187  0.00  0.00    +0.000 A 
ATOM     11  C   UNL     1       7.648   4.682  18.023  0.00  0.00    +0.000 A 
ATOM     12  C   UNL     1       7.085   5.108  16.834  0.00  0.00    +0.000 A 
ATOM     13  C   UNL     1       5.831   5.754  16.803  0.00  0.00    +0.000 A 
ATOM     14  C   UNL     1       5.578   6.074  15.377  0.00  0.00    +0.000 C 
ATOM     15  O   UNL     1       4.648   6.680  14.886  0.00  0.00    +0.000 OA
ATOM     16  N   UNL     1       6.623   5.546  14.647  0.00  0.00    +0.000 N 
ATOM     17  C   UNL     1       7.649   4.966  15.462  0.00  0.00    +0.000 C 
ATOM     18  H   UNL     1       6.652   5.647  13.642  0.00  0.00    +0.000 HD
ENDBRANCH   7   8
BRANCH   1  19
ATOM     19  O   UNL     1       3.077   3.875  18.458  0.00  0.00    +0.000 OA
BRANCH  19  21
ATOM     20  C   UNL     1       1.632   2.150  19.434  0.00  0.00    +0.000 C 
ATOM     21  C   UNL     1       2.719   3.201  19.694  0.00  0.00    +0.000 C 
ATOM     22  C   UNL     1       2.312   4.197  20.787  0.00  0.00    +0.000 C 
ATOM     23  C   UNL     1       3.988   2.472  20.164  0.00  0.00    +0.000 C 
ENDBRANCH  19  21
ENDBRANCH   1  19
TORSDOF 3
ENDMDL
MODEL 6
REMARK VINA RESULT:      -5.9      1.769      2.226
REMARK  Name = 
REMARK  6 active torsions:
REMARK  status: ('A' for Active; 'I' for Inactive)
REMARK    1  A    between atoms: C_1  and  C_2
REMARK    2  A    between atoms: C_2  and  C_3
REMARK    3  A    between atoms: C_2  and  C_4
REMARK    4  A    between atoms: C_2  and  O_5
REMARK    5  A    between atoms: O_5  and  C_6
REMARK    6  A    between atoms: C_12  and  C_13
REMARK                            x       y       z     vdW  Elec       q    Type
REMARK                         _______ _______ _______ _____ _____    ______ ____
ROOT
ATOM      1  C   UNL     1       2.177   5.498  20.130  0.00  0.00    +0.000 C 
ATOM      2  O   UNL     1       1.174   5.477  20.829  0.00  0.00    +0.000 OA
ATOM      3  N   UNL     1       2.406   6.584  19.257  0.00  0.00    +0.000 N 
ATOM      4  C   UNL     1       1.770   7.809  19.435  0.00  0.00    +0.000 A 
ATOM      5  C   UNL     1       2.262   8.717  18.539  0.00  0.00    +0.000 A 
ATOM      6  C   UNL     1       3.136   8.009  17.693  0.00  0.00    +0.000 A 
ATOM      7  C   UNL     1       3.206   6.681  18.101  0.00  0.00    +0.000 A 
ENDROOT
BRANCH   7   8
ATOM      8  C   UNL     1       3.882   5.559  17.417  0.00  0.00    +0.000 A 
ATOM      9  C   UNL     1       3.141   4.412  17.055  0.00  0.00    +0.000 A 
ATOM     10  C   UNL     1       3.739   3.281  16.471  0.00  0.00    +0.000 A 
ATOM     11  C   UNL     1       5.089   3.287  16.140  0.00  0.00    +0.000 A 
ATOM     12  C   UNL     1       5.810   4.441  16.390  0.00  0.00    +0.000 A 
ATOM     13  C   UNL     1       5.222   5.552  17.031  0.00  0.00    +0.000 A 
ATOM     14  C   UNL     1       6.295   6.570  17.139  0.00  0.00    +0.000 C 
ATOM     15  O   UNL     1       6.260   7.660  17.671  0.00  0.00    +0.000 OA
ATOM     16  N   UNL     1       7.408   6.059  16.504  0.00  0.00    +0.000 N 
ATOM     17  C   UNL     1       7.234   4.713  16.045  0.00  0.00    +0.000 C 
ATOM     18  H   UNL     1       8.265   6.594  16.456  0.00  0.00    +0.000 HD
ENDBRANCH   7   8
BRANCH   1  19
ATOM     19  O   UNL     1       3.194   4.600  20.111  0.00  0.00    +0.000 OA
BRANCH  19  21
ATOM     20  C   UNL     1       1.818   2.703  19.384  0.00  0.00    +0.000 C 
ATOM     21  C   UNL     1       2.910   3.195  20.344  0.00  0.00    +0.000 C 
ATOM     22  C   UNL     1       2.555   2.922  21.811  0.00  0.00    +0.000 C 
ATOM     23  C   UNL     1       4.209   2.439  20.021  0.00  0.00    +0.000 C 
ENDBRANCH  19  21
ENDBRANCH   1  19
TORSDOF 3
ENDMDL
MODEL 7
REMARK VINA RESULT:      -5.7      1.439      3.390
REMARK  Name = 
REMARK  6 active torsions:
REMARK  status: ('A' for Active; 'I' for Inactive)
REMARK    1  A    between atoms: C_1  and  C_2
REMARK    2  A    between atoms: C_2  and  C_3
REMARK    3  A    between atoms: C_2  and  C_4
REMARK    4  A    between atoms: C_2  and  O_5
REMARK    5  A    between atoms: O_5  and  C_6
REMARK    6  A    between atoms: C_12  and  C_13
REMARK                            x       y       z     vdW  Elec       q    Type
REMARK                         _______ _______ _______ _____ _____    ______ ____
ROOT
ATOM      1  C   UNL     1       2.090   4.915  18.682  0.00  0.00    +0.000 C 
ATOM      2  O   UNL     1       1.372   5.175  19.637  0.00  0.00    +0.000 OA
ATOM      3  N   UNL     1       2.550   3.594  18.485  0.00  0.00    +0.000 N 
ATOM      4  C   UNL     1       1.917   2.505  19.078  0.00  0.00    +0.000 A 
ATOM      5  C   UNL     1       2.479   1.344  18.624  0.00  0.00    +0.000 A 
ATOM      6  C   UNL     1       3.577   1.717  17.826  0.00  0.00    +0.000 A 
ATOM      7  C   UNL     1       3.656   3.105  17.761  0.00  0.00    +0.000 A 
ENDROOT
BRANCH   7   8
ATOM      8  C   UNL     1       4.730   3.922  17.160  0.00  0.00    +0.000 A 
ATOM      9  C   UNL     1       4.742   4.146  15.766  0.00  0.00    +0.000 A 
ATOM     10  C   UNL     1       5.776   4.850  15.124  0.00  0.00    +0.000 A 
ATOM     11  C   UNL     1       6.794   5.441  15.863  0.00  0.00    +0.000 A 
ATOM     12  C   UNL     1       6.743   5.323  17.241  0.00  0.00    +0.000 A 
ATOM     13  C   UNL     1       5.738   4.565  17.878  0.00  0.00    +0.000 A 
ATOM     14  C   UNL     1       6.024   4.657  19.331  0.00  0.00    +0.000 C 
ATOM     15  O   UNL     1       5.454   4.114  20.255  0.00  0.00    +0.000 OA
ATOM     16  N   UNL     1       7.102   5.505  19.482  0.00  0.00    +0.000 N 
ATOM     17  C   UNL     1       7.664   5.938  18.238  0.00  0.00    +0.000 C 
ATOM     18  H   UNL     1       7.467   5.714  20.402  0.00  0.00    +0.000 HD
ENDBRANCH   7   8
BRANCH   1  19
ATOM     19  O   UNL     1       2.489   5.751  17.691  0.00  0.00    +0.000 OA
BRANCH  19  21
ATOM     20  C   UNL     1       1.691   8.062  17.897  0.00  0.00    +0.000 C 
ATOM     21  C   UNL     1       2.887   7.109  18.020  0.00  0.00    +0.000 C 
ATOM     22  C   UNL     1       4.083   7.570  17.177  0.00  0.00    +0.000 C 
ATOM     23  C   UNL     1       3.327   7.078  19.492  0.00  0.00    +0.000 C 
ENDBRANCH  19  21
ENDBRANCH   1  19
TORSDOF 3
ENDMDL
MODEL 8
REMARK VINA RESULT:      -5.7      1.851      4.071
REMARK  Name = 
REMARK  6 active torsions:
REMARK  status: ('A' for Active; 'I' for Inactive)
REMARK    1  A    between atoms: C_1  and  C_2
REMARK    2  A    between atoms: C_2  and  C_3
REMARK    3  A    between atoms: C_2  and  C_4
REMARK    4  A    between atoms: C_2  and  O_5
REMARK    5  A    between atoms: O_5  and  C_6
REMARK    6  A    between atoms: C_12  and  C_13
REMARK                            x       y       z     vdW  Elec       q    Type
REMARK                         _______ _______ _______ _____ _____    ______ ____
ROOT
ATOM      1  C   UNL     1       2.759   5.247  20.205  0.00  0.00    +0.000 C 
ATOM      2  O   UNL     1       2.019   5.325  21.176  0.00  0.00    +0.000 OA
ATOM      3  N   UNL     1       3.044   3.988  19.634  0.00  0.00    +0.000 N 
ATOM      4  C   UNL     1       2.226   2.883  19.858  0.00  0.00    +0.000 A 
ATOM      5  C   UNL     1       2.652   1.833  19.093  0.00  0.00    +0.000 A 
ATOM      6  C   UNL     1       3.844   2.250  18.471  0.00  0.00    +0.000 A 
ATOM      7  C   UNL     1       4.119   3.567  18.825  0.00  0.00    +0.000 A 
ENDROOT
BRANCH   7   8
ATOM      8  C   UNL     1       5.335   4.350  18.523  0.00  0.00    +0.000 A 
ATOM      9  C   UNL     1       6.181   4.764  19.576  0.00  0.00    +0.000 A 
ATOM     10  C   UNL     1       7.310   5.573  19.363  0.00  0.00    +0.000 A 
ATOM     11  C   UNL     1       7.694   5.926  18.074  0.00  0.00    +0.000 A 
ATOM     12  C   UNL     1       6.938   5.442  17.021  0.00  0.00    +0.000 A 
ATOM     13  C   UNL     1       5.771   4.681  17.240  0.00  0.00    +0.000 A 
ATOM     14  C   UNL     1       5.234   4.368  15.894  0.00  0.00    +0.000 C 
ATOM     15  O   UNL     1       4.213   3.783  15.598  0.00  0.00    +0.000 OA
ATOM     16  N   UNL     1       6.125   4.875  14.971  0.00  0.00    +0.000 N 
ATOM     17  C   UNL     1       7.201   5.613  15.564  0.00  0.00    +0.000 C 
ATOM     18  H   UNL     1       5.955   4.771  13.980  0.00  0.00    +0.000 HD
ENDBRANCH   7   8
BRANCH   1  19
ATOM     19  O   UNL     1       3.338   6.265  19.520  0.00  0.00    +0.000 OA
BRANCH  19  21
ATOM     20  C   UNL     1       1.837   8.159  19.097  0.00  0.00    +0.000 C 
ATOM     21  C   UNL     1       2.578   6.959  18.494  0.00  0.00    +0.000 C 
ATOM     22  C   UNL     1       1.631   6.009  17.749  0.00  0.00    +0.000 C 
ATOM     23  C   UNL     1       3.610   7.488  17.486  0.00  0.00    +0.000 C 
ENDBRANCH  19  21
ENDBRANCH   1  19
TORSDOF 3
ENDMDL
MODEL 9
REMARK VINA RESULT:      -5.7      9.164     11.326
REMARK  Name = 
REMARK  6 active torsions:
REMARK  status: ('A' for Active; 'I' for Inactive)
REMARK    1  A    between atoms: C_1  and  C_2
REMARK    2  A    between atoms: C_2  and  C_3
REMARK    3  A    between atoms: C_2  and  C_4
REMARK    4  A    between atoms: C_2  and  O_5
REMARK    5  A    between atoms: O_5  and  C_6
REMARK    6  A    between atoms: C_12  and  C_13
REMARK                            x       y       z     vdW  Elec       q    Type
REMARK                         _______ _______ _______ _____ _____    ______ ____
ROOT
ATOM      1  C   UNL     1       8.535  12.936  18.261  0.00  0.00    +0.000 C 
ATOM      2  O   UNL     1       8.107  12.558  17.179  0.00  0.00    +0.000 OA
ATOM      3  N   UNL     1       9.788  12.476  18.723  0.00  0.00    +0.000 N 
ATOM      4  C   UNL     1      10.735  11.941  17.853  0.00  0.00    +0.000 A 
ATOM      5  C   UNL     1      11.896  11.696  18.533  0.00  0.00    +0.000 A 
ATOM      6  C   UNL     1      11.629  11.963  19.888  0.00  0.00    +0.000 A 
ATOM      7  C   UNL     1      10.319  12.410  20.027  0.00  0.00    +0.000 A 
ENDROOT
BRANCH   7   8
ATOM      8  C   UNL     1       9.577  12.663  21.279  0.00  0.00    +0.000 A 
ATOM      9  C   UNL     1       8.808  11.629  21.858  0.00  0.00    +0.000 A 
ATOM     10  C   UNL     1       8.020  11.826  23.005  0.00  0.00    +0.000 A 
ATOM     11  C   UNL     1       8.041  13.044  23.676  0.00  0.00    +0.000 A 
ATOM     12  C   UNL     1       8.870  14.037  23.185  0.00  0.00    +0.000 A 
ATOM     13  C   UNL     1       9.613  13.856  22.000  0.00  0.00    +0.000 A 
ATOM     14  C   UNL     1      10.351  15.126  21.789  0.00  0.00    +0.000 C 
ATOM     15  O   UNL     1      11.070  15.444  20.864  0.00  0.00    +0.000 OA
ATOM     16  N   UNL     1      10.080  15.940  22.869  0.00  0.00    +0.000 N 
ATOM     17  C   UNL     1       9.124  15.380  23.778  0.00  0.00    +0.000 C 
ATOM     18  H   UNL     1      10.487  16.863  22.933  0.00  0.00    +0.000 HD
ENDBRANCH   7   8
BRANCH   1  19
ATOM     19  O   UNL     1       7.972  13.831  19.109  0.00  0.00    +0.000 OA
BRANCH  19  21
ATOM     20  C   UNL     1       6.375  15.156  17.801  0.00  0.00    +0.000 C 
ATOM     21  C   UNL     1       7.663  15.169  18.634  0.00  0.00    +0.000 C 
ATOM     22  C   UNL     1       8.841  15.787  17.870  0.00  0.00    +0.000 C 
ATOM     23  C   UNL     1       7.413  16.018  19.891  0.00  0.00    +0.000 C 
ENDBRANCH  19  21
ENDBRANCH   1  19
TORSDOF 3
ENDMDL
