MODEL 1
REMARK VINA RESULT:      -7.7      0.000      0.000
REMARK  Name = 
REMARK  10 active torsions:
REMARK  status: ('A' for Active; 'I' for Inactive)
REMARK    1  A    between atoms: C_2  and  C_3
REMARK    2  A    between atoms: C_3  and  N_4
REMARK    3  A    between atoms: C_5  and  C_7
REMARK    4  A    between atoms: C_7  and  C_8
REMARK    5  A    between atoms: C_7  and  C_9
REMARK    6  A    between atoms: C_7  and  N_12
REMARK    7  A    between atoms: C_9  and  C_10
REMARK    8  A    between atoms: C_9  and  C_11
REMARK    9  A    between atoms: N_12  and  C_21
REMARK   10  A    between atoms: C_13  and  C_15
REMARK                            x       y       z     vdW  Elec       q    Type
REMARK                         _______ _______ _______ _____ _____    ______ ____
ROOT
ATOM      1  N   UNL     1       2.821   5.139  18.687  0.00  0.00    +0.000 N 
ATOM      2  C   UNL     1       3.157   6.512  18.359  0.00  0.00    +0.000 C 
ATOM      3  O   UNL     1       4.249   6.781  17.860  0.00  0.00    +0.000 OA
ENDROOT
BRANCH   2   4
ATOM      4  C   UNL     1       2.293   7.750  18.599  0.00  0.00    +0.000 A 
ATOM      5  C   UNL     1       1.765   8.683  17.699  0.00  0.00    +0.000 A 
ATOM      6  C   UNL     1       0.892   9.697  18.116  0.00  0.00    +0.000 A 
ATOM      7  C   UNL     1       0.608   9.816  19.458  0.00  0.00    +0.000 A 
ATOM      8  N   UNL     1       1.133   8.999  20.385  0.00  0.00    +0.000 NA
ATOM      9  C   UNL     1       1.949   7.999  19.937  0.00  0.00    +0.000 A 
ENDBRANCH   2   4
BRANCH   1  10
ATOM     10  C   UNL     1       1.725   4.911  19.689  0.00  0.00    +0.000 C 
ATOM     11  C   UNL     1       0.637   3.832  19.606  0.00  0.00    +0.000 C 
ATOM     12  C   UNL     1       1.076   2.462  20.089  0.00  0.00    +0.000 C 
ATOM     13  C   UNL     1       1.559   2.517  21.531  0.00  0.00    +0.000 C 
ATOM     14  C   UNL     1       2.581   3.622  21.777  0.00  0.00    +0.000 C 
ATOM     15  C   UNL     1       2.181   4.966  21.180  0.00  0.00    +0.000 C 
ENDBRANCH   1  10
BRANCH   1  16
ATOM     16  C   UNL     1       3.852   3.980  18.221  0.00  0.00    +0.000 C 
ATOM     17  C   UNL     1       4.292   4.395  16.802  0.00  0.00    +0.000 C 
BRANCH  16  19
ATOM     18  N   UNL     1       6.157   4.590  19.343  0.00  0.00    +0.000 N 
ATOM     19  C   UNL     1       5.037   3.805  19.269  0.00  0.00    +0.000 C 
ATOM     20  O   UNL     1       5.028   2.860  20.072  0.00  0.00    +0.000 OA
ATOM     21  H   UNL     1       6.724   4.242  20.095  0.00  0.00    +0.000 HD
BRANCH  18  22
ATOM     22  C   UNL     1       6.957   5.017  18.222  0.00  0.00    +0.000 C 
BRANCH  22  24
ATOM     23  C   UNL     1       7.637   7.309  17.629  0.00  0.00    +0.000 C 
ATOM     24  C   UNL     1       7.681   6.283  18.492  0.00  0.00    +0.000 C 
ENDBRANCH  22  24
ENDBRANCH  18  22
ENDBRANCH  16  19
BRANCH  16  25
ATOM     25  C   UNL     1       3.158   2.517  18.179  0.00  0.00    +0.000 C 
ATOM     26  C   UNL     1       2.191   2.176  17.033  0.00  0.00    +0.000 C 
ATOM     27  C   UNL     1       4.186   1.374  18.211  0.00  0.00    +0.000 C 
ENDBRANCH  16  25
ENDBRANCH   1  16
TORSDOF 7
ENDMDL
MODEL 2
REMARK VINA RESULT:      -7.4      2.208      3.481
REMARK  Name = 
REMARK  10 active torsions:
REMARK  status: ('A' for Active; 'I' for Inactive)
REMARK    1  A    between atoms: C_2  and  C_3
REMARK    2  A    between atoms: C_3  and  N_4
REMARK    3  A    between atoms: C_5  and  C_7
REMARK    4  A    between atoms: C_7  and  C_8
REMARK    5  A    between atoms: C_7  and  C_9
REMARK    6  A    between atoms: C_7  and  N_12
REMARK    7  A    between atoms: C_9  and  C_10
REMARK    8  A    between atoms: C_9  and  C_11
REMARK    9  A    between atoms: N_12  and  C_21
REMARK   10  A    between atoms: C_13  and  C_15
REMARK                            x       y       z     vdW  Elec       q    Type
REMARK                         _______ _______ _______ _____ _____    ______ ____
ROOT
ATOM      1  N   UNL     1       3.534   5.711  17.662  0.00  0.00    +0.000 N 
ATOM      2  C   UNL     1       3.592   7.108  18.051  0.00  0.00    +0.000 C 
ATOM      3  O   UNL     1       4.653   7.727  17.982  0.00  0.00    +0.000 OA
ENDROOT
BRANCH   2   4
ATOM      4  C   UNL     1       2.444   7.955  18.601  0.00  0.00    +0.000 A 
ATOM      5  C   UNL     1       1.921   8.050  19.896  0.00  0.00    +0.000 A 
ATOM      6  C   UNL     1       0.926   8.982  20.221  0.00  0.00    +0.000 A 
ATOM      7  C   UNL     1       0.404   9.771  19.221  0.00  0.00    +0.000 A 
ATOM      8  N   UNL     1       0.811   9.685  17.944  0.00  0.00    +0.000 NA
ATOM      9  C   UNL     1       1.809   8.792  17.672  0.00  0.00    +0.000 A 
ENDBRANCH   2   4
BRANCH   1  10
ATOM     10  C   UNL     1       2.391   4.890  18.185  0.00  0.00    +0.000 C 
ATOM     11  C   UNL     1       1.763   3.672  17.493  0.00  0.00    +0.000 C 
ATOM     12  C   UNL     1       2.518   2.373  17.707  0.00  0.00    +0.000 C 
ATOM     13  C   UNL     1       2.641   2.047  19.188  0.00  0.00    +0.000 C 
ATOM     14  C   UNL     1       3.165   3.215  20.016  0.00  0.00    +0.000 C 
ATOM     15  C   UNL     1       2.478   4.539  19.703  0.00  0.00    +0.000 C 
ENDBRANCH   1  10
BRANCH   1  16
ATOM     16  C   UNL     1       4.856   5.063  16.987  0.00  0.00    +0.000 C 
ATOM     17  C   UNL     1       4.575   3.547  16.953  0.00  0.00    +0.000 C 
BRANCH  16  19
ATOM     18  N   UNL     1       5.299   5.043  14.389  0.00  0.00    +0.000 N 
ATOM     19  C   UNL     1       5.164   5.721  15.571  0.00  0.00    +0.000 C 
ATOM     20  O   UNL     1       5.368   6.941  15.479  0.00  0.00    +0.000 OA
ATOM     21  H   UNL     1       5.492   5.716  13.670  0.00  0.00    +0.000 HD
BRANCH  18  22
ATOM     22  C   UNL     1       6.053   3.828  14.201  0.00  0.00    +0.000 C 
BRANCH  22  24
ATOM     23  C   UNL     1       7.064   3.968  11.959  0.00  0.00    +0.000 C 
ATOM     24  C   UNL     1       6.143   3.432  12.774  0.00  0.00    +0.000 C 
ENDBRANCH  22  24
ENDBRANCH  18  22
ENDBRANCH  16  19
BRANCH  16  25
ATOM     25  C   UNL     1       6.197   5.358  17.846  0.00  0.00    +0.000 C 
ATOM     26  C   UNL     1       6.185   5.113  19.365  0.00  0.00    +0.000 C 
ATOM     27  C   UNL     1       7.421   4.598  17.312  0.00  0.00    +0.000 C 
ENDBRANCH  16  25
ENDBRANCH   1  16
TORSDOF 7
ENDMDL
MODEL 3
REMARK VINA RESULT:      -7.4      2.100      3.400
REMARK  Name = 
REMARK  10 active torsions:
REMARK  status: ('A' for Active; 'I' for Inactive)
REMARK    1  A    between atoms: C_2  and  C_3
REMARK    2  A    between atoms: C_3  and  N_4
REMARK    3  A    between atoms: C_5  and  C_7
REMARK    4  A    between atoms: C_7  and  C_8
REMARK    5  A    between atoms: C_7  and  C_9
REMARK    6  A    between atoms: C_7  and  N_12
REMARK    7  A    between atoms: C_9  and  C_10
REMARK    8  A    between atoms: C_9  and  C_11
REMARK    9  A    between atoms: N_12  and  C_21
REMARK   10  A    between atoms: C_13  and  C_15
REMARK                            x       y       z     vdW  Elec       q    Type
REMARK                         _______ _______ _______ _____ _____    ______ ____
ROOT
ATOM      1  N   UNL     1       3.474   5.830  17.562  0.00  0.00    +0.000 N 
ATOM      2  C   UNL     1       3.550   7.242  17.891  0.00  0.00    +0.000 C 
ATOM      3  O   UNL     1       4.627   7.834  17.836  0.00  0.00    +0.000 OA
ENDROOT
BRANCH   2   4
ATOM      4  C   UNL     1       2.402   8.136  18.359  0.00  0.00    +0.000 A 
ATOM      5  C   UNL     1       1.557   8.987  17.638  0.00  0.00    +0.000 A 
ATOM      6  C   UNL     1       0.479   9.644  18.248  0.00  0.00    +0.000 A 
ATOM      7  C   UNL     1       0.297   9.500  19.605  0.00  0.00    +0.000 A 
ATOM      8  N   UNL     1       1.110   8.754  20.370  0.00  0.00    +0.000 NA
ATOM      9  C   UNL     1       2.127   8.099  19.734  0.00  0.00    +0.000 A 
ENDBRANCH   2   4
BRANCH   1  10
ATOM     10  C   UNL     1       2.294   5.058  18.076  0.00  0.00    +0.000 C 
ATOM     11  C   UNL     1       1.679   3.810  17.427  0.00  0.00    +0.000 C 
ATOM     12  C   UNL     1       2.401   2.516  17.752  0.00  0.00    +0.000 C 
ATOM     13  C   UNL     1       2.448   2.275  19.254  0.00  0.00    +0.000 C 
ATOM     14  C   UNL     1       2.951   3.483  20.037  0.00  0.00    +0.000 C 
ATOM     15  C   UNL     1       2.303   4.796  19.615  0.00  0.00    +0.000 C 
ENDBRANCH   1  10
BRANCH   1  16
ATOM     16  C   UNL     1       4.805   5.124  16.967  0.00  0.00    +0.000 C 
ATOM     17  C   UNL     1       4.473   3.618  16.943  0.00  0.00    +0.000 C 
BRANCH  16  19
ATOM     18  N   UNL     1       5.350   5.046  14.390  0.00  0.00    +0.000 N 
ATOM     19  C   UNL     1       5.209   5.746  15.559  0.00  0.00    +0.000 C 
ATOM     20  O   UNL     1       5.489   6.950  15.463  0.00  0.00    +0.000 OA
ATOM     21  H   UNL     1       5.612   5.698  13.673  0.00  0.00    +0.000 HD
BRANCH  18  22
ATOM     22  C   UNL     1       6.037   3.786  14.245  0.00  0.00    +0.000 C 
BRANCH  22  24
ATOM     23  C   UNL     1       5.137   3.317  12.000  0.00  0.00    +0.000 C 
ATOM     24  C   UNL     1       6.193   3.386  12.825  0.00  0.00    +0.000 C 
ENDBRANCH  22  24
ENDBRANCH  18  22
ENDBRANCH  16  19
BRANCH  16  25
ATOM     25  C   UNL     1       6.110   5.388  17.890  0.00  0.00    +0.000 C 
ATOM     26  C   UNL     1       6.031   5.109  19.401  0.00  0.00    +0.000 C 
ATOM     27  C   UNL     1       7.351   4.631  17.392  0.00  0.00    +0.000 C 
ENDBRANCH  16  25
ENDBRANCH   1  16
TORSDOF 7
ENDMDL
MODEL 4
REMARK VINA RESULT:      -7.4      1.414      1.951
REMARK  Name = 
REMARK  10 active torsions:
REMARK  status: ('A' for Active; 'I' for Inactive)
REMARK    1  A    between atoms: C_2  and  C_3
REMARK    2  A    between atoms: C_3  and  N_4
REMARK    3  A    between atoms: C_5  and  C_7
REMARK    4  A    between atoms: C_7  and  C_8
REMARK    5  A    between atoms: C_7  and  C_9
REMARK    6  A    between atoms: C_7  and  N_12
REMARK    7  A    between atoms: C_9  and  C_10
REMARK    8  A    between atoms: C_9  and  C_11
REMARK    9  A    between atoms: N_12  and  C_21
REMARK   10  A    between atoms: C_13  and  C_15
REMARK                            x       y       z     vdW  Elec       q    Type
REMARK                         _______ _______ _______ _____ _____    ______ ____
ROOT
ATOM      1  N   UNL     1       2.731   5.092  18.652  0.00  0.00    +0.000 N 
ATOM      2  C   UNL     1       3.104   6.486  18.501  0.00  0.00    +0.000 C 
ATOM      3  O   UNL     1       4.220   6.787  18.080  0.00  0.00    +0.000 OA
ENDROOT
BRANCH   2   4
ATOM      4  C   UNL     1       2.252   7.707  18.849  0.00  0.00    +0.000 A 
ATOM      5  C   UNL     1       1.714   8.124  20.073  0.00  0.00    +0.000 A 
ATOM      6  C   UNL     1       1.046   9.349  20.203  0.00  0.00    +0.000 A 
ATOM      7  C   UNL     1       0.854  10.122  19.081  0.00  0.00    +0.000 A 
ATOM      8  N   UNL     1       1.283   9.752  17.863  0.00  0.00    +0.000 NA
ATOM      9  C   UNL     1       1.963   8.570  17.782  0.00  0.00    +0.000 A 
ENDBRANCH   2   4
BRANCH   1  10
ATOM     10  C   UNL     1       1.591   4.773  19.576  0.00  0.00    +0.000 C 
ATOM     11  C   UNL     1       0.653   3.563  19.469  0.00  0.00    +0.000 C 
ATOM     12  C   UNL     1       1.214   2.283  20.061  0.00  0.00    +0.000 C 
ATOM     13  C   UNL     1       1.563   2.464  21.531  0.00  0.00    +0.000 C 
ATOM     14  C   UNL     1       2.418   3.700  21.794  0.00  0.00    +0.000 C 
ATOM     15  C   UNL     1       1.909   4.954  21.094  0.00  0.00    +0.000 C 
ENDBRANCH   1  10
BRANCH   1  16
ATOM     16  C   UNL     1       3.760   3.973  18.095  0.00  0.00    +0.000 C 
ATOM     17  C   UNL     1       3.308   3.712  16.644  0.00  0.00    +0.000 C 
BRANCH  16  19
ATOM     18  N   UNL     1       6.149   4.668  17.225  0.00  0.00    +0.000 N 
ATOM     19  C   UNL     1       5.271   4.447  18.253  0.00  0.00    +0.000 C 
ATOM     20  O   UNL     1       5.768   4.588  19.381  0.00  0.00    +0.000 OA
ATOM     21  H   UNL     1       7.023   4.955  17.626  0.00  0.00    +0.000 HD
BRANCH  18  22
ATOM     22  C   UNL     1       6.340   3.804  16.087  0.00  0.00    +0.000 C 
BRANCH  22  24
ATOM     23  C   UNL     1       6.052   3.950  13.644  0.00  0.00    +0.000 C 
ATOM     24  C   UNL     1       6.355   4.551  14.805  0.00  0.00    +0.000 C 
ENDBRANCH  22  24
ENDBRANCH  18  22
ENDBRANCH  16  19
BRANCH  16  25
ATOM     25  C   UNL     1       3.699   2.598  18.949  0.00  0.00    +0.000 C 
ATOM     26  C   UNL     1       3.649   1.252  18.205  0.00  0.00    +0.000 C 
ATOM     27  C   UNL     1       4.855   2.474  19.955  0.00  0.00    +0.000 C 
ENDBRANCH  16  25
ENDBRANCH   1  16
TORSDOF 7
ENDMDL
MODEL 5
REMARK VINA RESULT:      -7.4      1.168      1.409
REMARK  Name = 
REMARK  10 active torsions:
REMARK  status: ('A' for Active; 'I' for Inactive)
REMARK    1  A    between atoms: C_2  and  C_3
REMARK    2  A    between atoms: C_3  and  N_4
REMARK    3  A    between atoms: C_5  and  C_7
REMARK    4  A    between atoms: C_7  and  C_8
REMARK    5  A    between atoms: C_7  and  C_9
REMARK    6  A    between atoms: C_7  and  N_12
REMARK    7  A    between atoms: C_9  and  C_10
REMARK    8  A    between atoms: C_9  and  C_11
REMARK    9  A    between atoms: N_12  and  C_21
REMARK   10  A    between atoms: C_13  and  C_15
REMARK                            x       y       z     vdW  Elec       q    Type
REMARK                         _______ _______ _______ _____ _____    ______ ____
ROOT
ATOM      1  N   UNL     1       2.850   5.260  18.618  0.00  0.00    +0.000 N 
ATOM      2  C   UNL     1       3.163   6.660  18.401  0.00  0.00    +0.000 C 
ATOM      3  O   UNL     1       4.286   6.994  18.027  0.00  0.00    +0.000 OA
ENDROOT
BRANCH   2   4
ATOM      4  C   UNL     1       2.231   7.852  18.621  0.00  0.00    +0.000 A 
ATOM      5  C   UNL     1       1.621   8.715  17.703  0.00  0.00    +0.000 A 
ATOM      6  C   UNL     1       0.700   9.690  18.110  0.00  0.00    +0.000 A 
ATOM      7  C   UNL     1       0.449   9.845  19.454  0.00  0.00    +0.000 A 
ATOM      8  N   UNL     1       1.050   9.099  20.394  0.00  0.00    +0.000 NA
ATOM      9  C   UNL     1       1.912   8.133  19.958  0.00  0.00    +0.000 A 
ENDBRANCH   2   4
BRANCH   1  10
ATOM     10  C   UNL     1       1.673   4.937  19.492  0.00  0.00    +0.000 C 
ATOM     11  C   UNL     1       0.715   3.751  19.316  0.00  0.00    +0.000 C 
ATOM     12  C   UNL     1       1.229   2.442  19.886  0.00  0.00    +0.000 C 
ATOM     13  C   UNL     1       1.530   2.570  21.371  0.00  0.00    +0.000 C 
ATOM     14  C   UNL     1       2.401   3.778  21.702  0.00  0.00    +0.000 C 
ATOM     15  C   UNL     1       1.941   5.064  21.025  0.00  0.00    +0.000 C 
ENDBRANCH   1  10
BRANCH   1  16
ATOM     16  C   UNL     1       3.966   4.165  18.194  0.00  0.00    +0.000 C 
ATOM     17  C   UNL     1       3.794   4.001  16.670  0.00  0.00    +0.000 C 
BRANCH  16  19
ATOM     18  N   UNL     1       6.461   4.933  17.832  0.00  0.00    +0.000 N 
ATOM     19  C   UNL     1       5.420   4.611  18.662  0.00  0.00    +0.000 C 
ATOM     20  O   UNL     1       5.712   4.630  19.867  0.00  0.00    +0.000 OA
ATOM     21  H   UNL     1       7.248   5.171  18.407  0.00  0.00    +0.000 HD
BRANCH  18  22
ATOM     22  C   UNL     1       6.858   4.192  16.660  0.00  0.00    +0.000 C 
BRANCH  22  24
ATOM     23  C   UNL     1       6.704   4.572  14.231  0.00  0.00    +0.000 C 
ATOM     24  C   UNL     1       6.966   5.052  15.456  0.00  0.00    +0.000 C 
ENDBRANCH  22  24
ENDBRANCH  18  22
ENDBRANCH  16  19
BRANCH  16  25
ATOM     25  C   UNL     1       3.746   2.740  18.933  0.00  0.00    +0.000 C 
ATOM     26  C   UNL     1       3.557   1.473  18.081  0.00  0.00    +0.000 C 
ATOM     27  C   UNL     1       4.870   2.410  19.927  0.00  0.00    +0.000 C 
ENDBRANCH  16  25
ENDBRANCH   1  16
TORSDOF 7
ENDMDL
MODEL 6
REMARK VINA RESULT:      -7.2      0.805      1.206
REMARK  Name = 
REMARK  10 active torsions:
REMARK  status: ('A' for Active; 'I' for Inactive)
REMARK    1  A    between atoms: C_2  and  C_3
REMARK    2  A    between atoms: C_3  and  N_4
REMARK    3  A    between atoms: C_5  and  C_7
REMARK    4  A    between atoms: C_7  and  C_8
REMARK    5  A    between atoms: C_7  and  C_9
REMARK    6  A    between atoms: C_7  and  N_12
REMARK    7  A    between atoms: C_9  and  C_10
REMARK    8  A    between atoms: C_9  and  C_11
REMARK    9  A    between atoms: N_12  and  C_21
REMARK   10  A    between atoms: C_13  and  C_15
REMARK                            x       y       z     vdW  Elec       q    Type
REMARK                         _______ _______ _______ _____ _____    ______ ____
ROOT
ATOM      1  N   UNL     1       2.743   5.263  18.874  0.00  0.00    +0.000 N 
ATOM      2  C   UNL     1       3.029   6.645  18.535  0.00  0.00    +0.000 C 
ATOM      3  O   UNL     1       4.068   6.936  17.944  0.00  0.00    +0.000 OA
ENDROOT
BRANCH   2   4
ATOM      4  C   UNL     1       2.171   7.865  18.866  0.00  0.00    +0.000 A 
ATOM      5  C   UNL     1       1.603   8.280  20.077  0.00  0.00    +0.000 A 
ATOM      6  C   UNL     1       0.935   9.506  20.195  0.00  0.00    +0.000 A 
ATOM      7  C   UNL     1       0.773  10.284  19.071  0.00  0.00    +0.000 A 
ATOM      8  N   UNL     1       1.231   9.916  17.863  0.00  0.00    +0.000 NA
ATOM      9  C   UNL     1       1.911   8.733  17.795  0.00  0.00    +0.000 A 
ENDBRANCH   2   4
BRANCH   1  10
ATOM     10  C   UNL     1       1.745   5.005  19.965  0.00  0.00    +0.000 C 
ATOM     11  C   UNL     1       0.550   4.045  19.888  0.00  0.00    +0.000 C 
ATOM     12  C   UNL     1       0.897   2.592  20.153  0.00  0.00    +0.000 C 
ATOM     13  C   UNL     1       1.535   2.420  21.522  0.00  0.00    +0.000 C 
ATOM     14  C   UNL     1       2.685   3.390  21.772  0.00  0.00    +0.000 C 
ATOM     15  C   UNL     1       2.362   4.829  21.388  0.00  0.00    +0.000 C 
ENDBRANCH   1  10
BRANCH   1  16
ATOM     16  C   UNL     1       3.746   4.125  18.303  0.00  0.00    +0.000 C 
ATOM     17  C   UNL     1       4.105   4.598  16.880  0.00  0.00    +0.000 C 
BRANCH  16  19
ATOM     18  N   UNL     1       6.013   4.801  19.466  0.00  0.00    +0.000 N 
ATOM     19  C   UNL     1       4.989   3.911  19.274  0.00  0.00    +0.000 C 
ATOM     20  O   UNL     1       5.126   2.843  19.889  0.00  0.00    +0.000 OA
ATOM     21  H   UNL     1       6.649   4.396  20.128  0.00  0.00    +0.000 HD
BRANCH  18  22
ATOM     22  C   UNL     1       6.706   5.518  18.425  0.00  0.00    +0.000 C 
BRANCH  22  24
ATOM     23  C   UNL     1       7.408   4.450  16.319  0.00  0.00    +0.000 C 
ATOM     24  C   UNL     1       7.602   4.640  17.633  0.00  0.00    +0.000 C 
ENDBRANCH  22  24
ENDBRANCH  18  22
ENDBRANCH  16  19
BRANCH  16  25
ATOM     25  C   UNL     1       3.051   2.663  18.243  0.00  0.00    +0.000 C 
ATOM     26  C   UNL     1       2.012   2.370  17.147  0.00  0.00    +0.000 C 
ATOM     27  C   UNL     1       4.079   1.523  18.158  0.00  0.00    +0.000 C 
ENDBRANCH  16  25
ENDBRANCH   1  16
TORSDOF 7
ENDMDL
MODEL 7
REMARK VINA RESULT:      -7.1      1.975      5.207
REMARK  Name = 
REMARK  10 active torsions:
REMARK  status: ('A' for Active; 'I' for Inactive)
REMARK    1  A    between atoms: C_2  and  C_3
REMARK    2  A    between atoms: C_3  and  N_4
REMARK    3  A    between atoms: C_5  and  C_7
REMARK    4  A    between atoms: C_7  and  C_8
REMARK    5  A    between atoms: C_7  and  C_9
REMARK    6  A    between atoms: C_7  and  N_12
REMARK    7  A    between atoms: C_9  and  C_10
REMARK    8  A    between atoms: C_9  and  C_11
REMARK    9  A    between atoms: N_12  and  C_21
REMARK   10  A    between atoms: C_13  and  C_15
REMARK                            x       y       z     vdW  Elec       q    Type
REMARK                         _______ _______ _______ _____ _____    ______ ____
ROOT
ATOM      1  N   UNL     1       5.098   5.194  18.353  0.00  0.00    +0.000 N 
ATOM      2  C   UNL     1       4.786   4.065  19.209  0.00  0.00    +0.000 C 
ATOM      3  O   UNL     1       5.689   3.371  19.674  0.00  0.00    +0.000 OA
ENDROOT
BRANCH   2   4
ATOM      4  C   UNL     1       3.394   3.574  19.607  0.00  0.00    +0.000 A 
ATOM      5  C   UNL     1       2.551   3.970  20.652  0.00  0.00    +0.000 A 
ATOM      6  C   UNL     1       1.249   3.466  20.779  0.00  0.00    +0.000 A 
ATOM      7  C   UNL     1       0.821   2.505  19.892  0.00  0.00    +0.000 A 
ATOM      8  N   UNL     1       1.600   2.029  18.907  0.00  0.00    +0.000 NA
ATOM      9  C   UNL     1       2.849   2.571  18.791  0.00  0.00    +0.000 A 
ENDBRANCH   2   4
BRANCH   1  10
ATOM     10  C   UNL     1       4.010   5.709  17.455  0.00  0.00    +0.000 C 
ATOM     11  C   UNL     1       2.504   5.675  17.750  0.00  0.00    +0.000 C 
ATOM     12  C   UNL     1       2.016   6.804  18.639  0.00  0.00    +0.000 C 
ATOM     13  C   UNL     1       2.333   8.161  18.028  0.00  0.00    +0.000 C 
ATOM     14  C   UNL     1       3.789   8.296  17.594  0.00  0.00    +0.000 C 
ATOM     15  C   UNL     1       4.302   7.098  16.804  0.00  0.00    +0.000 C 
ENDBRANCH   1  10
BRANCH   1  16
ATOM     16  C   UNL     1       6.658   5.596  18.177  0.00  0.00    +0.000 C 
ATOM     17  C   UNL     1       7.171   5.813  19.615  0.00  0.00    +0.000 C 
BRANCH  16  19
ATOM     18  N   UNL     1       7.084   4.022  16.106  0.00  0.00    +0.000 N 
ATOM     19  C   UNL     1       7.447   4.497  17.339  0.00  0.00    +0.000 C 
ATOM     20  O   UNL     1       8.450   3.947  17.817  0.00  0.00    +0.000 OA
ATOM     21  H   UNL     1       7.766   3.340  15.829  0.00  0.00    +0.000 HD
BRANCH  18  22
ATOM     22  C   UNL     1       5.750   3.635  15.717  0.00  0.00    +0.000 C 
BRANCH  22  24
ATOM     23  C   UNL     1       6.077   3.753  13.278  0.00  0.00    +0.000 C 
ATOM     24  C   UNL     1       5.389   4.130  14.366  0.00  0.00    +0.000 C 
ENDBRANCH  22  24
ENDBRANCH  18  22
ENDBRANCH  16  19
BRANCH  16  25
ATOM     25  C   UNL     1       6.852   6.951  17.310  0.00  0.00    +0.000 C 
ATOM     26  C   UNL     1       7.688   8.103  17.893  0.00  0.00    +0.000 C 
ATOM     27  C   UNL     1       7.433   6.681  15.913  0.00  0.00    +0.000 C 
ENDBRANCH  16  25
ENDBRANCH   1  16
TORSDOF 7
ENDMDL
MODEL 8
REMARK VINA RESULT:      -7.0      8.866     11.351
REMARK  Name = 
REMARK  10 active torsions:
REMARK  status: ('A' for Active; 'I' for Inactive)
REMARK    1  A    between atoms: C_2  and  C_3
REMARK    2  A    between atoms: C_3  and  N_4
REMARK    3  A    between atoms: C_5  and  C_7
REMARK    4  A    between atoms: C_7  and  C_8
REMARK    5  A    between atoms: C_7  and  C_9
REMARK    6  A    between atoms: C_7  and  N_12
REMARK    7  A    between atoms: C_9  and  C_10
REMARK    8  A    between atoms: C_9  and  C_11
REMARK    9  A    between atoms: N_12  and  C_21
REMARK   10  A    between atoms: C_13  and  C_15
REMARK                            x       y       z     vdW  Elec       q    Type
REMARK                         _______ _______ _______ _____ _____    ______ ____
ROOT
ATOM      1  N   UNL     1       8.742  13.587  20.146  0.00  0.00    +0.000 N 
ATOM      2  C   UNL     1       8.162  13.989  21.414  0.00  0.00    +0.000 C 
ATOM      3  O   UNL     1       8.046  15.182  21.692  0.00  0.00    +0.000 OA
ENDROOT
BRANCH   2   4
ATOM      4  C   UNL     1       7.679  13.068  22.534  0.00  0.00    +0.000 A 
ATOM      5  C   UNL     1       8.397  12.276  23.437  0.00  0.00    +0.000 A 
ATOM      6  C   UNL     1       7.760  11.581  24.475  0.00  0.00    +0.000 A 
ATOM      7  C   UNL     1       6.387  11.626  24.558  0.00  0.00    +0.000 A 
ATOM      8  N   UNL     1       5.630  12.310  23.684  0.00  0.00    +0.000 NA
ATOM      9  C   UNL     1       6.288  13.005  22.710  0.00  0.00    +0.000 A 
ENDBRANCH   2   4
BRANCH   1  10
ATOM     10  C   UNL     1       9.285  12.191  20.040  0.00  0.00    +0.000 C 
ATOM     11  C   UNL     1       9.331  11.333  18.768  0.00  0.00    +0.000 C 
ATOM     12  C   UNL     1      10.504  11.633  17.854  0.00  0.00    +0.000 C 
ATOM     13  C   UNL     1      11.828  11.448  18.579  0.00  0.00    +0.000 C 
ATOM     14  C   UNL     1      11.882  12.174  19.920  0.00  0.00    +0.000 C 
ATOM     15  C   UNL     1      10.641  11.960  20.778  0.00  0.00    +0.000 C 
ENDBRANCH   1  10
BRANCH   1  16
ATOM     16  C   UNL     1       9.064  14.748  19.064  0.00  0.00    +0.000 C 
ATOM     17  C   UNL     1       9.227  14.001  17.724  0.00  0.00    +0.000 C 
BRANCH  16  19
ATOM     18  N   UNL     1       6.590  15.655  19.006  0.00  0.00    +0.000 N 
ATOM     19  C   UNL     1       7.941  15.875  19.073  0.00  0.00    +0.000 C 
ATOM     20  O   UNL     1       8.257  17.074  19.081  0.00  0.00    +0.000 OA
ATOM     21  H   UNL     1       6.134  16.548  19.029  0.00  0.00    +0.000 HD
BRANCH  18  22
ATOM     22  C   UNL     1       5.934  14.740  18.105  0.00  0.00    +0.000 C 
BRANCH  22  24
ATOM     23  C   UNL     1       3.502  14.370  18.234  0.00  0.00    +0.000 C 
ATOM     24  C   UNL     1       4.530  15.130  17.826  0.00  0.00    +0.000 C 
ENDBRANCH  22  24
ENDBRANCH  18  22
ENDBRANCH  16  19
BRANCH  16  25
ATOM     25  C   UNL     1      10.422  15.559  19.414  0.00  0.00    +0.000 C 
ATOM     26  C   UNL     1      11.052  15.403  20.810  0.00  0.00    +0.000 C 
ATOM     27  C   UNL     1      11.554  15.278  18.413  0.00  0.00    +0.000 C 
ENDBRANCH  16  25
ENDBRANCH   1  16
TORSDOF 7
ENDMDL
MODEL 9
REMARK VINA RESULT:      -7.0      1.636      2.299
REMARK  Name = 
REMARK  10 active torsions:
REMARK  status: ('A' for Active; 'I' for Inactive)
REMARK    1  A    between atoms: C_2  and  C_3
REMARK    2  A    between atoms: C_3  and  N_4
REMARK    3  A    between atoms: C_5  and  C_7
REMARK    4  A    between atoms: C_7  and  C_8
REMARK    5  A    between atoms: C_7  and  C_9
REMARK    6  A    between atoms: C_7  and  N_12
REMARK    7  A    between atoms: C_9  and  C_10
REMARK    8  A    between atoms: C_9  and  C_11
REMARK    9  A    between atoms: N_12  and  C_21
REMARK   10  A    between atoms: C_13  and  C_15
REMARK                            x       y       z     vdW  Elec       q    Type
REMARK                         _______ _______ _______ _____ _____    ______ ____
ROOT
ATOM      1  N   UNL     1       3.215   5.031  18.094  0.00  0.00    +0.000 N 
ATOM      2  C   UNL     1       3.589   6.377  18.486  0.00  0.00    +0.000 C 
ATOM      3  O   UNL     1       4.755   6.637  18.777  0.00  0.00    +0.000 OA
ENDROOT
BRANCH   2   4
ATOM      4  C   UNL     1       2.658   7.582  18.625  0.00  0.00    +0.000 A 
ATOM      5  C   UNL     1       2.201   8.497  17.669  0.00  0.00    +0.000 A 
ATOM      6  C   UNL     1       1.250   9.477  17.984  0.00  0.00    +0.000 A 
ATOM      7  C   UNL     1       0.814   9.583  19.285  0.00  0.00    +0.000 A 
ATOM      8  N   UNL     1       1.261   8.784  20.267  0.00  0.00    +0.000 NA
ATOM      9  C   UNL     1       2.158   7.816  19.915  0.00  0.00    +0.000 A 
ENDBRANCH   2   4
BRANCH   1  10
ATOM     10  C   UNL     1       1.767   4.650  18.201  0.00  0.00    +0.000 C 
ATOM     11  C   UNL     1       1.140   3.335  17.719  0.00  0.00    +0.000 C 
ATOM     12  C   UNL     1       1.298   2.176  18.685  0.00  0.00    +0.000 C 
ATOM     13  C   UNL     1       0.690   2.503  20.040  0.00  0.00    +0.000 C 
ATOM     14  C   UNL     1       1.156   3.845  20.596  0.00  0.00    +0.000 C 
ATOM     15  C   UNL     1       1.105   4.977  19.577  0.00  0.00    +0.000 C 
ENDBRANCH   1  10
BRANCH   1  16
ATOM     16  C   UNL     1       4.404   3.948  17.896  0.00  0.00    +0.000 C 
ATOM     17  C   UNL     1       3.882   2.987  16.808  0.00  0.00    +0.000 C 
BRANCH  16  19
ATOM     18  N   UNL     1       6.005   5.514  16.506  0.00  0.00    +0.000 N 
ATOM     19  C   UNL     1       5.785   4.662  17.555  0.00  0.00    +0.000 C 
ATOM     20  O   UNL     1       6.799   4.418  18.228  0.00  0.00    +0.000 OA
ATOM     21  H   UNL     1       6.964   5.804  16.543  0.00  0.00    +0.000 HD
BRANCH  18  22
ATOM     22  C   UNL     1       5.560   5.305  15.150  0.00  0.00    +0.000 C 
BRANCH  22  24
ATOM     23  C   UNL     1       6.026   3.741  13.305  0.00  0.00    +0.000 C 
ATOM     24  C   UNL     1       6.456   4.397  14.393  0.00  0.00    +0.000 C 
ENDBRANCH  22  24
ENDBRANCH  18  22
ENDBRANCH  16  19
BRANCH  16  25
ATOM     25  C   UNL     1       4.723   3.125  19.254  0.00  0.00    +0.000 C 
ATOM     26  C   UNL     1       4.210   3.668  20.599  0.00  0.00    +0.000 C 
ATOM     27  C   UNL     1       4.250   1.665  19.187  0.00  0.00    +0.000 C 
ENDBRANCH  16  25
ENDBRANCH   1  16
TORSDOF 7
ENDMDL
