MODEL 1
REMARK VINA RESULT:      -9.0      0.000      0.000
REMARK  Name = 
REMARK  7 active torsions:
REMARK  status: ('A' for Active; 'I' for Inactive)
REMARK    1  A    between atoms: C_1  and  O_2
REMARK    2  A    between atoms: O_2  and  C_3
REMARK    3  A    between atoms: C_6  and  N_7
REMARK    4  A    between atoms: N_7  and  C_8
REMARK    5  A    between atoms: C_10  and  C_11
REMARK    6  A    between atoms: C_22  and  O_23
REMARK    7  A    between atoms: O_23  and  C_24
REMARK                            x       y       z     vdW  Elec       q    Type
REMARK                         _______ _______ _______ _____ _____    ______ ____
ROOT
ATOM      1  C   UNL     1       4.111   4.225  19.345  0.00  0.00    +0.000 A 
ATOM      2  N   UNL     1       3.551   3.345  20.215  0.00  0.00    +0.000 NA
ATOM      3  C   UNL     1       2.443   3.719  20.908  0.00  0.00    +0.000 A 
ATOM      4  C   UNL     1       1.627   2.655  21.578  0.00  0.00    +0.000 C 
ATOM      5  N   UNL     1       1.912   4.951  20.954  0.00  0.00    +0.000 NA
ATOM      6  C   UNL     1       2.395   5.767  19.996  0.00  0.00    +0.000 A 
ATOM      7  C   UNL     1       3.373   5.393  19.107  0.00  0.00    +0.000 A 
ATOM      8  O   UNL     1       3.516   6.348  18.135  0.00  0.00    +0.000 OA
ATOM      9  C   UNL     1       2.676   7.369  18.478  0.00  0.00    +0.000 A 
ATOM     10  C   UNL     1       2.427   8.522  17.742  0.00  0.00    +0.000 A 
ATOM     11  C   UNL     1       1.656   9.508  18.374  0.00  0.00    +0.000 A 
ATOM     12  C   UNL     1       1.192   9.343  19.680  0.00  0.00    +0.000 A 
ATOM     13  C   UNL     1       1.374   8.136  20.349  0.00  0.00    +0.000 A 
ATOM     14  C   UNL     1       2.097   7.113  19.719  0.00  0.00    +0.000 A 
ENDROOT
BRANCH   1  15
ATOM     15  N   UNL     1       5.403   3.984  18.832  0.00  0.00    +0.000 N 
ATOM     16  H   UNL     1       6.074   4.417  19.458  0.00  0.00    +0.000 HD
BRANCH  15  20
ATOM     17  C   UNL     1       6.629   4.504  14.787  0.00  0.00    +0.000 A 
ATOM     18  C   UNL     1       5.428   3.874  15.084  0.00  0.00    +0.000 A 
ATOM     19  C   UNL     1       5.017   3.724  16.408  0.00  0.00    +0.000 A 
ATOM     20  C   UNL     1       5.816   4.164  17.476  0.00  0.00    +0.000 A 
ATOM     21  C   UNL     1       7.017   4.848  17.172  0.00  0.00    +0.000 A 
ATOM     22  C   UNL     1       7.415   4.999  15.829  0.00  0.00    +0.000 A 
BRANCH  17  24
ATOM     23  C   UNL     1       6.297   3.631  12.596  0.00  0.00    +0.000 C 
ATOM     24  O   UNL     1       6.905   4.591  13.450  0.00  0.00    +0.000 OA
ENDBRANCH  17  24
BRANCH  21  25
ATOM     25  O   UNL     1       7.730   5.334  18.243  0.00  0.00    +0.000 OA
ATOM     26  C   UNL     1       7.849   6.752  18.347  0.00  0.00    +0.000 C 
ENDBRANCH  21  25
ENDBRANCH  15  20
ENDBRANCH   1  15
TORSDOF 4
ENDMDL
MODEL 2
REMARK VINA RESULT:      -8.3      2.268      6.669
REMARK  Name = 
REMARK  7 active torsions:
REMARK  status: ('A' for Active; 'I' for Inactive)
REMARK    1  A    between atoms: C_1  and  O_2
REMARK    2  A    between atoms: O_2  and  C_3
REMARK    3  A    between atoms: C_6  and  N_7
REMARK    4  A    between atoms: N_7  and  C_8
REMARK    5  A    between atoms: C_10  and  C_11
REMARK    6  A    between atoms: C_22  and  O_23
REMARK    7  A    between atoms: O_23  and  C_24
REMARK                            x       y       z     vdW  Elec       q    Type
REMARK                         _______ _______ _______ _____ _____    ______ ____
ROOT
ATOM      1  C   UNL     1       2.534   5.558  19.779  0.00  0.00    +0.000 A 
ATOM      2  N   UNL     1       1.482   4.706  19.664  0.00  0.00    +0.000 NA
ATOM      3  C   UNL     1       1.553   3.692  18.761  0.00  0.00    +0.000 A 
ATOM      4  C   UNL     1       0.577   2.561  18.881  0.00  0.00    +0.000 C 
ATOM      5  N   UNL     1       2.503   3.522  17.829  0.00  0.00    +0.000 NA
ATOM      6  C   UNL     1       3.590   4.290  18.041  0.00  0.00    +0.000 A 
ATOM      7  C   UNL     1       3.687   5.196  19.069  0.00  0.00    +0.000 A 
ATOM      8  O   UNL     1       4.967   5.678  19.153  0.00  0.00    +0.000 OA
ATOM      9  C   UNL     1       5.649   5.128  18.105  0.00  0.00    +0.000 A 
ATOM     10  C   UNL     1       7.006   5.270  17.833  0.00  0.00    +0.000 A 
ATOM     11  C   UNL     1       7.450   4.754  16.608  0.00  0.00    +0.000 A 
ATOM     12  C   UNL     1       6.568   4.157  15.707  0.00  0.00    +0.000 A 
ATOM     13  C   UNL     1       5.238   3.941  16.055  0.00  0.00    +0.000 A 
ATOM     14  C   UNL     1       4.779   4.401  17.297  0.00  0.00    +0.000 A 
ENDROOT
BRANCH   1  15
ATOM     15  N   UNL     1       2.385   6.770  20.486  0.00  0.00    +0.000 N 
ATOM     16  H   UNL     1       1.966   6.558  21.386  0.00  0.00    +0.000 HD
BRANCH  15  20
ATOM     17  C   UNL     1       0.765  10.389  18.934  0.00  0.00    +0.000 A 
ATOM     18  C   UNL     1       1.414   9.491  18.097  0.00  0.00    +0.000 A 
ATOM     19  C   UNL     1       1.925   8.297  18.603  0.00  0.00    +0.000 A 
ATOM     20  C   UNL     1       1.836   7.983  19.969  0.00  0.00    +0.000 A 
ATOM     21  C   UNL     1       1.134   8.875  20.813  0.00  0.00    +0.000 A 
ATOM     22  C   UNL     1       0.616  10.075  20.286  0.00  0.00    +0.000 A 
BRANCH  17  24
ATOM     23  C   UNL     1      -1.090  11.773  18.372  0.00  0.00    +0.000 C 
ATOM     24  O   UNL     1       0.306  11.515  18.307  0.00  0.00    +0.000 OA
ENDBRANCH  17  24
BRANCH  21  25
ATOM     25  O   UNL     1       0.999   8.494  22.127  0.00  0.00    +0.000 OA
ATOM     26  C   UNL     1       0.258   9.365  22.979  0.00  0.00    +0.000 C 
ENDBRANCH  21  25
ENDBRANCH  15  20
ENDBRANCH   1  15
TORSDOF 4
ENDMDL
MODEL 3
REMARK VINA RESULT:      -7.9      1.338      2.853
REMARK  Name = 
REMARK  7 active torsions:
REMARK  status: ('A' for Active; 'I' for Inactive)
REMARK    1  A    between atoms: C_1  and  O_2
REMARK    2  A    between atoms: O_2  and  C_3
REMARK    3  A    between atoms: C_6  and  N_7
REMARK    4  A    between atoms: N_7  and  C_8
REMARK    5  A    between atoms: C_10  and  C_11
REMARK    6  A    between atoms: C_22  and  O_23
REMARK    7  A    between atoms: O_23  and  C_24
REMARK                            x       y       z     vdW  Elec       q    Type
REMARK                         _______ _______ _______ _____ _____    ______ ____
ROOT
ATOM      1  C   UNL     1       3.837   4.219  19.336  0.00  0.00    +0.000 A 
ATOM      2  N   UNL     1       3.404   3.231  20.161  0.00  0.00    +0.000 NA
ATOM      3  C   UNL     1       2.380   3.490  21.017  0.00  0.00    +0.000 A 
ATOM      4  C   UNL     1       1.673   2.333  21.654  0.00  0.00    +0.000 C 
ATOM      5  N   UNL     1       1.833   4.691  21.262  0.00  0.00    +0.000 NA
ATOM      6  C   UNL     1       2.182   5.622  20.352  0.00  0.00    +0.000 A 
ATOM      7  C   UNL     1       3.053   5.380  19.318  0.00  0.00    +0.000 A 
ATOM      8  O   UNL     1       3.059   6.440  18.450  0.00  0.00    +0.000 OA
ATOM      9  C   UNL     1       2.245   7.388  19.002  0.00  0.00    +0.000 A 
ATOM     10  C   UNL     1       1.886   8.606  18.433  0.00  0.00    +0.000 A 
ATOM     11  C   UNL     1       1.177   9.491  19.258  0.00  0.00    +0.000 A 
ATOM     12  C   UNL     1       0.877   9.169  20.582  0.00  0.00    +0.000 A 
ATOM     13  C   UNL     1       1.162   7.904  21.086  0.00  0.00    +0.000 A 
ATOM     14  C   UNL     1       1.825   6.980  20.265  0.00  0.00    +0.000 A 
ENDROOT
BRANCH   1  15
ATOM     15  N   UNL     1       5.063   4.078  18.651  0.00  0.00    +0.000 N 
ATOM     16  H   UNL     1       5.602   3.356  19.119  0.00  0.00    +0.000 HD
BRANCH  15  20
ATOM     17  C   UNL     1       7.631   7.258  17.456  0.00  0.00    +0.000 A 
ATOM     18  C   UNL     1       7.722   6.720  18.733  0.00  0.00    +0.000 A 
ATOM     19  C   UNL     1       6.895   5.665  19.116  0.00  0.00    +0.000 A 
ATOM     20  C   UNL     1       5.925   5.142  18.245  0.00  0.00    +0.000 A 
ATOM     21  C   UNL     1       5.865   5.658  16.929  0.00  0.00    +0.000 A 
ATOM     22  C   UNL     1       6.712   6.719  16.554  0.00  0.00    +0.000 A 
BRANCH  17  24
ATOM     23  C   UNL     1       8.434   9.416  18.064  0.00  0.00    +0.000 C 
ATOM     24  O   UNL     1       8.505   8.281  17.212  0.00  0.00    +0.000 OA
ENDBRANCH  17  24
BRANCH  21  25
ATOM     25  O   UNL     1       4.958   5.065  16.082  0.00  0.00    +0.000 OA
ATOM     26  C   UNL     1       5.488   4.357  14.963  0.00  0.00    +0.000 C 
ENDBRANCH  21  25
ENDBRANCH  15  20
ENDBRANCH   1  15
TORSDOF 4
ENDMDL
MODEL 4
REMARK VINA RESULT:      -7.8      2.752      7.621
REMARK  Name = 
REMARK  7 active torsions:
REMARK  status: ('A' for Active; 'I' for Inactive)
REMARK    1  A    between atoms: C_1  and  O_2
REMARK    2  A    between atoms: O_2  and  C_3
REMARK    3  A    between atoms: C_6  and  N_7
REMARK    4  A    between atoms: N_7  and  C_8
REMARK    5  A    between atoms: C_10  and  C_11
REMARK    6  A    between atoms: C_22  and  O_23
REMARK    7  A    between atoms: O_23  and  C_24
REMARK                            x       y       z     vdW  Elec       q    Type
REMARK                         _______ _______ _______ _____ _____    ______ ____
ROOT
ATOM      1  C   UNL     1       2.432   6.888  19.388  0.00  0.00    +0.000 A 
ATOM      2  N   UNL     1       1.937   6.018  20.305  0.00  0.00    +0.000 NA
ATOM      3  C   UNL     1       2.302   4.710  20.236  0.00  0.00    +0.000 A 
ATOM      4  C   UNL     1       2.057   3.837  21.429  0.00  0.00    +0.000 C 
ATOM      5  N   UNL     1       2.991   4.129  19.242  0.00  0.00    +0.000 NA
ATOM      6  C   UNL     1       3.578   5.020  18.419  0.00  0.00    +0.000 A 
ATOM      7  C   UNL     1       3.434   6.380  18.550  0.00  0.00    +0.000 A 
ATOM      8  O   UNL     1       4.297   7.028  17.706  0.00  0.00    +0.000 OA
ATOM      9  C   UNL     1       4.921   6.055  16.979  0.00  0.00    +0.000 A 
ATOM     10  C   UNL     1       5.940   6.238  16.050  0.00  0.00    +0.000 A 
ATOM     11  C   UNL     1       6.308   5.111  15.303  0.00  0.00    +0.000 A 
ATOM     12  C   UNL     1       5.665   3.884  15.471  0.00  0.00    +0.000 A 
ATOM     13  C   UNL     1       4.720   3.711  16.478  0.00  0.00    +0.000 A 
ATOM     14  C   UNL     1       4.370   4.811  17.275  0.00  0.00    +0.000 A 
ENDROOT
BRANCH   1  15
ATOM     15  N   UNL     1       1.862   8.172  19.255  0.00  0.00    +0.000 N 
ATOM     16  H   UNL     1       2.553   8.778  18.823  0.00  0.00    +0.000 HD
BRANCH  15  20
ATOM     17  C   UNL     1      -0.250  10.288  22.287  0.00  0.00    +0.000 A 
ATOM     18  C   UNL     1       0.653   9.288  22.624  0.00  0.00    +0.000 A 
ATOM     19  C   UNL     1       1.359   8.611  21.631  0.00  0.00    +0.000 A 
ATOM     20  C   UNL     1       1.155   8.887  20.269  0.00  0.00    +0.000 A 
ATOM     21  C   UNL     1       0.270   9.938  19.929  0.00  0.00    +0.000 A 
ATOM     22  C   UNL     1      -0.430  10.619  20.943  0.00  0.00    +0.000 A 
BRANCH  17  24
ATOM     23  C   UNL     1      -1.979  11.716  23.088  0.00  0.00    +0.000 C 
ATOM     24  O   UNL     1      -0.867  10.875  23.358  0.00  0.00    +0.000 OA
ENDBRANCH  17  24
BRANCH  21  25
ATOM     25  O   UNL     1       0.159  10.232  18.590  0.00  0.00    +0.000 OA
ATOM     26  C   UNL     1      -1.160  10.276  18.047  0.00  0.00    +0.000 C 
ENDBRANCH  21  25
ENDBRANCH  15  20
ENDBRANCH   1  15
TORSDOF 4
ENDMDL
MODEL 5
REMARK VINA RESULT:      -7.7      1.134      1.895
REMARK  Name = 
REMARK  7 active torsions:
REMARK  status: ('A' for Active; 'I' for Inactive)
REMARK    1  A    between atoms: C_1  and  O_2
REMARK    2  A    between atoms: O_2  and  C_3
REMARK    3  A    between atoms: C_6  and  N_7
REMARK    4  A    between atoms: N_7  and  C_8
REMARK    5  A    between atoms: C_10  and  C_11
REMARK    6  A    between atoms: C_22  and  O_23
REMARK    7  A    between atoms: O_23  and  C_24
REMARK                            x       y       z     vdW  Elec       q    Type
REMARK                         _______ _______ _______ _____ _____    ______ ____
ROOT
ATOM      1  C   UNL     1       4.074   4.989  19.404  0.00  0.00    +0.000 A 
ATOM      2  N   UNL     1       3.569   4.055  20.251  0.00  0.00    +0.000 NA
ATOM      3  C   UNL     1       2.427   4.333  20.933  0.00  0.00    +0.000 A 
ATOM      4  C   UNL     1       1.685   3.200  21.574  0.00  0.00    +0.000 C 
ATOM      5  N   UNL     1       1.804   5.520  20.988  0.00  0.00    +0.000 NA
ATOM      6  C   UNL     1       2.237   6.386  20.050  0.00  0.00    +0.000 A 
ATOM      7  C   UNL     1       3.253   6.101  19.171  0.00  0.00    +0.000 A 
ATOM      8  O   UNL     1       3.337   7.080  18.216  0.00  0.00    +0.000 OA
ATOM      9  C   UNL     1       2.418   8.028  18.562  0.00  0.00    +0.000 A 
ATOM     10  C   UNL     1       2.092   9.171  17.838  0.00  0.00    +0.000 A 
ATOM     11  C   UNL     1       1.240  10.086  18.473  0.00  0.00    +0.000 A 
ATOM     12  C   UNL     1       0.771   9.865  19.769  0.00  0.00    +0.000 A 
ATOM     13  C   UNL     1       1.035   8.665  20.424  0.00  0.00    +0.000 A 
ATOM     14  C   UNL     1       1.842   7.710  19.789  0.00  0.00    +0.000 A 
ENDROOT
BRANCH   1  15
ATOM     15  N   UNL     1       5.388   4.854  18.906  0.00  0.00    +0.000 N 
ATOM     16  H   UNL     1       5.967   5.552  19.361  0.00  0.00    +0.000 HD
BRANCH  15  20
ATOM     17  C   UNL     1       6.492   4.517  14.808  0.00  0.00    +0.000 A 
ATOM     18  C   UNL     1       7.135   5.424  15.639  0.00  0.00    +0.000 A 
ATOM     19  C   UNL     1       6.788   5.518  16.986  0.00  0.00    +0.000 A 
ATOM     20  C   UNL     1       5.758   4.735  17.532  0.00  0.00    +0.000 A 
ATOM     21  C   UNL     1       5.134   3.778  16.696  0.00  0.00    +0.000 A 
ATOM     22  C   UNL     1       5.502   3.689  15.340  0.00  0.00    +0.000 A 
BRANCH  17  24
ATOM     23  C   UNL     1       6.330   3.607  12.613  0.00  0.00    +0.000 C 
ATOM     24  O   UNL     1       6.936   4.524  13.514  0.00  0.00    +0.000 OA
ENDBRANCH  17  24
BRANCH  21  25
ATOM     25  O   UNL     1       4.188   2.975  17.289  0.00  0.00    +0.000 OA
ATOM     26  C   UNL     1       2.838   3.143  16.857  0.00  0.00    +0.000 C 
ENDBRANCH  21  25
ENDBRANCH  15  20
ENDBRANCH   1  15
TORSDOF 4
ENDMDL
MODEL 6
REMARK VINA RESULT:      -7.6      1.308      1.614
REMARK  Name = 
REMARK  7 active torsions:
REMARK  status: ('A' for Active; 'I' for Inactive)
REMARK    1  A    between atoms: C_1  and  O_2
REMARK    2  A    between atoms: O_2  and  C_3
REMARK    3  A    between atoms: C_6  and  N_7
REMARK    4  A    between atoms: N_7  and  C_8
REMARK    5  A    between atoms: C_10  and  C_11
REMARK    6  A    between atoms: C_22  and  O_23
REMARK    7  A    between atoms: O_23  and  C_24
REMARK                            x       y       z     vdW  Elec       q    Type
REMARK                         _______ _______ _______ _____ _____    ______ ____
ROOT
ATOM      1  C   UNL     1       3.770   5.964  19.052  0.00  0.00    +0.000 A 
ATOM      2  N   UNL     1       3.577   4.709  19.535  0.00  0.00    +0.000 NA
ATOM      3  C   UNL     1       2.522   4.477  20.361  0.00  0.00    +0.000 A 
ATOM      4  C   UNL     1       2.102   3.058  20.599  0.00  0.00    +0.000 C 
ATOM      5  N   UNL     1       1.715   5.403  20.899  0.00  0.00    +0.000 NA
ATOM      6  C   UNL     1       1.837   6.611  20.313  0.00  0.00    +0.000 A 
ATOM      7  C   UNL     1       2.739   6.878  19.312  0.00  0.00    +0.000 A 
ATOM      8  O   UNL     1       2.499   8.117  18.780  0.00  0.00    +0.000 OA
ATOM      9  C   UNL     1       1.490   8.661  19.523  0.00  0.00    +0.000 A 
ATOM     10  C   UNL     1       0.859   9.880  19.299  0.00  0.00    +0.000 A 
ATOM     11  C   UNL     1      -0.033  10.309  20.292  0.00  0.00    +0.000 A 
ATOM     12  C   UNL     1      -0.249   9.559  21.450  0.00  0.00    +0.000 A 
ATOM     13  C   UNL     1       0.322   8.298  21.594  0.00  0.00    +0.000 A 
ATOM     14  C   UNL     1       1.178   7.822  20.590  0.00  0.00    +0.000 A 
ENDROOT
BRANCH   1  15
ATOM     15  N   UNL     1       4.993   6.302  18.436  0.00  0.00    +0.000 N 
ATOM     16  H   UNL     1       5.040   7.314  18.368  0.00  0.00    +0.000 HD
BRANCH  15  20
ATOM     17  C   UNL     1       6.577   4.534  14.901  0.00  0.00    +0.000 A 
ATOM     18  C   UNL     1       5.525   5.438  14.827  0.00  0.00    +0.000 A 
ATOM     19  C   UNL     1       5.023   6.033  15.983  0.00  0.00    +0.000 A 
ATOM     20  C   UNL     1       5.530   5.710  17.252  0.00  0.00    +0.000 A 
ATOM     21  C   UNL     1       6.632   4.825  17.324  0.00  0.00    +0.000 A 
ATOM     22  C   UNL     1       7.135   4.238  16.146  0.00  0.00    +0.000 A 
BRANCH  17  24
ATOM     23  C   UNL     1       5.964   3.545  12.823  0.00  0.00    +0.000 C 
ATOM     24  O   UNL     1       6.976   4.033  13.693  0.00  0.00    +0.000 OA
ENDBRANCH  17  24
BRANCH  21  25
ATOM     25  O   UNL     1       7.152   4.598  18.576  0.00  0.00    +0.000 OA
ATOM     26  C   UNL     1       8.012   5.603  19.110  0.00  0.00    +0.000 C 
ENDBRANCH  21  25
ENDBRANCH  15  20
ENDBRANCH   1  15
TORSDOF 4
ENDMDL
MODEL 7
REMARK VINA RESULT:      -7.5      2.171      6.618
REMARK  Name = 
REMARK  7 active torsions:
REMARK  status: ('A' for Active; 'I' for Inactive)
REMARK    1  A    between atoms: C_1  and  O_2
REMARK    2  A    between atoms: O_2  and  C_3
REMARK    3  A    between atoms: C_6  and  N_7
REMARK    4  A    between atoms: N_7  and  C_8
REMARK    5  A    between atoms: C_10  and  C_11
REMARK    6  A    between atoms: C_22  and  O_23
REMARK    7  A    between atoms: O_23  and  C_24
REMARK                            x       y       z     vdW  Elec       q    Type
REMARK                         _______ _______ _______ _____ _____    ______ ____
ROOT
ATOM      1  C   UNL     1       2.386   5.362  20.196  0.00  0.00    +0.000 A 
ATOM      2  N   UNL     1       1.330   4.546  19.943  0.00  0.00    +0.000 NA
ATOM      3  C   UNL     1       1.431   3.627  18.947  0.00  0.00    +0.000 A 
ATOM      4  C   UNL     1       0.435   2.509  18.904  0.00  0.00    +0.000 C 
ATOM      5  N   UNL     1       2.426   3.532  18.051  0.00  0.00    +0.000 NA
ATOM      6  C   UNL     1       3.512   4.254  18.394  0.00  0.00    +0.000 A 
ATOM      7  C   UNL     1       3.569   5.050  19.512  0.00  0.00    +0.000 A 
ATOM      8  O   UNL     1       4.849   5.496  19.707  0.00  0.00    +0.000 OA
ATOM      9  C   UNL     1       5.577   5.041  18.645  0.00  0.00    +0.000 A 
ATOM     10  C   UNL     1       6.948   5.183  18.456  0.00  0.00    +0.000 A 
ATOM     11  C   UNL     1       7.447   4.784  17.208  0.00  0.00    +0.000 A 
ATOM     12  C   UNL     1       6.603   4.296  16.209  0.00  0.00    +0.000 A 
ATOM     13  C   UNL     1       5.254   4.073  16.467  0.00  0.00    +0.000 A 
ATOM     14  C   UNL     1       4.738   4.416  17.725  0.00  0.00    +0.000 A 
ENDROOT
BRANCH   1  15
ATOM     15  N   UNL     1       2.218   6.500  21.013  0.00  0.00    +0.000 N 
ATOM     16  H   UNL     1       2.004   6.181  21.953  0.00  0.00    +0.000 HD
BRANCH  15  20
ATOM     17  C   UNL     1      -0.137   9.923  20.084  0.00  0.00    +0.000 A 
ATOM     18  C   UNL     1      -0.389   9.185  21.233  0.00  0.00    +0.000 A 
ATOM     19  C   UNL     1       0.397   8.077  21.547  0.00  0.00    +0.000 A 
ATOM     20  C   UNL     1       1.433   7.651  20.700  0.00  0.00    +0.000 A 
ATOM     21  C   UNL     1       1.720   8.431  19.555  0.00  0.00    +0.000 A 
ATOM     22  C   UNL     1       0.923   9.553  19.255  0.00  0.00    +0.000 A 
BRANCH  17  24
ATOM     23  C   UNL     1      -1.225  11.400  18.565  0.00  0.00    +0.000 C 
ATOM     24  O   UNL     1      -0.977  10.987  19.902  0.00  0.00    +0.000 OA
ENDBRANCH  17  24
BRANCH  21  25
ATOM     25  O   UNL     1       2.794   8.028  18.796  0.00  0.00    +0.000 OA
ATOM     26  C   UNL     1       2.605   7.986  17.383  0.00  0.00    +0.000 C 
ENDBRANCH  21  25
ENDBRANCH  15  20
ENDBRANCH   1  15
TORSDOF 4
ENDMDL
MODEL 8
REMARK VINA RESULT:      -7.4      4.453      8.611
REMARK  Name = 
REMARK  7 active torsions:
REMARK  status: ('A' for Active; 'I' for Inactive)
REMARK    1  A    between atoms: C_1  and  O_2
REMARK    2  A    between atoms: O_2  and  C_3
REMARK    3  A    between atoms: C_6  and  N_7
REMARK    4  A    between atoms: N_7  and  C_8
REMARK    5  A    between atoms: C_10  and  C_11
REMARK    6  A    between atoms: C_22  and  O_23
REMARK    7  A    between atoms: O_23  and  C_24
REMARK                            x       y       z     vdW  Elec       q    Type
REMARK                         _______ _______ _______ _____ _____    ______ ____
ROOT
ATOM      1  C   UNL     1       0.722   9.837  19.139  0.00  0.00    +0.000 A 
ATOM      2  N   UNL     1       0.321   9.927  20.434  0.00  0.00    +0.000 NA
ATOM      3  C   UNL     1       0.750   8.992  21.322  0.00  0.00    +0.000 A 
ATOM      4  C   UNL     1       0.613   9.284  22.786  0.00  0.00    +0.000 C 
ATOM      5  N   UNL     1       1.416   7.865  21.030  0.00  0.00    +0.000 NA
ATOM      6  C   UNL     1       1.912   7.858  19.777  0.00  0.00    +0.000 A 
ATOM      7  C   UNL     1       1.704   8.873  18.876  0.00  0.00    +0.000 A 
ATOM      8  O   UNL     1       2.488   8.686  17.767  0.00  0.00    +0.000 OA
ATOM      9  C   UNL     1       3.123   7.491  17.948  0.00  0.00    +0.000 A 
ATOM     10  C   UNL     1       4.082   6.927  17.113  0.00  0.00    +0.000 A 
ATOM     11  C   UNL     1       4.471   5.614  17.412  0.00  0.00    +0.000 A 
ATOM     12  C   UNL     1       3.901   4.911  18.475  0.00  0.00    +0.000 A 
ATOM     13  C   UNL     1       3.020   5.540  19.350  0.00  0.00    +0.000 A 
ATOM     14  C   UNL     1       2.655   6.871  19.103  0.00  0.00    +0.000 A 
ENDROOT
BRANCH   1  15
ATOM     15  N   UNL     1       0.079  10.607  18.147  0.00  0.00    +0.000 N 
ATOM     16  H   UNL     1       0.528  11.517  18.117  0.00  0.00    +0.000 HD
BRANCH  15  20
ATOM     17  C   UNL     1      -4.126  11.048  17.636  0.00  0.00    +0.000 A 
ATOM     18  C   UNL     1      -3.458   9.965  17.081  0.00  0.00    +0.000 A 
ATOM     19  C   UNL     1      -2.085   9.811  17.267  0.00  0.00    +0.000 A 
ATOM     20  C   UNL     1      -1.332  10.756  17.981  0.00  0.00    +0.000 A 
ATOM     21  C   UNL     1      -2.020  11.835  18.587  0.00  0.00    +0.000 A 
ATOM     22  C   UNL     1      -3.409  11.974  18.397  0.00  0.00    +0.000 A 
BRANCH  17  24
ATOM     23  C   UNL     1      -6.343  10.833  18.478  0.00  0.00    +0.000 C 
ATOM     24  O   UNL     1      -5.469  11.073  17.383  0.00  0.00    +0.000 OA
ENDBRANCH  17  24
BRANCH  21  25
ATOM     25  O   UNL     1      -1.260  12.694  19.345  0.00  0.00    +0.000 OA
ATOM     26  C   UNL     1      -1.686  12.919  20.688  0.00  0.00    +0.000 C 
ENDBRANCH  21  25
ENDBRANCH  15  20
ENDBRANCH   1  15
TORSDOF 4
ENDMDL
MODEL 9
REMARK VINA RESULT:      -7.4      2.050      6.919
REMARK  Name = 
REMARK  7 active torsions:
REMARK  status: ('A' for Active; 'I' for Inactive)
REMARK    1  A    between atoms: C_1  and  O_2
REMARK    2  A    between atoms: O_2  and  C_3
REMARK    3  A    between atoms: C_6  and  N_7
REMARK    4  A    between atoms: N_7  and  C_8
REMARK    5  A    between atoms: C_10  and  C_11
REMARK    6  A    between atoms: C_22  and  O_23
REMARK    7  A    between atoms: O_23  and  C_24
REMARK                            x       y       z     vdW  Elec       q    Type
REMARK                         _______ _______ _______ _____ _____    ______ ____
ROOT
ATOM      1  C   UNL     1       6.342   4.832  17.780  0.00  0.00    +0.000 A 
ATOM      2  N   UNL     1       6.942   5.967  18.223  0.00  0.00    +0.000 NA
ATOM      3  C   UNL     1       7.540   6.790  17.322  0.00  0.00    +0.000 A 
ATOM      4  C   UNL     1       7.876   8.187  17.746  0.00  0.00    +0.000 C 
ATOM      5  N   UNL     1       7.752   6.527  16.023  0.00  0.00    +0.000 NA
ATOM      6  C   UNL     1       7.043   5.470  15.579  0.00  0.00    +0.000 A 
ATOM      7  C   UNL     1       6.237   4.706  16.388  0.00  0.00    +0.000 A 
ATOM      8  O   UNL     1       5.497   3.838  15.630  0.00  0.00    +0.000 OA
ATOM      9  C   UNL     1       5.916   4.006  14.341  0.00  0.00    +0.000 A 
ATOM     10  C   UNL     1       5.390   3.390  13.210  0.00  0.00    +0.000 A 
ATOM     11  C   UNL     1       6.093   3.586  12.013  0.00  0.00    +0.000 A 
ATOM     12  C   UNL     1       7.268   4.337  11.973  0.00  0.00    +0.000 A 
ATOM     13  C   UNL     1       7.710   5.022  13.102  0.00  0.00    +0.000 A 
ATOM     14  C   UNL     1       6.996   4.885  14.301  0.00  0.00    +0.000 A 
ENDROOT
BRANCH   1  15
ATOM     15  N   UNL     1       5.968   3.827  18.698  0.00  0.00    +0.000 N 
ATOM     16  H   UNL     1       6.243   2.931  18.309  0.00  0.00    +0.000 HD
BRANCH  15  20
ATOM     17  C   UNL     1       2.185   3.457  20.617  0.00  0.00    +0.000 A 
ATOM     18  C   UNL     1       3.116   2.428  20.689  0.00  0.00    +0.000 A 
ATOM     19  C   UNL     1       4.362   2.560  20.078  0.00  0.00    +0.000 A 
ATOM     20  C   UNL     1       4.700   3.708  19.344  0.00  0.00    +0.000 A 
ATOM     21  C   UNL     1       3.770   4.775  19.311  0.00  0.00    +0.000 A 
ATOM     22  C   UNL     1       2.518   4.631  19.940  0.00  0.00    +0.000 A 
BRANCH  17  24
ATOM     23  C   UNL     1       1.040   2.240  22.314  0.00  0.00    +0.000 C 
ATOM     24  O   UNL     1       1.009   3.199  21.266  0.00  0.00    +0.000 OA
ENDBRANCH  17  24
BRANCH  21  25
ATOM     25  O   UNL     1       4.170   5.913  18.651  0.00  0.00    +0.000 OA
ATOM     26  C   UNL     1       3.142   6.748  18.122  0.00  0.00    +0.000 C 
ENDBRANCH  21  25
ENDBRANCH  15  20
ENDBRANCH   1  15
TORSDOF 4
ENDMDL
