MODEL 1
REMARK VINA RESULT:      -9.5      0.000      0.000
REMARK  Name = 
REMARK  7 active torsions:
REMARK  status: ('A' for Active; 'I' for Inactive)
REMARK    1  A    between atoms: C_1  and  C_2
REMARK    2  A    between atoms: C_2  and  C_3
REMARK    3  A    between atoms: C_7  and  C_8
REMARK    4  A    between atoms: C_8  and  N_9
REMARK    5  A    between atoms: N_9  and  C_10
REMARK    6  A    between atoms: C_10  and  C_11
REMARK    7  A    between atoms: C_14  and  C_15
REMARK                            x       y       z     vdW  Elec       q    Type
REMARK                         _______ _______ _______ _____ _____    ______ ____
ROOT
ATOM      1  C   UNL     1       6.957   6.555  17.771  0.00  0.00    +0.000 A 
ATOM      2  C   UNL     1       7.578   5.504  18.404  0.00  0.00    +0.000 A 
ATOM      3  O   UNL     1       6.663   4.516  18.587  0.00  0.00    +0.000 OA
ATOM      4  C   UNL     1       5.504   5.016  18.042  0.00  0.00    +0.000 A 
ATOM      5  N   UNL     1       5.634   6.233  17.552  0.00  0.00    +0.000 NA
ENDROOT
BRANCH   4   6
ATOM      6  C   UNL     1       4.335   4.138  18.108  0.00  0.00    +0.000 A 
ATOM      7  C   UNL     1       4.330   2.991  17.291  0.00  0.00    +0.000 A 
ATOM      8  C   UNL     1       3.254   2.110  17.293  0.00  0.00    +0.000 A 
ATOM      9  C   UNL     1       2.162   2.363  18.113  0.00  0.00    +0.000 A 
ATOM     10  C   UNL     1       2.130   3.492  18.946  0.00  0.00    +0.000 A 
ATOM     11  C   UNL     1       1.006   3.718  19.762  0.00  0.00    +0.000 A 
ATOM     12  C   UNL     1       0.938   4.829  20.598  0.00  0.00    +0.000 A 
ATOM     13  C   UNL     1       1.992   5.728  20.634  0.00  0.00    +0.000 A 
ATOM     14  C   UNL     1       3.114   5.519  19.827  0.00  0.00    +0.000 A 
ATOM     15  C   UNL     1       3.222   4.400  18.963  0.00  0.00    +0.000 A 
ENDBRANCH   4   6
BRANCH   1  16
ATOM     16  C   UNL     1       7.526   7.873  17.381  0.00  0.00    +0.000 C 
BRANCH  16  17
ATOM     17  N   UNL     1       8.399   8.370  18.447  0.00  0.00    +0.000 NA
ATOM     18  H   UNL     1       8.001   8.125  19.350  0.00  0.00    +0.000 HD
BRANCH  17  19
ATOM     19  C   UNL     1       8.571   9.815  18.326  0.00  0.00    +0.000 C 
BRANCH  19  26
ATOM     20  C   UNL     1      11.132  13.364  16.909  0.00  0.00    +0.000 C 
ATOM     21  C   UNL     1      10.323  12.714  18.050  0.00  0.00    +0.000 C 
ATOM     22  C   UNL     1       8.860  13.125  17.868  0.00  0.00    +0.000 C 
ATOM     23  C   UNL     1      10.934  12.876  19.499  0.00  0.00    +0.000 C 
ATOM     24  C   UNL     1      10.039  12.470  20.673  0.00  0.00    +0.000 C 
ATOM     25  C   UNL     1       9.307  11.137  20.422  0.00  0.00    +0.000 C 
ATOM     26  C   UNL     1       9.747  10.340  19.169  0.00  0.00    +0.000 C 
ATOM     27  C   UNL     1      10.680  11.184  18.280  0.00  0.00    +0.000 C 
ATOM     28  C   UNL     1      11.873  11.691  19.144  0.00  0.00    +0.000 C 
ENDBRANCH  19  26
ENDBRANCH  17  19
ENDBRANCH  16  17
ENDBRANCH   1  16
TORSDOF 5
ENDMDL
MODEL 2
REMARK VINA RESULT:      -8.6      5.475      9.293
REMARK  Name = 
REMARK  7 active torsions:
REMARK  status: ('A' for Active; 'I' for Inactive)
REMARK    1  A    between atoms: C_1  and  C_2
REMARK    2  A    between atoms: C_2  and  C_3
REMARK    3  A    between atoms: C_7  and  C_8
REMARK    4  A    between atoms: C_8  and  N_9
REMARK    5  A    between atoms: N_9  and  C_10
REMARK    6  A    between atoms: C_10  and  C_11
REMARK    7  A    between atoms: C_14  and  C_15
REMARK                            x       y       z     vdW  Elec       q    Type
REMARK                         _______ _______ _______ _____ _____    ______ ____
ROOT
ATOM      1  C   UNL     1       2.388   8.173  18.357  0.00  0.00    +0.000 A 
ATOM      2  C   UNL     1       2.070   7.831  19.651  0.00  0.00    +0.000 A 
ATOM      3  O   UNL     1       1.081   8.659  20.080  0.00  0.00    +0.000 OA
ATOM      4  C   UNL     1       0.833   9.482  19.007  0.00  0.00    +0.000 A 
ATOM      5  N   UNL     1       1.597   9.232  17.963  0.00  0.00    +0.000 NA
ENDROOT
BRANCH   4   6
ATOM      6  C   UNL     1      -0.208  10.492  19.203  0.00  0.00    +0.000 A 
ATOM      7  C   UNL     1      -0.051  11.396  20.272  0.00  0.00    +0.000 A 
ATOM      8  C   UNL     1      -0.998  12.381  20.527  0.00  0.00    +0.000 A 
ATOM      9  C   UNL     1      -2.122  12.478  19.716  0.00  0.00    +0.000 A 
ATOM     10  C   UNL     1      -2.314  11.601  18.639  0.00  0.00    +0.000 A 
ATOM     11  C   UNL     1      -3.465  11.727  17.840  0.00  0.00    +0.000 A 
ATOM     12  C   UNL     1      -3.690  10.871  16.765  0.00  0.00    +0.000 A 
ATOM     13  C   UNL     1      -2.767   9.881  16.470  0.00  0.00    +0.000 A 
ATOM     14  C   UNL     1      -1.620   9.741  17.255  0.00  0.00    +0.000 A 
ATOM     15  C   UNL     1      -1.354  10.592  18.358  0.00  0.00    +0.000 A 
ENDBRANCH   4   6
BRANCH   1  16
ATOM     16  C   UNL     1       3.424   7.583  17.467  0.00  0.00    +0.000 C 
BRANCH  16  17
ATOM     17  N   UNL     1       4.201   6.586  18.206  0.00  0.00    +0.000 NA
ATOM     18  H   UNL     1       5.080   6.998  18.506  0.00  0.00    +0.000 HD
BRANCH  17  19
ATOM     19  C   UNL     1       4.431   5.408  17.374  0.00  0.00    +0.000 C 
BRANCH  19  26
ATOM     20  C   UNL     1       1.065   4.277  20.298  0.00  0.00    +0.000 C 
ATOM     21  C   UNL     1       1.988   3.841  19.142  0.00  0.00    +0.000 C 
ATOM     22  C   UNL     1       1.314   4.261  17.834  0.00  0.00    +0.000 C 
ATOM     23  C   UNL     1       2.530   2.359  19.222  0.00  0.00    +0.000 C 
ATOM     24  C   UNL     1       3.233   1.814  17.976  0.00  0.00    +0.000 C 
ATOM     25  C   UNL     1       4.214   2.832  17.361  0.00  0.00    +0.000 C 
ATOM     26  C   UNL     1       4.488   4.108  18.196  0.00  0.00    +0.000 C 
ATOM     27  C   UNL     1       3.514   4.208  19.384  0.00  0.00    +0.000 C 
ATOM     28  C   UNL     1       3.598   2.893  20.214  0.00  0.00    +0.000 C 
ENDBRANCH  19  26
ENDBRANCH  17  19
ENDBRANCH  16  17
ENDBRANCH   1  16
TORSDOF 5
ENDMDL
MODEL 3
REMARK VINA RESULT:      -8.5      4.196      7.850
REMARK  Name = 
REMARK  7 active torsions:
REMARK  status: ('A' for Active; 'I' for Inactive)
REMARK    1  A    between atoms: C_1  and  C_2
REMARK    2  A    between atoms: C_2  and  C_3
REMARK    3  A    between atoms: C_7  and  C_8
REMARK    4  A    between atoms: C_8  and  N_9
REMARK    5  A    between atoms: N_9  and  C_10
REMARK    6  A    between atoms: C_10  and  C_11
REMARK    7  A    between atoms: C_14  and  C_15
REMARK                            x       y       z     vdW  Elec       q    Type
REMARK                         _______ _______ _______ _____ _____    ______ ____
ROOT
ATOM      1  C   UNL     1       2.303   6.397  19.918  0.00  0.00    +0.000 A 
ATOM      2  C   UNL     1       2.550   7.386  18.995  0.00  0.00    +0.000 A 
ATOM      3  O   UNL     1       1.876   8.503  19.378  0.00  0.00    +0.000 OA
ATOM      4  C   UNL     1       1.242   8.139  20.541  0.00  0.00    +0.000 A 
ATOM      5  N   UNL     1       1.462   6.889  20.894  0.00  0.00    +0.000 NA
ENDROOT
BRANCH   4   6
ATOM      6  C   UNL     1       0.428   9.176  21.177  0.00  0.00    +0.000 A 
ATOM      7  C   UNL     1       0.362   9.188  22.584  0.00  0.00    +0.000 A 
ATOM      8  C   UNL     1      -0.394  10.138  23.262  0.00  0.00    +0.000 A 
ATOM      9  C   UNL     1      -1.100  11.093  22.542  0.00  0.00    +0.000 A 
ATOM     10  C   UNL     1      -1.057  11.120  21.140  0.00  0.00    +0.000 A 
ATOM     11  C   UNL     1      -1.786  12.102  20.444  0.00  0.00    +0.000 A 
ATOM     12  C   UNL     1      -1.770  12.156  19.053  0.00  0.00    +0.000 A 
ATOM     13  C   UNL     1      -1.023  11.234  18.338  0.00  0.00    +0.000 A 
ATOM     14  C   UNL     1      -0.295  10.251  19.014  0.00  0.00    +0.000 A 
ATOM     15  C   UNL     1      -0.285  10.163  20.430  0.00  0.00    +0.000 A 
ENDBRANCH   4   6
BRANCH   1  16
ATOM     16  C   UNL     1       2.787   4.990  19.926  0.00  0.00    +0.000 C 
BRANCH  16  17
ATOM     17  N   UNL     1       4.196   4.950  19.528  0.00  0.00    +0.000 NA
ATOM     18  H   UNL     1       4.473   5.862  19.175  0.00  0.00    +0.000 HD
BRANCH  17  19
ATOM     19  C   UNL     1       4.407   3.914  18.521  0.00  0.00    +0.000 C 
BRANCH  19  26
ATOM     20  C   UNL     1       7.457   7.179  17.428  0.00  0.00    +0.000 C 
ATOM     21  C   UNL     1       6.823   5.818  17.076  0.00  0.00    +0.000 C 
ATOM     22  C   UNL     1       7.587   4.742  17.850  0.00  0.00    +0.000 C 
ATOM     23  C   UNL     1       6.582   5.554  15.537  0.00  0.00    +0.000 C 
ATOM     24  C   UNL     1       6.196   4.128  15.135  0.00  0.00    +0.000 C 
ATOM     25  C   UNL     1       5.135   3.519  16.072  0.00  0.00    +0.000 C 
ATOM     26  C   UNL     1       4.489   4.487  17.094  0.00  0.00    +0.000 C 
ATOM     27  C   UNL     1       5.236   5.833  17.124  0.00  0.00    +0.000 C 
ATOM     28  C   UNL     1       5.293   6.408  15.677  0.00  0.00    +0.000 C 
ENDBRANCH  19  26
ENDBRANCH  17  19
ENDBRANCH  16  17
ENDBRANCH   1  16
TORSDOF 5
ENDMDL
MODEL 4
REMARK VINA RESULT:      -8.4      4.191      7.085
REMARK  Name = 
REMARK  7 active torsions:
REMARK  status: ('A' for Active; 'I' for Inactive)
REMARK    1  A    between atoms: C_1  and  C_2
REMARK    2  A    between atoms: C_2  and  C_3
REMARK    3  A    between atoms: C_7  and  C_8
REMARK    4  A    between atoms: C_8  and  N_9
REMARK    5  A    between atoms: N_9  and  C_10
REMARK    6  A    between atoms: C_10  and  C_11
REMARK    7  A    between atoms: C_14  and  C_15
REMARK                            x       y       z     vdW  Elec       q    Type
REMARK                         _______ _______ _______ _____ _____    ______ ____
ROOT
ATOM      1  C   UNL     1       2.886   4.567  20.235  0.00  0.00    +0.000 A 
ATOM      2  C   UNL     1       1.671   4.621  20.876  0.00  0.00    +0.000 A 
ATOM      3  O   UNL     1       1.149   5.863  20.696  0.00  0.00    +0.000 OA
ATOM      4  C   UNL     1       2.085   6.522  19.935  0.00  0.00    +0.000 A 
ATOM      5  N   UNL     1       3.141   5.788  19.645  0.00  0.00    +0.000 NA
ENDROOT
BRANCH   4   6
ATOM      6  C   UNL     1       1.768   7.908  19.590  0.00  0.00    +0.000 A 
ATOM      7  C   UNL     1       2.140   8.367  18.311  0.00  0.00    +0.000 A 
ATOM      8  C   UNL     1       1.878   9.673  17.911  0.00  0.00    +0.000 A 
ATOM      9  C   UNL     1       1.241  10.544  18.786  0.00  0.00    +0.000 A 
ATOM     10  C   UNL     1       0.851  10.126  20.066  0.00  0.00    +0.000 A 
ATOM     11  C   UNL     1       0.210  11.036  20.926  0.00  0.00    +0.000 A 
ATOM     12  C   UNL     1      -0.189  10.656  22.205  0.00  0.00    +0.000 A 
ATOM     13  C   UNL     1       0.044   9.362  22.642  0.00  0.00    +0.000 A 
ATOM     14  C   UNL     1       0.682   8.446  21.801  0.00  0.00    +0.000 A 
ATOM     15  C   UNL     1       1.102   8.794  20.491  0.00  0.00    +0.000 A 
ENDBRANCH   4   6
BRANCH   1  16
ATOM     16  C   UNL     1       3.853   3.438  20.166  0.00  0.00    +0.000 C 
BRANCH  16  17
ATOM     17  N   UNL     1       4.952   3.783  19.262  0.00  0.00    +0.000 NA
ATOM     18  H   UNL     1       5.012   4.794  19.173  0.00  0.00    +0.000 HD
BRANCH  17  19
ATOM     19  C   UNL     1       4.749   3.155  17.959  0.00  0.00    +0.000 C 
BRANCH  19  26
ATOM     20  C   UNL     1       7.426   6.894  17.873  0.00  0.00    +0.000 C 
ATOM     21  C   UNL     1       6.865   5.676  17.113  0.00  0.00    +0.000 C 
ATOM     22  C   UNL     1       7.779   4.486  17.414  0.00  0.00    +0.000 C 
ATOM     23  C   UNL     1       6.498   5.927  15.596  0.00  0.00    +0.000 C 
ATOM     24  C   UNL     1       6.183   4.690  14.750  0.00  0.00    +0.000 C 
ATOM     25  C   UNL     1       5.265   3.694  15.484  0.00  0.00    +0.000 C 
ATOM     26  C   UNL     1       4.650   4.184  16.818  0.00  0.00    +0.000 C 
ATOM     27  C   UNL     1       5.293   5.510  17.265  0.00  0.00    +0.000 C 
ATOM     28  C   UNL     1       5.168   6.544  16.108  0.00  0.00    +0.000 C 
ENDBRANCH  19  26
ENDBRANCH  17  19
ENDBRANCH  16  17
ENDBRANCH   1  16
TORSDOF 5
ENDMDL
MODEL 5
REMARK VINA RESULT:      -8.3      5.225      9.309
REMARK  Name = 
REMARK  7 active torsions:
REMARK  status: ('A' for Active; 'I' for Inactive)
REMARK    1  A    between atoms: C_1  and  C_2
REMARK    2  A    between atoms: C_2  and  C_3
REMARK    3  A    between atoms: C_7  and  C_8
REMARK    4  A    between atoms: C_8  and  N_9
REMARK    5  A    between atoms: N_9  and  C_10
REMARK    6  A    between atoms: C_10  and  C_11
REMARK    7  A    between atoms: C_14  and  C_15
REMARK                            x       y       z     vdW  Elec       q    Type
REMARK                         _______ _______ _______ _____ _____    ______ ____
ROOT
ATOM      1  C   UNL     1       2.835   7.871  18.064  0.00  0.00    +0.000 A 
ATOM      2  C   UNL     1       2.355   7.683  19.339  0.00  0.00    +0.000 A 
ATOM      3  O   UNL     1       1.364   8.587  19.558  0.00  0.00    +0.000 OA
ATOM      4  C   UNL     1       1.279   9.296  18.384  0.00  0.00    +0.000 A 
ATOM      5  N   UNL     1       2.145   8.907  17.469  0.00  0.00    +0.000 NA
ENDROOT
BRANCH   4   6
ATOM      6  C   UNL     1       0.272  10.356  18.348  0.00  0.00    +0.000 A 
ATOM      7  C   UNL     1      -1.057   9.989  18.058  0.00  0.00    +0.000 A 
ATOM      8  C   UNL     1      -2.071  10.939  18.000  0.00  0.00    +0.000 A 
ATOM      9  C   UNL     1      -1.772  12.275  18.231  0.00  0.00    +0.000 A 
ATOM     10  C   UNL     1      -0.463  12.683  18.529  0.00  0.00    +0.000 A 
ATOM     11  C   UNL     1      -0.197  14.046  18.755  0.00  0.00    +0.000 A 
ATOM     12  C   UNL     1       1.091  14.486  19.049  0.00  0.00    +0.000 A 
ATOM     13  C   UNL     1       2.130  13.572  19.125  0.00  0.00    +0.000 A 
ATOM     14  C   UNL     1       1.882  12.215  18.900  0.00  0.00    +0.000 A 
ATOM     15  C   UNL     1       0.585  11.727  18.599  0.00  0.00    +0.000 A 
ENDBRANCH   4   6
BRANCH   1  16
ATOM     16  C   UNL     1       3.937   7.152  17.370  0.00  0.00    +0.000 C 
BRANCH  16  17
ATOM     17  N   UNL     1       4.485   6.119  18.251  0.00  0.00    +0.000 NA
ATOM     18  H   UNL     1       5.381   6.429  18.619  0.00  0.00    +0.000 HD
BRANCH  17  19
ATOM     19  C   UNL     1       4.627   4.859  17.525  0.00  0.00    +0.000 C 
BRANCH  19  26
ATOM     20  C   UNL     1       1.055   4.474  20.398  0.00  0.00    +0.000 C 
ATOM     21  C   UNL     1       1.929   3.818  19.310  0.00  0.00    +0.000 C 
ATOM     22  C   UNL     1       1.359   4.234  17.952  0.00  0.00    +0.000 C 
ATOM     23  C   UNL     1       2.235   2.281  19.515  0.00  0.00    +0.000 C 
ATOM     24  C   UNL     1       2.877   1.543  18.336  0.00  0.00    +0.000 C 
ATOM     25  C   UNL     1       4.017   2.352  17.687  0.00  0.00    +0.000 C 
ATOM     26  C   UNL     1       4.463   3.631  18.439  0.00  0.00    +0.000 C 
ATOM     27  C   UNL     1       3.486   3.966  19.581  0.00  0.00    +0.000 C 
ATOM     28  C   UNL     1       3.347   2.721  20.505  0.00  0.00    +0.000 C 
ENDBRANCH  19  26
ENDBRANCH  17  19
ENDBRANCH  16  17
ENDBRANCH   1  16
TORSDOF 5
ENDMDL
MODEL 6
REMARK VINA RESULT:      -8.3      1.556      2.569
REMARK  Name = 
REMARK  7 active torsions:
REMARK  status: ('A' for Active; 'I' for Inactive)
REMARK    1  A    between atoms: C_1  and  C_2
REMARK    2  A    between atoms: C_2  and  C_3
REMARK    3  A    between atoms: C_7  and  C_8
REMARK    4  A    between atoms: C_8  and  N_9
REMARK    5  A    between atoms: N_9  and  C_10
REMARK    6  A    between atoms: C_10  and  C_11
REMARK    7  A    between atoms: C_14  and  C_15
REMARK                            x       y       z     vdW  Elec       q    Type
REMARK                         _______ _______ _______ _____ _____    ______ ____
ROOT
ATOM      1  C   UNL     1       8.168   8.493  18.160  0.00  0.00    +0.000 A 
ATOM      2  C   UNL     1       8.554   7.451  18.970  0.00  0.00    +0.000 A 
ATOM      3  O   UNL     1       7.921   6.325  18.545  0.00  0.00    +0.000 OA
ATOM      4  C   UNL     1       7.168   6.738  17.473  0.00  0.00    +0.000 A 
ATOM      5  N   UNL     1       7.279   8.026  17.214  0.00  0.00    +0.000 NA
ENDROOT
BRANCH   4   6
ATOM      6  C   UNL     1       6.369   5.703  16.816  0.00  0.00    +0.000 A 
ATOM      7  C   UNL     1       6.903   5.096  15.662  0.00  0.00    +0.000 A 
ATOM      8  C   UNL     1       6.203   4.109  14.978  0.00  0.00    +0.000 A 
ATOM      9  C   UNL     1       4.954   3.711  15.437  0.00  0.00    +0.000 A 
ATOM     10  C   UNL     1       4.388   4.286  16.585  0.00  0.00    +0.000 A 
ATOM     11  C   UNL     1       3.119   3.860  17.019  0.00  0.00    +0.000 A 
ATOM     12  C   UNL     1       2.526   4.412  18.152  0.00  0.00    +0.000 A 
ATOM     13  C   UNL     1       3.193   5.393  18.868  0.00  0.00    +0.000 A 
ATOM     14  C   UNL     1       4.453   5.829  18.448  0.00  0.00    +0.000 A 
ATOM     15  C   UNL     1       5.091   5.292  17.301  0.00  0.00    +0.000 A 
ENDBRANCH   4   6
BRANCH   1  16
ATOM     16  C   UNL     1       8.561   9.926  18.237  0.00  0.00    +0.000 C 
BRANCH  16  17
ATOM     17  N   UNL     1       9.369  10.152  19.438  0.00  0.00    +0.000 NA
ATOM     18  H   UNL     1       9.230   9.383  20.088  0.00  0.00    +0.000 HD
BRANCH  17  19
ATOM     19  C   UNL     1       9.010  11.427  20.054  0.00  0.00    +0.000 C 
BRANCH  19  26
ATOM     20  C   UNL     1      11.377  13.601  16.763  0.00  0.00    +0.000 C 
ATOM     21  C   UNL     1      10.679  13.682  18.135  0.00  0.00    +0.000 C 
ATOM     22  C   UNL     1       9.199  13.975  17.880  0.00  0.00    +0.000 C 
ATOM     23  C   UNL     1      11.406  14.573  19.220  0.00  0.00    +0.000 C 
ATOM     24  C   UNL     1      10.619  14.881  20.497  0.00  0.00    +0.000 C 
ATOM     25  C   UNL     1       9.894  13.641  21.055  0.00  0.00    +0.000 C 
ATOM     26  C   UNL     1      10.243  12.287  20.389  0.00  0.00    +0.000 C 
ATOM     27  C   UNL     1      11.082  12.500  19.116  0.00  0.00    +0.000 C 
ATOM     28  C   UNL     1      12.333  13.355  19.477  0.00  0.00    +0.000 C 
ENDBRANCH  19  26
ENDBRANCH  17  19
ENDBRANCH  16  17
ENDBRANCH   1  16
TORSDOF 5
ENDMDL
MODEL 7
REMARK VINA RESULT:      -8.2      1.678      3.141
REMARK  Name = 
REMARK  7 active torsions:
REMARK  status: ('A' for Active; 'I' for Inactive)
REMARK    1  A    between atoms: C_1  and  C_2
REMARK    2  A    between atoms: C_2  and  C_3
REMARK    3  A    between atoms: C_7  and  C_8
REMARK    4  A    between atoms: C_8  and  N_9
REMARK    5  A    between atoms: N_9  and  C_10
REMARK    6  A    between atoms: C_10  and  C_11
REMARK    7  A    between atoms: C_14  and  C_15
REMARK                            x       y       z     vdW  Elec       q    Type
REMARK                         _______ _______ _______ _____ _____    ______ ____
ROOT
ATOM      1  C   UNL     1       8.191   8.491  18.078  0.00  0.00    +0.000 A 
ATOM      2  C   UNL     1       8.497   7.486  18.966  0.00  0.00    +0.000 A 
ATOM      3  O   UNL     1       7.874   6.350  18.554  0.00  0.00    +0.000 OA
ATOM      4  C   UNL     1       7.208   6.719  17.410  0.00  0.00    +0.000 A 
ATOM      5  N   UNL     1       7.363   7.989  17.096  0.00  0.00    +0.000 NA
ENDROOT
BRANCH   4   6
ATOM      6  C   UNL     1       6.438   5.664  16.751  0.00  0.00    +0.000 A 
ATOM      7  C   UNL     1       6.988   5.075  15.596  0.00  0.00    +0.000 A 
ATOM      8  C   UNL     1       6.316   4.070  14.909  0.00  0.00    +0.000 A 
ATOM      9  C   UNL     1       5.078   3.637  15.367  0.00  0.00    +0.000 A 
ATOM     10  C   UNL     1       4.496   4.194  16.516  0.00  0.00    +0.000 A 
ATOM     11  C   UNL     1       3.240   3.733  16.949  0.00  0.00    +0.000 A 
ATOM     12  C   UNL     1       2.632   4.265  18.083  0.00  0.00    +0.000 A 
ATOM     13  C   UNL     1       3.271   5.262  18.802  0.00  0.00    +0.000 A 
ATOM     14  C   UNL     1       4.518   5.733  18.383  0.00  0.00    +0.000 A 
ATOM     15  C   UNL     1       5.171   5.217  17.235  0.00  0.00    +0.000 A 
ENDBRANCH   4   6
BRANCH   1  16
ATOM     16  C   UNL     1       8.606   9.919  18.111  0.00  0.00    +0.000 C 
BRANCH  16  17
ATOM     17  N   UNL     1       9.312  10.200  19.363  0.00  0.00    +0.000 NA
ATOM     18  H   UNL     1       8.647  10.536  20.056  0.00  0.00    +0.000 HD
BRANCH  17  19
ATOM     19  C   UNL     1      10.371  11.180  19.137  0.00  0.00    +0.000 C 
BRANCH  19  26
ATOM     20  C   UNL     1      10.390  15.569  20.517  0.00  0.00    +0.000 C 
ATOM     21  C   UNL     1      10.787  14.540  19.439  0.00  0.00    +0.000 C 
ATOM     22  C   UNL     1      12.135  13.943  19.849  0.00  0.00    +0.000 C 
ATOM     23  C   UNL     1      10.649  15.031  17.943  0.00  0.00    +0.000 C 
ATOM     24  C   UNL     1      11.270  14.137  16.865  0.00  0.00    +0.000 C 
ATOM     25  C   UNL     1      10.962  12.644  17.090  0.00  0.00    +0.000 C 
ATOM     26  C   UNL     1       9.929  12.317  18.197  0.00  0.00    +0.000 C 
ATOM     27  C   UNL     1       9.598  13.571  19.027  0.00  0.00    +0.000 C 
ATOM     28  C   UNL     1       9.136  14.704  18.063  0.00  0.00    +0.000 C 
ENDBRANCH  19  26
ENDBRANCH  17  19
ENDBRANCH  16  17
ENDBRANCH   1  16
TORSDOF 5
ENDMDL
MODEL 8
REMARK VINA RESULT:      -8.2      4.673      8.040
REMARK  Name = 
REMARK  7 active torsions:
REMARK  status: ('A' for Active; 'I' for Inactive)
REMARK    1  A    between atoms: C_1  and  C_2
REMARK    2  A    between atoms: C_2  and  C_3
REMARK    3  A    between atoms: C_7  and  C_8
REMARK    4  A    between atoms: C_8  and  N_9
REMARK    5  A    between atoms: N_9  and  C_10
REMARK    6  A    between atoms: C_10  and  C_11
REMARK    7  A    between atoms: C_14  and  C_15
REMARK                            x       y       z     vdW  Elec       q    Type
REMARK                         _______ _______ _______ _____ _____    ______ ____
ROOT
ATOM      1  C   UNL     1       2.152   7.491  19.564  0.00  0.00    +0.000 A 
ATOM      2  C   UNL     1       2.492   8.085  18.371  0.00  0.00    +0.000 A 
ATOM      3  O   UNL     1       1.878   9.297  18.310  0.00  0.00    +0.000 OA
ATOM      4  C   UNL     1       1.183   9.390  19.491  0.00  0.00    +0.000 A 
ATOM      5  N   UNL     1       1.311   8.330  20.264  0.00  0.00    +0.000 NA
ENDROOT
BRANCH   4   6
ATOM      6  C   UNL     1       0.416  10.621  19.686  0.00  0.00    +0.000 A 
ATOM      7  C   UNL     1       0.376  11.544  18.623  0.00  0.00    +0.000 A 
ATOM      8  C   UNL     1      -0.327  12.739  18.732  0.00  0.00    +0.000 A 
ATOM      9  C   UNL     1      -1.003  13.032  19.910  0.00  0.00    +0.000 A 
ATOM     10  C   UNL     1      -0.993  12.137  20.991  0.00  0.00    +0.000 A 
ATOM     11  C   UNL     1      -1.687  12.468  22.169  0.00  0.00    +0.000 A 
ATOM     12  C   UNL     1      -1.696  11.606  23.263  0.00  0.00    +0.000 A 
ATOM     13  C   UNL     1      -1.015  10.401  23.194  0.00  0.00    +0.000 A 
ATOM     14  C   UNL     1      -0.319  10.059  22.031  0.00  0.00    +0.000 A 
ATOM     15  C   UNL     1      -0.286  10.909  20.896  0.00  0.00    +0.000 A 
ENDBRANCH   4   6
BRANCH   1  16
ATOM     16  C   UNL     1       2.544   6.152  20.081  0.00  0.00    +0.000 C 
BRANCH  16  17
ATOM     17  N   UNL     1       3.936   5.871  19.718  0.00  0.00    +0.000 NA
ATOM     18  H   UNL     1       4.313   6.658  19.196  0.00  0.00    +0.000 HD
BRANCH  17  19
ATOM     19  C   UNL     1       4.015   4.639  18.938  0.00  0.00    +0.000 C 
BRANCH  19  26
ATOM     20  C   UNL     1       7.476   7.226  17.360  0.00  0.00    +0.000 C 
ATOM     21  C   UNL     1       6.678   5.911  17.252  0.00  0.00    +0.000 C 
ATOM     22  C   UNL     1       7.286   4.923  18.251  0.00  0.00    +0.000 C 
ATOM     23  C   UNL     1       6.430   5.381  15.784  0.00  0.00    +0.000 C 
ATOM     24  C   UNL     1       5.871   3.961  15.650  0.00  0.00    +0.000 C 
ATOM     25  C   UNL     1       4.725   3.684  16.643  0.00  0.00    +0.000 C 
ATOM     26  C   UNL     1       4.193   4.906  17.432  0.00  0.00    +0.000 C 
ATOM     27  C   UNL     1       5.105   6.130  17.232  0.00  0.00    +0.000 C 
ATOM     28  C   UNL     1       5.259   6.397  15.705  0.00  0.00    +0.000 C 
ENDBRANCH  19  26
ENDBRANCH  17  19
ENDBRANCH  16  17
ENDBRANCH   1  16
TORSDOF 5
ENDMDL
MODEL 9
REMARK VINA RESULT:      -8.2      4.903      8.193
REMARK  Name = 
REMARK  7 active torsions:
REMARK  status: ('A' for Active; 'I' for Inactive)
REMARK    1  A    between atoms: C_1  and  C_2
REMARK    2  A    between atoms: C_2  and  C_3
REMARK    3  A    between atoms: C_7  and  C_8
REMARK    4  A    between atoms: C_8  and  N_9
REMARK    5  A    between atoms: N_9  and  C_10
REMARK    6  A    between atoms: C_10  and  C_11
REMARK    7  A    between atoms: C_14  and  C_15
REMARK                            x       y       z     vdW  Elec       q    Type
REMARK                         _______ _______ _______ _____ _____    ______ ____
ROOT
ATOM      1  C   UNL     1       2.099   7.584  19.597  0.00  0.00    +0.000 A 
ATOM      2  C   UNL     1       2.336   8.186  18.384  0.00  0.00    +0.000 A 
ATOM      3  O   UNL     1       1.632   9.349  18.341  0.00  0.00    +0.000 OA
ATOM      4  C   UNL     1       0.991   9.406  19.555  0.00  0.00    +0.000 A 
ATOM      5  N   UNL     1       1.235   8.369  20.331  0.00  0.00    +0.000 NA
ENDROOT
BRANCH   4   6
ATOM      6  C   UNL     1       0.145  10.580  19.777  0.00  0.00    +0.000 A 
ATOM      7  C   UNL     1       0.617  11.571  20.660  0.00  0.00    +0.000 A 
ATOM      8  C   UNL     1      -0.129  12.713  20.927  0.00  0.00    +0.000 A 
ATOM      9  C   UNL     1      -1.364  12.883  20.314  0.00  0.00    +0.000 A 
ATOM     10  C   UNL     1      -1.869  11.923  19.424  0.00  0.00    +0.000 A 
ATOM     11  C   UNL     1      -3.125  12.128  18.824  0.00  0.00    +0.000 A 
ATOM     12  C   UNL     1      -3.658  11.195  17.939  0.00  0.00    +0.000 A 
ATOM     13  C   UNL     1      -2.943  10.047  17.638  0.00  0.00    +0.000 A 
ATOM     14  C   UNL     1      -1.695   9.827  18.228  0.00  0.00    +0.000 A 
ATOM     15  C   UNL     1      -1.118  10.753  19.134  0.00  0.00    +0.000 A 
ENDBRANCH   4   6
BRANCH   1  16
ATOM     16  C   UNL     1       2.615   6.285  20.106  0.00  0.00    +0.000 C 
BRANCH  16  17
ATOM     17  N   UNL     1       2.521   5.269  19.054  0.00  0.00    +0.000 NA
ATOM     18  H   UNL     1       1.926   4.509  19.372  0.00  0.00    +0.000 HD
BRANCH  17  19
ATOM     19  C   UNL     1       3.853   4.781  18.706  0.00  0.00    +0.000 C 
BRANCH  19  26
ATOM     20  C   UNL     1       7.437   7.322  17.343  0.00  0.00    +0.000 C 
ATOM     21  C   UNL     1       6.662   5.994  17.226  0.00  0.00    +0.000 C 
ATOM     22  C   UNL     1       7.174   5.066  18.331  0.00  0.00    +0.000 C 
ATOM     23  C   UNL     1       6.564   5.385  15.771  0.00  0.00    +0.000 C 
ATOM     24  C   UNL     1       6.030   3.954  15.658  0.00  0.00    +0.000 C 
ATOM     25  C   UNL     1       4.793   3.716  16.546  0.00  0.00    +0.000 C 
ATOM     26  C   UNL     1       4.178   4.971  17.213  0.00  0.00    +0.000 C 
ATOM     27  C   UNL     1       5.098   6.193  17.039  0.00  0.00    +0.000 C 
ATOM     28  C   UNL     1       5.401   6.382  15.523  0.00  0.00    +0.000 C 
ENDBRANCH  19  26
ENDBRANCH  17  19
ENDBRANCH  16  17
ENDBRANCH   1  16
TORSDOF 5
ENDMDL
