MODEL 1
REMARK VINA RESULT:      -8.6      0.000      0.000
REMARK  Name = 
REMARK  4 active torsions:
REMARK  status: ('A' for Active; 'I' for Inactive)
REMARK    1  A    between atoms: C_1  and  C_2
REMARK    2  A    between atoms: C_6  and  C_7
REMARK    3  A    between atoms: N_9  and  C_10
REMARK    4  A    between atoms: C_13  and  N_14
REMARK                            x       y       z     vdW  Elec       q    Type
REMARK                         _______ _______ _______ _____ _____    ______ ____
ROOT
ATOM      1  C   UNL     1       0.188   9.459  20.876  0.00  0.00    +0.000 A 
ATOM      2  C   UNL     1       0.625   8.257  21.424  0.00  0.00    +0.000 A 
ATOM      3  C   UNL     1       1.528   7.432  20.718  0.00  0.00    +0.000 A 
ATOM      4  C   UNL     1       2.012   7.779  19.443  0.00  0.00    +0.000 A 
ATOM      5  C   UNL     1       1.539   8.995  18.901  0.00  0.00    +0.000 A 
ATOM      6 CL   UNL     1       2.084   9.696  17.410  0.00  0.00    +0.000 Cl
ATOM      7  C   UNL     1       0.632   9.804  19.604  0.00  0.00    +0.000 A 
ENDROOT
BRANCH   4   8
ATOM      8  N   UNL     1       2.887   6.884  18.751  0.00  0.00    +0.000 N 
ATOM      9  C   UNL     1       4.093   7.346  18.089  0.00  0.00    +0.000 C 
ATOM     10  C   UNL     1       4.447   6.222  17.182  0.00  0.00    +0.000 A 
ATOM     11  C   UNL     1       5.370   6.191  16.152  0.00  0.00    +0.000 A 
ATOM     12  C   UNL     1       5.608   4.964  15.534  0.00  0.00    +0.000 A 
ATOM     13 CL   UNL     1       6.684   4.895  14.192  0.00  0.00    +0.000 Cl
ATOM     14  C   UNL     1       4.972   3.793  15.982  0.00  0.00    +0.000 A 
ATOM     15  C   UNL     1       4.003   3.852  16.995  0.00  0.00    +0.000 A 
ATOM     16  C   UNL     1       3.728   5.091  17.546  0.00  0.00    +0.000 A 
ATOM     17  C   UNL     1       2.679   5.519  18.499  0.00  0.00    +0.000 C 
ATOM     18  O   UNL     1       1.813   4.765  18.905  0.00  0.00    +0.000 OA
ENDBRANCH   4   8
BRANCH   1  21
ATOM     19  C   UNL     1      -0.747  10.680  22.868  0.00  0.00    +0.000 C 
ATOM     20  O   UNL     1      -0.102  10.127  23.753  0.00  0.00    +0.000 OA
ATOM     21  N   UNL     1      -0.658  10.384  21.521  0.00  0.00    +0.000 N 
ATOM     22  H   UNL     1      -1.203  11.003  20.925  0.00  0.00    +0.000 HD
BRANCH  19  28
ATOM     23  C   UNL     1      -0.361  13.897  22.453  0.00  0.00    +0.000 C 
ATOM     24  C   UNL     1      -1.539  13.156  22.971  0.00  0.00    +0.000 A 
ATOM     25  C   UNL     1      -2.776  13.718  23.398  0.00  0.00    +0.000 A 
ATOM     26  C   UNL     1      -3.574  12.667  23.774  0.00  0.00    +0.000 A 
ATOM     27  O   UNL     1      -2.921  11.490  23.607  0.00  0.00    +0.000 OA
ATOM     28  C   UNL     1      -1.665  11.783  23.126  0.00  0.00    +0.000 A 
ENDBRANCH  19  28
ENDBRANCH   1  21
TORSDOF 3
ENDMDL
MODEL 2
REMARK VINA RESULT:      -8.5      1.689      1.999
REMARK  Name = 
REMARK  4 active torsions:
REMARK  status: ('A' for Active; 'I' for Inactive)
REMARK    1  A    between atoms: C_1  and  C_2
REMARK    2  A    between atoms: C_6  and  C_7
REMARK    3  A    between atoms: N_9  and  C_10
REMARK    4  A    between atoms: C_13  and  N_14
REMARK                            x       y       z     vdW  Elec       q    Type
REMARK                         _______ _______ _______ _____ _____    ______ ____
ROOT
ATOM      1  C   UNL     1       0.783   9.140  19.986  0.00  0.00    +0.000 A 
ATOM      2  C   UNL     1       1.242   9.432  18.706  0.00  0.00    +0.000 A 
ATOM      3  C   UNL     1       2.131   8.558  18.044  0.00  0.00    +0.000 A 
ATOM      4  C   UNL     1       2.595   7.374  18.645  0.00  0.00    +0.000 A 
ATOM      5  C   UNL     1       2.130   7.109  19.953  0.00  0.00    +0.000 A 
ATOM      6 CL   UNL     1       2.458   5.659  20.849  0.00  0.00    +0.000 Cl
ATOM      7  C   UNL     1       1.254   7.989  20.609  0.00  0.00    +0.000 A 
ENDROOT
BRANCH   4   8
ATOM      8  N   UNL     1       3.534   6.548  17.950  0.00  0.00    +0.000 N 
ATOM      9  C   UNL     1       4.758   7.083  17.385  0.00  0.00    +0.000 C 
ATOM     10  C   UNL     1       5.195   6.028  16.433  0.00  0.00    +0.000 A 
ATOM     11  C   UNL     1       6.173   6.086  15.456  0.00  0.00    +0.000 A 
ATOM     12  C   UNL     1       6.482   4.906  14.780  0.00  0.00    +0.000 A 
ATOM     13 CL   UNL     1       7.631   4.950  13.498  0.00  0.00    +0.000 Cl
ATOM     14  C   UNL     1       5.860   3.692  15.122  0.00  0.00    +0.000 A 
ATOM     15  C   UNL     1       4.837   3.662  16.081  0.00  0.00    +0.000 A 
ATOM     16  C   UNL     1       4.494   4.857  16.689  0.00  0.00    +0.000 A 
ATOM     17  C   UNL     1       3.382   5.195  17.607  0.00  0.00    +0.000 C 
ATOM     18  O   UNL     1       2.520   4.394  17.918  0.00  0.00    +0.000 OA
ENDBRANCH   4   8
BRANCH   1  21
ATOM     19  C   UNL     1       0.048  11.084  21.405  0.00  0.00    +0.000 C 
ATOM     20  O   UNL     1       1.132  11.640  21.545  0.00  0.00    +0.000 OA
ATOM     21  N   UNL     1      -0.153   9.908  20.707  0.00  0.00    +0.000 N 
ATOM     22  H   UNL     1      -1.131   9.640  20.623  0.00  0.00    +0.000 HD
BRANCH  19  28
ATOM     23  C   UNL     1      -2.248  12.873  19.923  0.00  0.00    +0.000 C 
ATOM     24  C   UNL     1      -2.194  12.402  21.331  0.00  0.00    +0.000 A 
ATOM     25  C   UNL     1      -3.165  12.638  22.344  0.00  0.00    +0.000 A 
ATOM     26  C   UNL     1      -2.716  12.002  23.474  0.00  0.00    +0.000 A 
ATOM     27  O   UNL     1      -1.534  11.383  23.232  0.00  0.00    +0.000 OA
ATOM     28  C   UNL     1      -1.199  11.635  21.921  0.00  0.00    +0.000 A 
ENDBRANCH  19  28
ENDBRANCH   1  21
TORSDOF 3
ENDMDL
MODEL 3
REMARK VINA RESULT:      -8.1      1.721      2.124
REMARK  Name = 
REMARK  4 active torsions:
REMARK  status: ('A' for Active; 'I' for Inactive)
REMARK    1  A    between atoms: C_1  and  C_2
REMARK    2  A    between atoms: C_6  and  C_7
REMARK    3  A    between atoms: N_9  and  C_10
REMARK    4  A    between atoms: C_13  and  N_14
REMARK                            x       y       z     vdW  Elec       q    Type
REMARK                         _______ _______ _______ _____ _____    ______ ____
ROOT
ATOM      1  C   UNL     1       0.356  10.121  19.642  0.00  0.00    +0.000 A 
ATOM      2  C   UNL     1       0.849  10.153  18.342  0.00  0.00    +0.000 A 
ATOM      3  C   UNL     1       1.698   9.129  17.869  0.00  0.00    +0.000 A 
ATOM      4  C   UNL     1       2.086   8.049  18.684  0.00  0.00    +0.000 A 
ATOM      5  C   UNL     1       1.588   8.048  20.006  0.00  0.00    +0.000 A 
ATOM      6 CL   UNL     1       1.821   6.768  21.154  0.00  0.00    +0.000 Cl
ATOM      7  C   UNL     1       0.753   9.077  20.472  0.00  0.00    +0.000 A 
ENDROOT
BRANCH   4   8
ATOM      8  N   UNL     1       2.987   7.064  18.171  0.00  0.00    +0.000 N 
ATOM      9  C   UNL     1       4.248   7.423  17.551  0.00  0.00    +0.000 C 
ATOM     10  C   UNL     1       4.639   6.193  16.813  0.00  0.00    +0.000 A 
ATOM     11  C   UNL     1       5.634   6.022  15.866  0.00  0.00    +0.000 A 
ATOM     12  C   UNL     1       5.886   4.726  15.419  0.00  0.00    +0.000 A 
ATOM     13 CL   UNL     1       7.055   4.479  14.179  0.00  0.00    +0.000 Cl
ATOM     14  C   UNL     1       5.191   3.628  15.955  0.00  0.00    +0.000 A 
ATOM     15  C   UNL     1       4.152   3.824  16.877  0.00  0.00    +0.000 A 
ATOM     16  C   UNL     1       3.869   5.125  17.255  0.00  0.00    +0.000 A 
ATOM     17  C   UNL     1       2.763   5.681  18.069  0.00  0.00    +0.000 C 
ATOM     18  O   UNL     1       1.852   4.995  18.495  0.00  0.00    +0.000 OA
ENDBRANCH   4   8
BRANCH   1  21
ATOM     19  C   UNL     1      -0.286  12.103  21.052  0.00  0.00    +0.000 C 
ATOM     20  O   UNL     1       0.815  12.367  21.526  0.00  0.00    +0.000 OA
ATOM     21  N   UNL     1      -0.546  11.054  20.191  0.00  0.00    +0.000 N 
ATOM     22  H   UNL     1      -1.498  11.040  19.833  0.00  0.00    +0.000 HD
BRANCH  19  28
ATOM     23  C   UNL     1      -2.560  11.868  23.385  0.00  0.00    +0.000 C 
ATOM     24  C   UNL     1      -2.461  12.845  22.270  0.00  0.00    +0.000 A 
ATOM     25  C   UNL     1      -3.363  13.911  21.992  0.00  0.00    +0.000 A 
ATOM     26  C   UNL     1      -2.871  14.563  20.889  0.00  0.00    +0.000 A 
ATOM     27  O   UNL     1      -1.723  13.979  20.466  0.00  0.00    +0.000 OA
ATOM     28  C   UNL     1      -1.471  12.915  21.301  0.00  0.00    +0.000 A 
ENDBRANCH  19  28
ENDBRANCH   1  21
TORSDOF 3
ENDMDL
MODEL 4
REMARK VINA RESULT:      -8.1      2.869     10.009
REMARK  Name = 
REMARK  4 active torsions:
REMARK  status: ('A' for Active; 'I' for Inactive)
REMARK    1  A    between atoms: C_1  and  C_2
REMARK    2  A    between atoms: C_6  and  C_7
REMARK    3  A    between atoms: N_9  and  C_10
REMARK    4  A    between atoms: C_13  and  N_14
REMARK                            x       y       z     vdW  Elec       q    Type
REMARK                         _______ _______ _______ _____ _____    ______ ____
ROOT
ATOM      1  C   UNL     1       1.596   8.463  20.694  0.00  0.00    +0.000 A 
ATOM      2  C   UNL     1       1.471   8.610  22.071  0.00  0.00    +0.000 A 
ATOM      3  C   UNL     1       0.669   9.638  22.614  0.00  0.00    +0.000 A 
ATOM      4  C   UNL     1      -0.022  10.552  21.798  0.00  0.00    +0.000 A 
ATOM      5  C   UNL     1       0.137  10.394  20.402  0.00  0.00    +0.000 A 
ATOM      6 CL   UNL     1      -0.708  11.313  19.197  0.00  0.00    +0.000 Cl
ATOM      7  C   UNL     1       0.945   9.377  19.871  0.00  0.00    +0.000 A 
ENDROOT
BRANCH   4   8
ATOM      8  N   UNL     1      -0.781  11.605  22.399  0.00  0.00    +0.000 N 
ATOM      9  C   UNL     1      -2.055  11.360  23.049  0.00  0.00    +0.000 C 
ATOM     10  C   UNL     1      -2.667  12.712  23.142  0.00  0.00    +0.000 A 
ATOM     11  C   UNL     1      -3.966  13.061  23.468  0.00  0.00    +0.000 A 
ATOM     12  C   UNL     1      -4.253  14.417  23.614  0.00  0.00    +0.000 A 
ATOM     13 CL   UNL     1      -5.875  14.900  23.934  0.00  0.00    +0.000 Cl
ATOM     14  C   UNL     1      -3.244  15.388  23.490  0.00  0.00    +0.000 A 
ATOM     15  C   UNL     1      -1.945  15.020  23.111  0.00  0.00    +0.000 A 
ATOM     16  C   UNL     1      -1.697  13.675  22.900  0.00  0.00    +0.000 A 
ATOM     17  C   UNL     1      -0.507  12.981  22.355  0.00  0.00    +0.000 C 
ATOM     18  O   UNL     1       0.467  13.578  21.935  0.00  0.00    +0.000 OA
ENDBRANCH   4   8
BRANCH   1  21
ATOM     19  C   UNL     1       2.133   6.069  20.135  0.00  0.00    +0.000 C 
ATOM     20  O   UNL     1       1.306   5.515  20.851  0.00  0.00    +0.000 OA
ATOM     21  N   UNL     1       2.316   7.436  20.050  0.00  0.00    +0.000 N 
ATOM     22  H   UNL     1       2.988   7.720  19.341  0.00  0.00    +0.000 HD
BRANCH  19  28
ATOM     23  C   UNL     1       1.415   4.201  17.554  0.00  0.00    +0.000 C 
ATOM     24  C   UNL     1       2.745   4.536  18.124  0.00  0.00    +0.000 A 
ATOM     25  C   UNL     1       4.011   4.101  17.640  0.00  0.00    +0.000 A 
ATOM     26  C   UNL     1       4.958   4.667  18.456  0.00  0.00    +0.000 A 
ATOM     27  O   UNL     1       4.368   5.428  19.411  0.00  0.00    +0.000 OA
ATOM     28  C   UNL     1       3.007   5.342  19.223  0.00  0.00    +0.000 A 
ENDBRANCH  19  28
ENDBRANCH   1  21
TORSDOF 3
ENDMDL
MODEL 5
REMARK VINA RESULT:      -8.0      2.835      9.876
REMARK  Name = 
REMARK  4 active torsions:
REMARK  status: ('A' for Active; 'I' for Inactive)
REMARK    1  A    between atoms: C_1  and  C_2
REMARK    2  A    between atoms: C_6  and  C_7
REMARK    3  A    between atoms: N_9  and  C_10
REMARK    4  A    between atoms: C_13  and  N_14
REMARK                            x       y       z     vdW  Elec       q    Type
REMARK                         _______ _______ _______ _____ _____    ______ ____
ROOT
ATOM      1  C   UNL     1       2.301   8.083  18.521  0.00  0.00    +0.000 A 
ATOM      2  C   UNL     1       1.815   9.153  17.776  0.00  0.00    +0.000 A 
ATOM      3  C   UNL     1       1.009  10.142  18.381  0.00  0.00    +0.000 A 
ATOM      4  C   UNL     1       0.657  10.085  19.742  0.00  0.00    +0.000 A 
ATOM      5  C   UNL     1       1.146   8.978  20.472  0.00  0.00    +0.000 A 
ATOM      6 CL   UNL     1       0.954   8.753  22.182  0.00  0.00    +0.000 Cl
ATOM      7  C   UNL     1       1.938   7.993  19.861  0.00  0.00    +0.000 A 
ENDROOT
BRANCH   4   8
ATOM      8  N   UNL     1      -0.203  11.086  20.293  0.00  0.00    +0.000 N 
ATOM      9  C   UNL     1       0.146  11.825  21.492  0.00  0.00    +0.000 C 
ATOM     10  C   UNL     1      -1.147  12.414  21.929  0.00  0.00    +0.000 A 
ATOM     11  C   UNL     1      -1.464  13.030  23.128  0.00  0.00    +0.000 A 
ATOM     12  C   UNL     1      -2.722  13.620  23.239  0.00  0.00    +0.000 A 
ATOM     13 CL   UNL     1      -3.190  14.322  24.739  0.00  0.00    +0.000 Cl
ATOM     14  C   UNL     1      -3.613  13.635  22.150  0.00  0.00    +0.000 A 
ATOM     15  C   UNL     1      -3.294  12.964  20.960  0.00  0.00    +0.000 A 
ATOM     16  C   UNL     1      -2.070  12.322  20.896  0.00  0.00    +0.000 A 
ATOM     17  C   UNL     1      -1.502  11.414  19.872  0.00  0.00    +0.000 C 
ATOM     18  O   UNL     1      -2.133  11.044  18.900  0.00  0.00    +0.000 OA
ENDBRANCH   4   8
BRANCH   1  21
ATOM     19  C   UNL     1       2.886   5.751  17.779  0.00  0.00    +0.000 C 
ATOM     20  O   UNL     1       1.808   5.206  17.990  0.00  0.00    +0.000 OA
ATOM     21  N   UNL     1       3.163   7.081  18.033  0.00  0.00    +0.000 N 
ATOM     22  H   UNL     1       4.083   7.379  17.715  0.00  0.00    +0.000 HD
BRANCH  19  28
ATOM     23  C   UNL     1       3.716   2.593  17.824  0.00  0.00    +0.000 C 
ATOM     24  C   UNL     1       4.408   3.732  17.168  0.00  0.00    +0.000 A 
ATOM     25  C   UNL     1       5.605   3.670  16.399  0.00  0.00    +0.000 A 
ATOM     26  C   UNL     1       5.863   4.950  15.974  0.00  0.00    +0.000 A 
ATOM     27  O   UNL     1       4.907   5.801  16.422  0.00  0.00    +0.000 OA
ATOM     28  C   UNL     1       4.017   5.063  17.168  0.00  0.00    +0.000 A 
ENDBRANCH  19  28
ENDBRANCH   1  21
TORSDOF 3
ENDMDL
MODEL 6
REMARK VINA RESULT:      -7.9      8.040     11.655
REMARK  Name = 
REMARK  4 active torsions:
REMARK  status: ('A' for Active; 'I' for Inactive)
REMARK    1  A    between atoms: C_1  and  C_2
REMARK    2  A    between atoms: C_6  and  C_7
REMARK    3  A    between atoms: N_9  and  C_10
REMARK    4  A    between atoms: C_13  and  N_14
REMARK                            x       y       z     vdW  Elec       q    Type
REMARK                         _______ _______ _______ _____ _____    ______ ____
ROOT
ATOM      1  C   UNL     1       8.403   9.477  18.067  0.00  0.00    +0.000 A 
ATOM      2  C   UNL     1       9.168   9.337  19.220  0.00  0.00    +0.000 A 
ATOM      3  C   UNL     1       9.677  10.472  19.887  0.00  0.00    +0.000 A 
ATOM      4  C   UNL     1       9.445  11.778  19.417  0.00  0.00    +0.000 A 
ATOM      5  C   UNL     1       8.681  11.893  18.233  0.00  0.00    +0.000 A 
ATOM      6 CL   UNL     1       8.159  13.392  17.531  0.00  0.00    +0.000 Cl
ATOM      7  C   UNL     1       8.188  10.759  17.569  0.00  0.00    +0.000 A 
ENDROOT
BRANCH   4   8
ATOM      8  N   UNL     1      10.025  12.891  20.103  0.00  0.00    +0.000 N 
ATOM      9  C   UNL     1       9.637  13.248  21.455  0.00  0.00    +0.000 C 
ATOM     10  C   UNL     1      10.137  14.640  21.606  0.00  0.00    +0.000 A 
ATOM     11  C   UNL     1       9.862  15.561  22.602  0.00  0.00    +0.000 A 
ATOM     12  C   UNL     1      10.568  16.764  22.582  0.00  0.00    +0.000 A 
ATOM     13 CL   UNL     1      10.198  17.973  23.751  0.00  0.00    +0.000 Cl
ATOM     14  C   UNL     1      11.562  17.003  21.617  0.00  0.00    +0.000 A 
ATOM     15  C   UNL     1      11.792  16.079  20.587  0.00  0.00    +0.000 A 
ATOM     16  C   UNL     1      11.030  14.924  20.582  0.00  0.00    +0.000 A 
ATOM     17  C   UNL     1      10.914  13.842  19.577  0.00  0.00    +0.000 C 
ATOM     18  O   UNL     1      11.489  13.876  18.505  0.00  0.00    +0.000 OA
ENDBRANCH   4   8
BRANCH   1  21
ATOM     19  C   UNL     1       7.593   7.113  17.770  0.00  0.00    +0.000 C 
ATOM     20  O   UNL     1       7.970   6.645  18.840  0.00  0.00    +0.000 OA
ATOM     21  N   UNL     1       7.794   8.418  17.363  0.00  0.00    +0.000 N 
ATOM     22  H   UNL     1       7.338   8.651  16.484  0.00  0.00    +0.000 HD
BRANCH  19  28
ATOM     23  C   UNL     1       4.367   6.686  17.498  0.00  0.00    +0.000 C 
ATOM     24  C   UNL     1       5.457   6.137  16.652  0.00  0.00    +0.000 A 
ATOM     25  C   UNL     1       5.308   5.294  15.514  0.00  0.00    +0.000 A 
ATOM     26  C   UNL     1       6.571   5.053  15.036  0.00  0.00    +0.000 A 
ATOM     27  O   UNL     1       7.496   5.692  15.796  0.00  0.00    +0.000 OA
ATOM     28  C   UNL     1       6.821   6.349  16.799  0.00  0.00    +0.000 A 
ENDBRANCH  19  28
ENDBRANCH   1  21
TORSDOF 3
ENDMDL
MODEL 7
REMARK VINA RESULT:      -7.9      1.572      1.849
REMARK  Name = 
REMARK  4 active torsions:
REMARK  status: ('A' for Active; 'I' for Inactive)
REMARK    1  A    between atoms: C_1  and  C_2
REMARK    2  A    between atoms: C_6  and  C_7
REMARK    3  A    between atoms: N_9  and  C_10
REMARK    4  A    between atoms: C_13  and  N_14
REMARK                            x       y       z     vdW  Elec       q    Type
REMARK                         _______ _______ _______ _____ _____    ______ ____
ROOT
ATOM      1  C   UNL     1       0.335   9.983  19.767  0.00  0.00    +0.000 A 
ATOM      2  C   UNL     1       0.807  10.068  18.462  0.00  0.00    +0.000 A 
ATOM      3  C   UNL     1       1.678   9.083  17.948  0.00  0.00    +0.000 A 
ATOM      4  C   UNL     1       2.110   7.992  18.725  0.00  0.00    +0.000 A 
ATOM      5  C   UNL     1       1.632   7.940  20.055  0.00  0.00    +0.000 A 
ATOM      6 CL   UNL     1       1.920   6.635  21.162  0.00  0.00    +0.000 Cl
ATOM      7  C   UNL     1       0.775   8.929  20.562  0.00  0.00    +0.000 A 
ENDROOT
BRANCH   4   8
ATOM      8  N   UNL     1       3.031   7.049  18.172  0.00  0.00    +0.000 N 
ATOM      9  C   UNL     1       4.279   7.462  17.557  0.00  0.00    +0.000 C 
ATOM     10  C   UNL     1       4.696   6.270  16.774  0.00  0.00    +0.000 A 
ATOM     11  C   UNL     1       5.688   6.159  15.815  0.00  0.00    +0.000 A 
ATOM     12  C   UNL     1       5.969   4.887  15.319  0.00  0.00    +0.000 A 
ATOM     13 CL   UNL     1       7.135   4.714  14.065  0.00  0.00    +0.000 Cl
ATOM     14  C   UNL     1       5.305   3.753  15.819  0.00  0.00    +0.000 A 
ATOM     15  C   UNL     1       4.268   3.889  16.754  0.00  0.00    +0.000 A 
ATOM     16  C   UNL     1       3.955   5.168  17.180  0.00  0.00    +0.000 A 
ATOM     17  C   UNL     1       2.842   5.666  18.021  0.00  0.00    +0.000 C 
ATOM     18  O   UNL     1       1.951   4.943  18.427  0.00  0.00    +0.000 OA
ENDBRANCH   4   8
BRANCH   1  21
ATOM     19  C   UNL     1      -0.339  11.933  21.208  0.00  0.00    +0.000 C 
ATOM     20  O   UNL     1       0.767  12.247  21.636  0.00  0.00    +0.000 OA
ATOM     21  N   UNL     1      -0.586  10.874  20.356  0.00  0.00    +0.000 N 
ATOM     22  H   UNL     1      -1.551  10.816  20.038  0.00  0.00    +0.000 HD
BRANCH  19  28
ATOM     23  C   UNL     1      -1.255  14.922  20.263  0.00  0.00    +0.000 C 
ATOM     24  C   UNL     1      -1.973  13.957  21.134  0.00  0.00    +0.000 A 
ATOM     25  C   UNL     1      -3.245  14.145  21.745  0.00  0.00    +0.000 A 
ATOM     26  C   UNL     1      -3.522  12.993  22.437  0.00  0.00    +0.000 A 
ATOM     27  O   UNL     1      -2.512  12.099  22.296  0.00  0.00    +0.000 OA
ATOM     28  C   UNL     1      -1.549  12.689  21.508  0.00  0.00    +0.000 A 
ENDBRANCH  19  28
ENDBRANCH   1  21
TORSDOF 3
ENDMDL
MODEL 8
REMARK VINA RESULT:      -7.9      2.938      9.769
REMARK  Name = 
REMARK  4 active torsions:
REMARK  status: ('A' for Active; 'I' for Inactive)
REMARK    1  A    between atoms: C_1  and  C_2
REMARK    2  A    between atoms: C_6  and  C_7
REMARK    3  A    between atoms: N_9  and  C_10
REMARK    4  A    between atoms: C_13  and  N_14
REMARK                            x       y       z     vdW  Elec       q    Type
REMARK                         _______ _______ _______ _____ _____    ______ ____
ROOT
ATOM      1  C   UNL     1       2.563   7.991  18.457  0.00  0.00    +0.000 A 
ATOM      2  C   UNL     1       2.127   9.058  17.680  0.00  0.00    +0.000 A 
ATOM      3  C   UNL     1       1.223  10.007  18.204  0.00  0.00    +0.000 A 
ATOM      4  C   UNL     1       0.722   9.912  19.516  0.00  0.00    +0.000 A 
ATOM      5  C   UNL     1       1.165   8.808  20.279  0.00  0.00    +0.000 A 
ATOM      6 CL   UNL     1       0.789   8.543  21.952  0.00  0.00    +0.000 Cl
ATOM      7  C   UNL     1       2.055   7.862  19.746  0.00  0.00    +0.000 A 
ENDROOT
BRANCH   4   8
ATOM      8  N   UNL     1      -0.230  10.873  19.981  0.00  0.00    +0.000 N 
ATOM      9  C   UNL     1      -0.062  11.574  21.241  0.00  0.00    +0.000 C 
ATOM     10  C   UNL     1      -1.417  12.118  21.522  0.00  0.00    +0.000 A 
ATOM     11  C   UNL     1      -1.905  12.682  22.688  0.00  0.00    +0.000 A 
ATOM     12  C   UNL     1      -3.182  13.239  22.650  0.00  0.00    +0.000 A 
ATOM     13 CL   UNL     1      -3.863  13.875  24.099  0.00  0.00    +0.000 Cl
ATOM     14  C   UNL     1      -3.921  13.275  21.455  0.00  0.00    +0.000 A 
ATOM     15  C   UNL     1      -3.431  12.656  20.295  0.00  0.00    +0.000 A 
ATOM     16  C   UNL     1      -2.192  12.044  20.372  0.00  0.00    +0.000 A 
ATOM     17  C   UNL     1      -1.470  11.187  19.403  0.00  0.00    +0.000 C 
ATOM     18  O   UNL     1      -1.957  10.840  18.343  0.00  0.00    +0.000 OA
ENDBRANCH   4   8
BRANCH   1  21
ATOM     19  C   UNL     1       3.319   5.683  17.796  0.00  0.00    +0.000 C 
ATOM     20  O   UNL     1       2.255   5.088  17.926  0.00  0.00    +0.000 OA
ATOM     21  N   UNL     1       3.510   7.027  18.055  0.00  0.00    +0.000 N 
ATOM     22  H   UNL     1       4.437   7.367  17.809  0.00  0.00    +0.000 HD
BRANCH  19  28
ATOM     23  C   UNL     1       6.265   5.344  19.164  0.00  0.00    +0.000 C 
ATOM     24  C   UNL     1       5.795   4.887  17.832  0.00  0.00    +0.000 A 
ATOM     25  C   UNL     1       6.558   4.182  16.857  0.00  0.00    +0.000 A 
ATOM     26  C   UNL     1       5.718   3.949  15.796  0.00  0.00    +0.000 A 
ATOM     27  O   UNL     1       4.486   4.456  16.046  0.00  0.00    +0.000 OA
ATOM     28  C   UNL     1       4.528   5.046  17.289  0.00  0.00    +0.000 A 
ENDBRANCH  19  28
ENDBRANCH   1  21
TORSDOF 3
ENDMDL
MODEL 9
REMARK VINA RESULT:      -7.9      1.289      1.437
REMARK  Name = 
REMARK  4 active torsions:
REMARK  status: ('A' for Active; 'I' for Inactive)
REMARK    1  A    between atoms: C_1  and  C_2
REMARK    2  A    between atoms: C_6  and  C_7
REMARK    3  A    between atoms: N_9  and  C_10
REMARK    4  A    between atoms: C_13  and  N_14
REMARK                            x       y       z     vdW  Elec       q    Type
REMARK                         _______ _______ _______ _____ _____    ______ ____
ROOT
ATOM      1  C   UNL     1       0.174   9.883  21.125  0.00  0.00    +0.000 A 
ATOM      2  C   UNL     1       0.688   8.799  21.830  0.00  0.00    +0.000 A 
ATOM      3  C   UNL     1       1.511   7.850  21.187  0.00  0.00    +0.000 A 
ATOM      4  C   UNL     1       1.836   7.949  19.821  0.00  0.00    +0.000 A 
ATOM      5  C   UNL     1       1.286   9.048  19.123  0.00  0.00    +0.000 A 
ATOM      6 CL   UNL     1       1.642   9.454  17.474  0.00  0.00    +0.000 Cl
ATOM      7  C   UNL     1       0.460   9.982  19.767  0.00  0.00    +0.000 A 
ENDROOT
BRANCH   4   8
ATOM      8  N   UNL     1       2.634   6.933  19.208  0.00  0.00    +0.000 N 
ATOM      9  C   UNL     1       3.760   7.252  18.350  0.00  0.00    +0.000 C 
ATOM     10  C   UNL     1       4.017   5.981  17.622  0.00  0.00    +0.000 A 
ATOM     11  C   UNL     1       4.824   5.755  16.521  0.00  0.00    +0.000 A 
ATOM     12  C   UNL     1       4.997   4.435  16.107  0.00  0.00    +0.000 A 
ATOM     13 CL   UNL     1       5.922   4.115  14.691  0.00  0.00    +0.000 Cl
ATOM     14  C   UNL     1       4.417   3.371  16.820  0.00  0.00    +0.000 A 
ATOM     15  C   UNL     1       3.563   3.622  17.904  0.00  0.00    +0.000 A 
ATOM     16  C   UNL     1       3.346   4.943  18.255  0.00  0.00    +0.000 A 
ATOM     17  C   UNL     1       2.404   5.548  19.225  0.00  0.00    +0.000 C 
ATOM     18  O   UNL     1       1.589   4.891  19.847  0.00  0.00    +0.000 OA
ENDBRANCH   4   8
BRANCH   1  21
ATOM     19  C   UNL     1      -0.265  12.248  21.865  0.00  0.00    +0.000 C 
ATOM     20  O   UNL     1       0.826  12.739  21.596  0.00  0.00    +0.000 OA
ATOM     21  N   UNL     1      -0.601  10.920  21.683  0.00  0.00    +0.000 N 
ATOM     22  H   UNL     1      -1.577  10.710  21.881  0.00  0.00    +0.000 HD
BRANCH  19  28
ATOM     23  C   UNL     1      -3.163  12.911  20.511  0.00  0.00    +0.000 C 
ATOM     24  C   UNL     1      -2.625  13.343  21.827  0.00  0.00    +0.000 A 
ATOM     25  C   UNL     1      -3.288  14.151  22.793  0.00  0.00    +0.000 A 
ATOM     26  C   UNL     1      -2.430  14.276  23.856  0.00  0.00    +0.000 A 
ATOM     27  O   UNL     1      -1.280  13.597  23.620  0.00  0.00    +0.000 OA
ATOM     28  C   UNL     1      -1.386  13.032  22.370  0.00  0.00    +0.000 A 
ENDBRANCH  19  28
ENDBRANCH   1  21
TORSDOF 3
ENDMDL
