MODEL 1
REMARK VINA RESULT:      -9.1      0.000      0.000
REMARK  Name = 
REMARK  9 active torsions:
REMARK  status: ('A' for Active; 'I' for Inactive)
REMARK    1  A    between atoms: C_1  and  C_2
REMARK    2  A    between atoms: N_4  and  C_5
REMARK    3  A    between atoms: C_5  and  C_6
REMARK    4  A    between atoms: N_8  and  C_9
REMARK    5  A    between atoms: C_12  and  C_13
REMARK    6  A    between atoms: C_16  and  C_17
REMARK    7  A    between atoms: N_18  and  N_19
REMARK    8  A    between atoms: C_23  and  C_25
REMARK    9  A    between atoms: C_25  and  O_26
REMARK                            x       y       z     vdW  Elec       q    Type
REMARK                         _______ _______ _______ _____ _____    ______ ____
ROOT
ATOM      1  C   UNL     1       3.865   6.036  17.700  0.00  0.00    +0.000 A 
ATOM      2  C   UNL     1       3.592   7.339  17.276  0.00  0.00    +0.000 A 
ATOM      3  C   UNL     1       2.773   8.195  18.023  0.00  0.00    +0.000 A 
ATOM      4  C   UNL     1       2.185   7.789  19.229  0.00  0.00    +0.000 A 
ATOM      5  C   UNL     1       2.448   6.470  19.633  0.00  0.00    +0.000 A 
ATOM      6  F   UNL     1       1.923   5.989  20.772  0.00  0.00    +0.000 F 
ATOM      7  C   UNL     1       3.264   5.605  18.887  0.00  0.00    +0.000 A 
ENDROOT
BRANCH   1  10
ATOM      8  C   UNL     1       6.469   4.404  15.675  0.00  0.00    +0.000 C 
ATOM      9  C   UNL     1       5.670   5.650  15.992  0.00  0.00    +0.000 C 
ATOM     10  N   UNL     1       4.716   5.186  16.952  0.00  0.00    +0.000 N 
ATOM     11  C   UNL     1       4.654   3.797  16.903  0.00  0.00    +0.000 C 
ATOM     12  O   UNL     1       3.876   3.045  17.463  0.00  0.00    +0.000 OA
ATOM     13  O   UNL     1       5.600   3.319  16.037  0.00  0.00    +0.000 OA
BRANCH   8  14
ATOM     14  C   UNL     1       6.820   4.300  14.190  0.00  0.00    +0.000 C 
BRANCH  14  18
ATOM     15  C   UNL     1       4.455   3.138  11.471  0.00  0.00    +0.000 C 
ATOM     16  C   UNL     1       5.762   3.338  12.189  0.00  0.00    +0.000 C 
ATOM     17  O   UNL     1       6.826   2.875  11.794  0.00  0.00    +0.000 OA
ATOM     18  N   UNL     1       5.658   4.070  13.348  0.00  0.00    +0.000 N 
ATOM     19  H   UNL     1       4.737   4.256  13.731  0.00  0.00    +0.000 HD
ENDBRANCH  14  18
ENDBRANCH   8  14
ENDBRANCH   1  10
BRANCH   4  20
ATOM     20  C   UNL     1       1.363   8.740  20.016  0.00  0.00    +0.000 A 
ATOM     21  C   UNL     1       1.235   8.606  21.414  0.00  0.00    +0.000 A 
ATOM     22  C   UNL     1       0.397   9.438  22.161  0.00  0.00    +0.000 A 
ATOM     23  C   UNL     1      -0.312  10.447  21.519  0.00  0.00    +0.000 A 
ATOM     24  C   UNL     1      -0.186  10.628  20.142  0.00  0.00    +0.000 A 
ATOM     25  C   UNL     1       0.639   9.776  19.400  0.00  0.00    +0.000 A 
BRANCH  23  26
ATOM     26  C   UNL     1      -1.194  11.347  22.275  0.00  0.00    +0.000 C 
ATOM     27  N   UNL     1      -0.745  12.258  23.084  0.00  0.00    +0.000 NA
BRANCH  27  28
ATOM     28  N   UNL     1      -1.748  12.973  23.648  0.00  0.00    +0.000 N 
ATOM     29  C   UNL     1      -3.106  12.707  23.119  0.00  0.00    +0.000 C 
ATOM     30  C   UNL     1      -4.181  13.296  24.050  0.00  0.00    +0.000 C 
ATOM     31  N   UNL     1      -3.934  14.715  24.330  0.00  0.00    +0.000 N 
ATOM     32  C   UNL     1      -4.967  15.631  24.251  0.00  0.00    +0.000 C 
ATOM     33  O   UNL     1      -6.111  15.324  23.905  0.00  0.00    +0.000 OA
ATOM     34  C   UNL     1      -2.563  15.022  24.738  0.00  0.00    +0.000 C 
ATOM     35  C   UNL     1      -1.556  14.437  23.742  0.00  0.00    +0.000 C 
BRANCH  32  36
ATOM     36  C   UNL     1      -4.633  17.095  24.563  0.00  0.00    +0.000 C 
BRANCH  36  37
ATOM     37  O   UNL     1      -4.423  17.881  23.399  0.00  0.00    +0.000 OA
ATOM     38  H   UNL     1      -4.425  18.810  23.704  0.00  0.00    +0.000 HD
ENDBRANCH  36  37
ENDBRANCH  32  36
ENDBRANCH  27  28
ENDBRANCH  23  26
ENDBRANCH   4  20
TORSDOF 8
ENDMDL
MODEL 2
REMARK VINA RESULT:      -8.9      1.088      1.346
REMARK  Name = 
REMARK  9 active torsions:
REMARK  status: ('A' for Active; 'I' for Inactive)
REMARK    1  A    between atoms: C_1  and  C_2
REMARK    2  A    between atoms: N_4  and  C_5
REMARK    3  A    between atoms: C_5  and  C_6
REMARK    4  A    between atoms: N_8  and  C_9
REMARK    5  A    between atoms: C_12  and  C_13
REMARK    6  A    between atoms: C_16  and  C_17
REMARK    7  A    between atoms: N_18  and  N_19
REMARK    8  A    between atoms: C_23  and  C_25
REMARK    9  A    between atoms: C_25  and  O_26
REMARK                            x       y       z     vdW  Elec       q    Type
REMARK                         _______ _______ _______ _____ _____    ______ ____
ROOT
ATOM      1  C   UNL     1       3.509   6.300  17.949  0.00  0.00    +0.000 A 
ATOM      2  C   UNL     1       2.989   6.030  19.217  0.00  0.00    +0.000 A 
ATOM      3  C   UNL     1       2.212   6.971  19.905  0.00  0.00    +0.000 A 
ATOM      4  C   UNL     1       1.921   8.230  19.360  0.00  0.00    +0.000 A 
ATOM      5  C   UNL     1       2.469   8.498  18.095  0.00  0.00    +0.000 A 
ATOM      6  F   UNL     1       2.249   9.680  17.495  0.00  0.00    +0.000 F 
ATOM      7  C   UNL     1       3.251   7.562  17.402  0.00  0.00    +0.000 A 
ENDROOT
BRANCH   1  10
ATOM      8  C   UNL     1       5.992   4.278  16.138  0.00  0.00    +0.000 C 
ATOM      9  C   UNL     1       5.414   5.642  16.447  0.00  0.00    +0.000 C 
ATOM     10  N   UNL     1       4.270   5.333  17.249  0.00  0.00    +0.000 N 
ATOM     11  C   UNL     1       3.948   3.989  17.091  0.00  0.00    +0.000 C 
ATOM     12  O   UNL     1       2.972   3.383  17.497  0.00  0.00    +0.000 OA
ATOM     13  O   UNL     1       4.890   3.373  16.312  0.00  0.00    +0.000 OA
BRANCH   8  14
ATOM     14  C   UNL     1       6.511   4.177  14.702  0.00  0.00    +0.000 C 
BRANCH  14  18
ATOM     15  C   UNL     1       4.528   3.286  11.601  0.00  0.00    +0.000 C 
ATOM     16  C   UNL     1       5.741   3.531  12.457  0.00  0.00    +0.000 C 
ATOM     17  O   UNL     1       6.889   3.353  12.066  0.00  0.00    +0.000 OA
ATOM     18  N   UNL     1       5.451   3.954  13.733  0.00  0.00    +0.000 N 
ATOM     19  H   UNL     1       4.494   3.894  14.064  0.00  0.00    +0.000 HD
ENDBRANCH  14  18
ENDBRANCH   8  14
ENDBRANCH   1  10
BRANCH   4  20
ATOM     20  C   UNL     1       1.056   9.181  20.099  0.00  0.00    +0.000 A 
ATOM     21  C   UNL     1       1.100   9.260  21.507  0.00  0.00    +0.000 A 
ATOM     22  C   UNL     1       0.233  10.087  22.225  0.00  0.00    +0.000 A 
ATOM     23  C   UNL     1      -0.682  10.878  21.541  0.00  0.00    +0.000 A 
ATOM     24  C   UNL     1      -0.733  10.848  20.147  0.00  0.00    +0.000 A 
ATOM     25  C   UNL     1       0.125  10.001  19.437  0.00  0.00    +0.000 A 
BRANCH  23  26
ATOM     26  C   UNL     1      -1.602  11.766  22.265  0.00  0.00    +0.000 C 
ATOM     27  N   UNL     1      -1.238  12.466  23.297  0.00  0.00    +0.000 NA
BRANCH  27  28
ATOM     28  N   UNL     1      -2.254  13.222  23.780  0.00  0.00    +0.000 N 
ATOM     29  C   UNL     1      -3.584  12.977  23.174  0.00  0.00    +0.000 C 
ATOM     30  C   UNL     1      -4.697  13.618  24.021  0.00  0.00    +0.000 C 
ATOM     31  N   UNL     1      -4.429  15.037  24.282  0.00  0.00    +0.000 N 
ATOM     32  C   UNL     1      -5.430  15.977  24.115  0.00  0.00    +0.000 C 
ATOM     33  O   UNL     1      -6.558  15.691  23.706  0.00  0.00    +0.000 OA
ATOM     34  C   UNL     1      -3.078  15.319  24.767  0.00  0.00    +0.000 C 
ATOM     35  C   UNL     1      -2.028  14.681  23.851  0.00  0.00    +0.000 C 
BRANCH  32  36
ATOM     36  C   UNL     1      -5.075  17.440  24.413  0.00  0.00    +0.000 C 
BRANCH  36  37
ATOM     37  O   UNL     1      -5.253  17.790  25.778  0.00  0.00    +0.000 OA
ATOM     38  H   UNL     1      -6.195  18.036  25.867  0.00  0.00    +0.000 HD
ENDBRANCH  36  37
ENDBRANCH  32  36
ENDBRANCH  27  28
ENDBRANCH  23  26
ENDBRANCH   4  20
TORSDOF 8
ENDMDL
MODEL 3
REMARK VINA RESULT:      -8.5      0.712      1.070
REMARK  Name = 
REMARK  9 active torsions:
REMARK  status: ('A' for Active; 'I' for Inactive)
REMARK    1  A    between atoms: C_1  and  C_2
REMARK    2  A    between atoms: N_4  and  C_5
REMARK    3  A    between atoms: C_5  and  C_6
REMARK    4  A    between atoms: N_8  and  C_9
REMARK    5  A    between atoms: C_12  and  C_13
REMARK    6  A    between atoms: C_16  and  C_17
REMARK    7  A    between atoms: N_18  and  N_19
REMARK    8  A    between atoms: C_23  and  C_25
REMARK    9  A    between atoms: C_25  and  O_26
REMARK                            x       y       z     vdW  Elec       q    Type
REMARK                         _______ _______ _______ _____ _____    ______ ____
ROOT
ATOM      1  C   UNL     1       3.753   6.251  17.771  0.00  0.00    +0.000 A 
ATOM      2  C   UNL     1       3.452   7.499  17.222  0.00  0.00    +0.000 A 
ATOM      3  C   UNL     1       2.603   8.401  17.875  0.00  0.00    +0.000 A 
ATOM      4  C   UNL     1       2.011   8.097  19.110  0.00  0.00    +0.000 A 
ATOM      5  C   UNL     1       2.302   6.830  19.641  0.00  0.00    +0.000 A 
ATOM      6  F   UNL     1       1.775   6.447  20.815  0.00  0.00    +0.000 F 
ATOM      7  C   UNL     1       3.148   5.920  18.989  0.00  0.00    +0.000 A 
ENDROOT
BRANCH   1  10
ATOM      8  C   UNL     1       6.428   4.498  15.951  0.00  0.00    +0.000 C 
ATOM      9  C   UNL     1       5.604   5.753  16.144  0.00  0.00    +0.000 C 
ATOM     10  N   UNL     1       4.633   5.355  17.117  0.00  0.00    +0.000 N 
ATOM     11  C   UNL     1       4.592   3.966  17.182  0.00  0.00    +0.000 C 
ATOM     12  O   UNL     1       3.811   3.250  17.785  0.00  0.00    +0.000 OA
ATOM     13  O   UNL     1       5.566   3.433  16.381  0.00  0.00    +0.000 OA
BRANCH   8  14
ATOM     14  C   UNL     1       6.817   4.277  14.488  0.00  0.00    +0.000 C 
BRANCH  14  18
ATOM     15  C   UNL     1       4.601   3.142  11.634  0.00  0.00    +0.000 C 
ATOM     16  C   UNL     1       5.869   3.532  12.344  0.00  0.00    +0.000 C 
ATOM     17  O   UNL     1       6.977   3.484  11.820  0.00  0.00    +0.000 OA
ATOM     18  N   UNL     1       5.684   3.927  13.648  0.00  0.00    +0.000 N 
ATOM     19  H   UNL     1       4.786   3.760  14.088  0.00  0.00    +0.000 HD
ENDBRANCH  14  18
ENDBRANCH   8  14
ENDBRANCH   1  10
BRANCH   4  20
ATOM     20  C   UNL     1       1.156   9.097  19.793  0.00  0.00    +0.000 A 
ATOM     21  C   UNL     1       0.632  10.205  19.094  0.00  0.00    +0.000 A 
ATOM     22  C   UNL     1      -0.103  11.203  19.739  0.00  0.00    +0.000 A 
ATOM     23  C   UNL     1      -0.354  11.095  21.101  0.00  0.00    +0.000 A 
ATOM     24  C   UNL     1       0.123   9.997  21.819  0.00  0.00    +0.000 A 
ATOM     25  C   UNL     1       0.876   9.014  21.169  0.00  0.00    +0.000 A 
BRANCH  23  26
ATOM     26  C   UNL     1      -1.132  12.121  21.809  0.00  0.00    +0.000 C 
ATOM     27  N   UNL     1      -1.077  12.283  23.096  0.00  0.00    +0.000 NA
BRANCH  27  28
ATOM     28  N   UNL     1      -1.866  13.303  23.512  0.00  0.00    +0.000 N 
ATOM     29  C   UNL     1      -3.259  12.939  23.860  0.00  0.00    +0.000 C 
ATOM     30  C   UNL     1      -3.944  14.078  24.637  0.00  0.00    +0.000 C 
ATOM     31  N   UNL     1      -3.836  15.357  23.927  0.00  0.00    +0.000 N 
ATOM     32  C   UNL     1      -4.946  16.171  23.786  0.00  0.00    +0.000 C 
ATOM     33  O   UNL     1      -6.066  15.856  24.196  0.00  0.00    +0.000 OA
ATOM     34  C   UNL     1      -2.487  15.683  23.465  0.00  0.00    +0.000 C 
ATOM     35  C   UNL     1      -1.891  14.517  22.668  0.00  0.00    +0.000 C 
BRANCH  32  36
ATOM     36  C   UNL     1      -4.754  17.496  23.036  0.00  0.00    +0.000 C 
BRANCH  36  37
ATOM     37  O   UNL     1      -4.923  17.372  21.632  0.00  0.00    +0.000 OA
ATOM     38  H   UNL     1      -5.104  16.425  21.470  0.00  0.00    +0.000 HD
ENDBRANCH  36  37
ENDBRANCH  32  36
ENDBRANCH  27  28
ENDBRANCH  23  26
ENDBRANCH   4  20
TORSDOF 8
ENDMDL
MODEL 4
REMARK VINA RESULT:      -8.5      1.071      1.561
REMARK  Name = 
REMARK  9 active torsions:
REMARK  status: ('A' for Active; 'I' for Inactive)
REMARK    1  A    between atoms: C_1  and  C_2
REMARK    2  A    between atoms: N_4  and  C_5
REMARK    3  A    between atoms: C_5  and  C_6
REMARK    4  A    between atoms: N_8  and  C_9
REMARK    5  A    between atoms: C_12  and  C_13
REMARK    6  A    between atoms: C_16  and  C_17
REMARK    7  A    between atoms: N_18  and  N_19
REMARK    8  A    between atoms: C_23  and  C_25
REMARK    9  A    between atoms: C_25  and  O_26
REMARK                            x       y       z     vdW  Elec       q    Type
REMARK                         _______ _______ _______ _____ _____    ______ ____
ROOT
ATOM      1  C   UNL     1       3.695   6.176  17.927  0.00  0.00    +0.000 A 
ATOM      2  C   UNL     1       3.211   5.894  19.206  0.00  0.00    +0.000 A 
ATOM      3  C   UNL     1       2.429   6.817  19.913  0.00  0.00    +0.000 A 
ATOM      4  C   UNL     1       2.096   8.068  19.375  0.00  0.00    +0.000 A 
ATOM      5  C   UNL     1       2.608   8.350  18.098  0.00  0.00    +0.000 A 
ATOM      6  F   UNL     1       2.347   9.526  17.504  0.00  0.00    +0.000 F 
ATOM      7  C   UNL     1       3.395   7.431  17.386  0.00  0.00    +0.000 A 
ENDROOT
BRANCH   1  10
ATOM      8  C   UNL     1       6.175   4.220  16.039  0.00  0.00    +0.000 C 
ATOM      9  C   UNL     1       5.559   5.566  16.353  0.00  0.00    +0.000 C 
ATOM     10  N   UNL     1       4.462   5.228  17.208  0.00  0.00    +0.000 N 
ATOM     11  C   UNL     1       4.186   3.870  17.084  0.00  0.00    +0.000 C 
ATOM     12  O   UNL     1       3.252   3.234  17.541  0.00  0.00    +0.000 OA
ATOM     13  O   UNL     1       5.117   3.277  16.274  0.00  0.00    +0.000 OA
BRANCH   8  14
ATOM     14  C   UNL     1       6.634   4.115  14.584  0.00  0.00    +0.000 C 
BRANCH  14  18
ATOM     15  C   UNL     1       4.389   3.356  11.630  0.00  0.00    +0.000 C 
ATOM     16  C   UNL     1       5.646   3.373  12.457  0.00  0.00    +0.000 C 
ATOM     17  O   UNL     1       6.683   2.812  12.120  0.00  0.00    +0.000 OA
ATOM     18  N   UNL     1       5.527   4.057  13.644  0.00  0.00    +0.000 N 
ATOM     19  H   UNL     1       4.604   4.328  13.964  0.00  0.00    +0.000 HD
ENDBRANCH  14  18
ENDBRANCH   8  14
ENDBRANCH   1  10
BRANCH   4  20
ATOM     20  C   UNL     1       1.227   8.999  20.134  0.00  0.00    +0.000 A 
ATOM     21  C   UNL     1       0.636  10.116  19.507  0.00  0.00    +0.000 A 
ATOM     22  C   UNL     1      -0.115  11.052  20.224  0.00  0.00    +0.000 A 
ATOM     23  C   UNL     1      -0.314  10.868  21.587  0.00  0.00    +0.000 A 
ATOM     24  C   UNL     1       0.229   9.758  22.234  0.00  0.00    +0.000 A 
ATOM     25  C   UNL     1       0.998   8.839  21.512  0.00  0.00    +0.000 A 
BRANCH  23  26
ATOM     26  C   UNL     1      -1.107  11.827  22.370  0.00  0.00    +0.000 C 
ATOM     27  N   UNL     1      -2.338  11.605  22.718  0.00  0.00    +0.000 NA
BRANCH  27  28
ATOM     28  N   UNL     1      -2.849  12.624  23.450  0.00  0.00    +0.000 N 
ATOM     29  C   UNL     1      -4.228  13.039  23.103  0.00  0.00    +0.000 C 
ATOM     30  C   UNL     1      -4.821  13.939  24.201  0.00  0.00    +0.000 C 
ATOM     31  N   UNL     1      -3.936  15.067  24.512  0.00  0.00    +0.000 N 
ATOM     32  C   UNL     1      -4.450  16.346  24.621  0.00  0.00    +0.000 C 
ATOM     33  O   UNL     1      -5.638  16.611  24.423  0.00  0.00    +0.000 OA
ATOM     34  C   UNL     1      -2.539  14.696  24.740  0.00  0.00    +0.000 C 
ATOM     35  C   UNL     1      -2.012  13.836  23.586  0.00  0.00    +0.000 C 
BRANCH  32  36
ATOM     36  C   UNL     1      -3.463  17.473  24.954  0.00  0.00    +0.000 C 
BRANCH  36  37
ATOM     37  O   UNL     1      -2.924  18.101  23.801  0.00  0.00    +0.000 OA
ATOM     38  H   UNL     1      -2.585  18.967  24.106  0.00  0.00    +0.000 HD
ENDBRANCH  36  37
ENDBRANCH  32  36
ENDBRANCH  27  28
ENDBRANCH  23  26
ENDBRANCH   4  20
TORSDOF 8
ENDMDL
MODEL 5
REMARK VINA RESULT:      -8.5      1.778      2.057
REMARK  Name = 
REMARK  9 active torsions:
REMARK  status: ('A' for Active; 'I' for Inactive)
REMARK    1  A    between atoms: C_1  and  C_2
REMARK    2  A    between atoms: N_4  and  C_5
REMARK    3  A    between atoms: C_5  and  C_6
REMARK    4  A    between atoms: N_8  and  C_9
REMARK    5  A    between atoms: C_12  and  C_13
REMARK    6  A    between atoms: C_16  and  C_17
REMARK    7  A    between atoms: N_18  and  N_19
REMARK    8  A    between atoms: C_23  and  C_25
REMARK    9  A    between atoms: C_25  and  O_26
REMARK                            x       y       z     vdW  Elec       q    Type
REMARK                         _______ _______ _______ _____ _____    ______ ____
ROOT
ATOM      1  C   UNL     1       3.394   6.584  18.161  0.00  0.00    +0.000 A 
ATOM      2  C   UNL     1       2.840   6.405  19.430  0.00  0.00    +0.000 A 
ATOM      3  C   UNL     1       2.006   7.372  20.008  0.00  0.00    +0.000 A 
ATOM      4  C   UNL     1       1.689   8.566  19.345  0.00  0.00    +0.000 A 
ATOM      5  C   UNL     1       2.271   8.745  18.079  0.00  0.00    +0.000 A 
ATOM      6  F   UNL     1       2.031   9.860  17.371  0.00  0.00    +0.000 F 
ATOM      7  C   UNL     1       3.110   7.782  17.497  0.00  0.00    +0.000 A 
ENDROOT
BRANCH   1  10
ATOM      8  C   UNL     1       6.053   4.432  16.806  0.00  0.00    +0.000 C 
ATOM      9  C   UNL     1       5.542   5.827  17.096  0.00  0.00    +0.000 C 
ATOM     10  N   UNL     1       4.214   5.590  17.573  0.00  0.00    +0.000 N 
ATOM     11  C   UNL     1       3.821   4.304  17.218  0.00  0.00    +0.000 C 
ATOM     12  O   UNL     1       2.725   3.781  17.324  0.00  0.00    +0.000 OA
ATOM     13  O   UNL     1       4.866   3.644  16.630  0.00  0.00    +0.000 OA
BRANCH   8  14
ATOM     14  C   UNL     1       6.895   4.374  15.531  0.00  0.00    +0.000 C 
BRANCH  14  18
ATOM     15  C   UNL     1       5.832   3.050  12.145  0.00  0.00    +0.000 C 
ATOM     16  C   UNL     1       6.559   3.918  13.137  0.00  0.00    +0.000 C 
ATOM     17  O   UNL     1       7.383   4.766  12.814  0.00  0.00    +0.000 OA
ATOM     18  N   UNL     1       6.235   3.662  14.449  0.00  0.00    +0.000 N 
ATOM     19  H   UNL     1       5.705   2.827  14.670  0.00  0.00    +0.000 HD
ENDBRANCH  14  18
ENDBRANCH   8  14
ENDBRANCH   1  10
BRANCH   4  20
ATOM     20  C   UNL     1       0.766   9.543  19.969  0.00  0.00    +0.000 A 
ATOM     21  C   UNL     1       0.827   9.820  21.351  0.00  0.00    +0.000 A 
ATOM     22  C   UNL     1      -0.089  10.672  21.973  0.00  0.00    +0.000 A 
ATOM     23  C   UNL     1      -1.074  11.290  21.212  0.00  0.00    +0.000 A 
ATOM     24  C   UNL     1      -1.146  11.063  19.837  0.00  0.00    +0.000 A 
ATOM     25  C   UNL     1      -0.237  10.191  19.227  0.00  0.00    +0.000 A 
BRANCH  23  26
ATOM     26  C   UNL     1      -2.049  12.199  21.832  0.00  0.00    +0.000 C 
ATOM     27  N   UNL     1      -2.657  13.136  21.170  0.00  0.00    +0.000 NA
BRANCH  27  28
ATOM     28  N   UNL     1      -3.520  13.829  21.952  0.00  0.00    +0.000 N 
ATOM     29  C   UNL     1      -4.730  13.092  22.386  0.00  0.00    +0.000 C 
ATOM     30  C   UNL     1      -5.443  13.836  23.528  0.00  0.00    +0.000 C 
ATOM     31  N   UNL     1      -5.710  15.236  23.177  0.00  0.00    +0.000 N 
ATOM     32  C   UNL     1      -6.954  15.790  23.419  0.00  0.00    +0.000 C 
ATOM     33  O   UNL     1      -7.896  15.145  23.886  0.00  0.00    +0.000 OA
ATOM     34  C   UNL     1      -4.558  15.953  22.631  0.00  0.00    +0.000 C 
ATOM     35  C   UNL     1      -3.929  15.168  21.475  0.00  0.00    +0.000 C 
BRANCH  32  36
ATOM     36  C   UNL     1      -7.155  17.261  23.031  0.00  0.00    +0.000 C 
BRANCH  36  37
ATOM     37  O   UNL     1      -6.860  18.162  24.087  0.00  0.00    +0.000 OA
ATOM     38  H   UNL     1      -6.143  18.737  23.751  0.00  0.00    +0.000 HD
ENDBRANCH  36  37
ENDBRANCH  32  36
ENDBRANCH  27  28
ENDBRANCH  23  26
ENDBRANCH   4  20
TORSDOF 8
ENDMDL
MODEL 6
REMARK VINA RESULT:      -8.2      1.060      1.060
REMARK  Name = 
REMARK  9 active torsions:
REMARK  status: ('A' for Active; 'I' for Inactive)
REMARK    1  A    between atoms: C_1  and  C_2
REMARK    2  A    between atoms: N_4  and  C_5
REMARK    3  A    between atoms: C_5  and  C_6
REMARK    4  A    between atoms: N_8  and  C_9
REMARK    5  A    between atoms: C_12  and  C_13
REMARK    6  A    between atoms: C_16  and  C_17
REMARK    7  A    between atoms: N_18  and  N_19
REMARK    8  A    between atoms: C_23  and  C_25
REMARK    9  A    between atoms: C_25  and  O_26
REMARK                            x       y       z     vdW  Elec       q    Type
REMARK                         _______ _______ _______ _____ _____    ______ ____
ROOT
ATOM      1  C   UNL     1       3.975   6.556  17.870  0.00  0.00    +0.000 A 
ATOM      2  C   UNL     1       3.668   7.833  17.396  0.00  0.00    +0.000 A 
ATOM      3  C   UNL     1       2.728   8.647  18.041  0.00  0.00    +0.000 A 
ATOM      4  C   UNL     1       2.047   8.221  19.190  0.00  0.00    +0.000 A 
ATOM      5  C   UNL     1       2.347   6.927  19.643  0.00  0.00    +0.000 A 
ATOM      6  F   UNL     1       1.739   6.429  20.733  0.00  0.00    +0.000 F 
ATOM      7  C   UNL     1       3.284   6.104  19.000  0.00  0.00    +0.000 A 
ENDROOT
BRANCH   1  10
ATOM      8  C   UNL     1       6.297   4.801  15.619  0.00  0.00    +0.000 C 
ATOM      9  C   UNL     1       4.957   5.474  15.824  0.00  0.00    +0.000 C 
ATOM     10  N   UNL     1       4.946   5.750  17.228  0.00  0.00    +0.000 N 
ATOM     11  C   UNL     1       5.921   4.980  17.854  0.00  0.00    +0.000 C 
ATOM     12  O   UNL     1       6.133   4.833  19.045  0.00  0.00    +0.000 OA
ATOM     13  O   UNL     1       6.647   4.296  16.917  0.00  0.00    +0.000 OA
BRANCH   8  14
ATOM     14  C   UNL     1       6.219   3.639  14.627  0.00  0.00    +0.000 C 
BRANCH  14  18
ATOM     15  C   UNL     1       4.238   3.598  11.399  0.00  0.00    +0.000 C 
ATOM     16  C   UNL     1       5.403   3.365  12.322  0.00  0.00    +0.000 C 
ATOM     17  O   UNL     1       6.428   2.784  11.981  0.00  0.00    +0.000 OA
ATOM     18  N   UNL     1       5.211   3.840  13.598  0.00  0.00    +0.000 N 
ATOM     19  H   UNL     1       4.281   4.129  13.880  0.00  0.00    +0.000 HD
ENDBRANCH  14  18
ENDBRANCH   8  14
ENDBRANCH   1  10
BRANCH   4  20
ATOM     20  C   UNL     1       1.094   9.130  19.871  0.00  0.00    +0.000 A 
ATOM     21  C   UNL     1       1.060   9.225  21.279  0.00  0.00    +0.000 A 
ATOM     22  C   UNL     1       0.113  10.009  21.942  0.00  0.00    +0.000 A 
ATOM     23  C   UNL     1      -0.808  10.742  21.201  0.00  0.00    +0.000 A 
ATOM     24  C   UNL     1      -0.784  10.696  19.807  0.00  0.00    +0.000 A 
ATOM     25  C   UNL     1       0.154   9.891  19.153  0.00  0.00    +0.000 A 
BRANCH  23  26
ATOM     26  C   UNL     1      -1.812  11.584  21.866  0.00  0.00    +0.000 C 
ATOM     27  N   UNL     1      -1.826  11.782  23.150  0.00  0.00    +0.000 NA
BRANCH  27  28
ATOM     28  N   UNL     1      -2.832  12.609  23.523  0.00  0.00    +0.000 N 
ATOM     29  C   UNL     1      -3.993  12.667  22.605  0.00  0.00    +0.000 C 
ATOM     30  C   UNL     1      -5.196  13.346  23.286  0.00  0.00    +0.000 C 
ATOM     31  N   UNL     1      -4.832  14.651  23.847  0.00  0.00    +0.000 N 
ATOM     32  C   UNL     1      -5.643  15.751  23.635  0.00  0.00    +0.000 C 
ATOM     33  O   UNL     1      -6.663  15.709  22.942  0.00  0.00    +0.000 OA
ATOM     34  C   UNL     1      -3.617  14.644  24.661  0.00  0.00    +0.000 C 
ATOM     35  C   UNL     1      -2.459  13.989  23.901  0.00  0.00    +0.000 C 
BRANCH  32  36
ATOM     36  C   UNL     1      -5.201  17.081  24.259  0.00  0.00    +0.000 C 
BRANCH  36  37
ATOM     37  O   UNL     1      -6.194  18.092  24.180  0.00  0.00    +0.000 OA
ATOM     38  H   UNL     1      -6.997  17.648  23.840  0.00  0.00    +0.000 HD
ENDBRANCH  36  37
ENDBRANCH  32  36
ENDBRANCH  27  28
ENDBRANCH  23  26
ENDBRANCH   4  20
TORSDOF 8
ENDMDL
MODEL 7
REMARK VINA RESULT:      -8.2      0.961      1.111
REMARK  Name = 
REMARK  9 active torsions:
REMARK  status: ('A' for Active; 'I' for Inactive)
REMARK    1  A    between atoms: C_1  and  C_2
REMARK    2  A    between atoms: N_4  and  C_5
REMARK    3  A    between atoms: C_5  and  C_6
REMARK    4  A    between atoms: N_8  and  C_9
REMARK    5  A    between atoms: C_12  and  C_13
REMARK    6  A    between atoms: C_16  and  C_17
REMARK    7  A    between atoms: N_18  and  N_19
REMARK    8  A    between atoms: C_23  and  C_25
REMARK    9  A    between atoms: C_25  and  O_26
REMARK                            x       y       z     vdW  Elec       q    Type
REMARK                         _______ _______ _______ _____ _____    ______ ____
ROOT
ATOM      1  C   UNL     1       3.601   6.301  17.857  0.00  0.00    +0.000 A 
ATOM      2  C   UNL     1       3.363   7.564  17.310  0.00  0.00    +0.000 A 
ATOM      3  C   UNL     1       2.557   8.505  17.964  0.00  0.00    +0.000 A 
ATOM      4  C   UNL     1       1.947   8.227  19.195  0.00  0.00    +0.000 A 
ATOM      5  C   UNL     1       2.174   6.946  19.724  0.00  0.00    +0.000 A 
ATOM      6  F   UNL     1       1.625   6.586  20.895  0.00  0.00    +0.000 F 
ATOM      7  C   UNL     1       2.977   5.997  19.072  0.00  0.00    +0.000 A 
ENDROOT
BRANCH   1  10
ATOM      8  C   UNL     1       6.220   4.413  16.093  0.00  0.00    +0.000 C 
ATOM      9  C   UNL     1       5.498   5.725  16.311  0.00  0.00    +0.000 C 
ATOM     10  N   UNL     1       4.438   5.366  17.203  0.00  0.00    +0.000 N 
ATOM     11  C   UNL     1       4.273   3.984  17.186  0.00  0.00    +0.000 C 
ATOM     12  O   UNL     1       3.398   3.311  17.702  0.00  0.00    +0.000 OA
ATOM     13  O   UNL     1       5.244   3.409  16.412  0.00  0.00    +0.000 OA
BRANCH   8  14
ATOM     14  C   UNL     1       6.677   4.234  14.644  0.00  0.00    +0.000 C 
BRANCH  14  18
ATOM     15  C   UNL     1       4.552   3.232  11.674  0.00  0.00    +0.000 C 
ATOM     16  C   UNL     1       5.803   3.489  12.469  0.00  0.00    +0.000 C 
ATOM     17  O   UNL     1       6.930   3.255  12.046  0.00  0.00    +0.000 OA
ATOM     18  N   UNL     1       5.575   3.990  13.729  0.00  0.00    +0.000 N 
ATOM     19  H   UNL     1       4.631   3.976  14.099  0.00  0.00    +0.000 HD
ENDBRANCH  14  18
ENDBRANCH   8  14
ENDBRANCH   1  10
BRANCH   4  20
ATOM     20  C   UNL     1       1.140   9.266  19.879  0.00  0.00    +0.000 A 
ATOM     21  C   UNL     1       1.005   9.274  21.283  0.00  0.00    +0.000 A 
ATOM     22  C   UNL     1       0.180  10.192  21.939  0.00  0.00    +0.000 A 
ATOM     23  C   UNL     1      -0.509  11.144  21.197  0.00  0.00    +0.000 A 
ATOM     24  C   UNL     1      -0.375  11.185  19.808  0.00  0.00    +0.000 A 
ATOM     25  C   UNL     1       0.436  10.248  19.159  0.00  0.00    +0.000 A 
BRANCH  23  26
ATOM     26  C   UNL     1      -1.378  12.130  21.855  0.00  0.00    +0.000 C 
ATOM     27  N   UNL     1      -2.595  11.863  22.219  0.00  0.00    +0.000 NA
BRANCH  27  28
ATOM     28  N   UNL     1      -3.187  12.922  22.822  0.00  0.00    +0.000 N 
ATOM     29  C   UNL     1      -3.746  13.951  21.914  0.00  0.00    +0.000 C 
ATOM     30  C   UNL     1      -4.681  14.905  22.678  0.00  0.00    +0.000 C 
ATOM     31  N   UNL     1      -4.027  15.469  23.863  0.00  0.00    +0.000 N 
ATOM     32  C   UNL     1      -4.114  16.824  24.128  0.00  0.00    +0.000 C 
ATOM     33  O   UNL     1      -4.690  17.618  23.381  0.00  0.00    +0.000 OA
ATOM     34  C   UNL     1      -3.361  14.484  24.715  0.00  0.00    +0.000 C 
ATOM     35  C   UNL     1      -2.420  13.600  23.889  0.00  0.00    +0.000 C 
BRANCH  32  36
ATOM     36  C   UNL     1      -3.408  17.339  25.389  0.00  0.00    +0.000 C 
BRANCH  36  37
ATOM     37  O   UNL     1      -2.842  18.631  25.224  0.00  0.00    +0.000 OA
ATOM     38  H   UNL     1      -2.421  18.624  24.341  0.00  0.00    +0.000 HD
ENDBRANCH  36  37
ENDBRANCH  32  36
ENDBRANCH  27  28
ENDBRANCH  23  26
ENDBRANCH   4  20
TORSDOF 8
ENDMDL
MODEL 8
REMARK VINA RESULT:      -8.2      2.448     13.773
REMARK  Name = 
REMARK  9 active torsions:
REMARK  status: ('A' for Active; 'I' for Inactive)
REMARK    1  A    between atoms: C_1  and  C_2
REMARK    2  A    between atoms: N_4  and  C_5
REMARK    3  A    between atoms: C_5  and  C_6
REMARK    4  A    between atoms: N_8  and  C_9
REMARK    5  A    between atoms: C_12  and  C_13
REMARK    6  A    between atoms: C_16  and  C_17
REMARK    7  A    between atoms: N_18  and  N_19
REMARK    8  A    between atoms: C_23  and  C_25
REMARK    9  A    between atoms: C_25  and  O_26
REMARK                            x       y       z     vdW  Elec       q    Type
REMARK                         _______ _______ _______ _____ _____    ______ ____
ROOT
ATOM      1  C   UNL     1      -2.768  13.348  22.361  0.00  0.00    +0.000 A 
ATOM      2  C   UNL     1      -2.077  12.408  23.130  0.00  0.00    +0.000 A 
ATOM      3  C   UNL     1      -1.276  11.423  22.536  0.00  0.00    +0.000 A 
ATOM      4  C   UNL     1      -1.130  11.330  21.145  0.00  0.00    +0.000 A 
ATOM      5  C   UNL     1      -1.848  12.265  20.382  0.00  0.00    +0.000 A 
ATOM      6  F   UNL     1      -1.776  12.249  19.041  0.00  0.00    +0.000 F 
ATOM      7  C   UNL     1      -2.655  13.251  20.970  0.00  0.00    +0.000 A 
ENDROOT
BRANCH   1  10
ATOM      8  C   UNL     1      -5.306  15.472  23.969  0.00  0.00    +0.000 C 
ATOM      9  C   UNL     1      -4.983  14.337  23.021  0.00  0.00    +0.000 C 
ATOM     10  N   UNL     1      -3.553  14.357  22.970  0.00  0.00    +0.000 N 
ATOM     11  C   UNL     1      -3.094  15.577  23.456  0.00  0.00    +0.000 C 
ATOM     12  O   UNL     1      -1.960  16.025  23.451  0.00  0.00    +0.000 OA
ATOM     13  O   UNL     1      -4.145  16.316  23.928  0.00  0.00    +0.000 OA
BRANCH   8  14
ATOM     14  C   UNL     1      -6.531  16.271  23.523  0.00  0.00    +0.000 C 
BRANCH  14  18
ATOM     15  C   UNL     1      -7.915  15.866  20.021  0.00  0.00    +0.000 C 
ATOM     16  C   UNL     1      -7.347  16.573  21.222  0.00  0.00    +0.000 C 
ATOM     17  O   UNL     1      -7.077  17.768  21.235  0.00  0.00    +0.000 OA
ATOM     18  N   UNL     1      -7.133  15.753  22.305  0.00  0.00    +0.000 N 
ATOM     19  H   UNL     1      -7.184  14.749  22.179  0.00  0.00    +0.000 HD
ENDBRANCH  14  18
ENDBRANCH   8  14
ENDBRANCH   1  10
BRANCH   4  20
ATOM     20  C   UNL     1      -0.237  10.303  20.556  0.00  0.00    +0.000 A 
ATOM     21  C   UNL     1       0.185   9.188  21.311  0.00  0.00    +0.000 A 
ATOM     22  C   UNL     1       1.095   8.257  20.803  0.00  0.00    +0.000 A 
ATOM     23  C   UNL     1       1.580   8.410  19.510  0.00  0.00    +0.000 A 
ATOM     24  C   UNL     1       1.161   9.484  18.724  0.00  0.00    +0.000 A 
ATOM     25  C   UNL     1       0.267  10.423  19.249  0.00  0.00    +0.000 A 
BRANCH  23  26
ATOM     26  C   UNL     1       2.531   7.444  18.942  0.00  0.00    +0.000 C 
ATOM     27  N   UNL     1       2.889   6.360  19.562  0.00  0.00    +0.000 NA
BRANCH  27  28
ATOM     28  N   UNL     1       3.757   5.621  18.829  0.00  0.00    +0.000 N 
ATOM     29  C   UNL     1       5.132   5.518  19.370  0.00  0.00    +0.000 C 
ATOM     30  C   UNL     1       5.914   4.395  18.665  0.00  0.00    +0.000 C 
ATOM     31  N   UNL     1       5.871   4.541  17.206  0.00  0.00    +0.000 N 
ATOM     32  C   UNL     1       7.028   4.412  16.459  0.00  0.00    +0.000 C 
ATOM     33  O   UNL     1       8.136   4.218  16.966  0.00  0.00    +0.000 OA
ATOM     34  C   UNL     1       4.534   4.766  16.657  0.00  0.00    +0.000 C 
ATOM     35  C   UNL     1       3.838   5.923  17.383  0.00  0.00    +0.000 C 
BRANCH  32  36
ATOM     36  C   UNL     1       6.904   4.572  14.938  0.00  0.00    +0.000 C 
BRANCH  36  37
ATOM     37  O   UNL     1       7.808   5.526  14.401  0.00  0.00    +0.000 OA
ATOM     38  H   UNL     1       8.288   5.896  15.169  0.00  0.00    +0.000 HD
ENDBRANCH  36  37
ENDBRANCH  32  36
ENDBRANCH  27  28
ENDBRANCH  23  26
ENDBRANCH   4  20
TORSDOF 8
ENDMDL
MODEL 9
REMARK VINA RESULT:      -8.1      1.252      1.631
REMARK  Name = 
REMARK  9 active torsions:
REMARK  status: ('A' for Active; 'I' for Inactive)
REMARK    1  A    between atoms: C_1  and  C_2
REMARK    2  A    between atoms: N_4  and  C_5
REMARK    3  A    between atoms: C_5  and  C_6
REMARK    4  A    between atoms: N_8  and  C_9
REMARK    5  A    between atoms: C_12  and  C_13
REMARK    6  A    between atoms: C_16  and  C_17
REMARK    7  A    between atoms: N_18  and  N_19
REMARK    8  A    between atoms: C_23  and  C_25
REMARK    9  A    between atoms: C_25  and  O_26
REMARK                            x       y       z     vdW  Elec       q    Type
REMARK                         _______ _______ _______ _____ _____    ______ ____
ROOT
ATOM      1  C   UNL     1       4.002   6.583  17.794  0.00  0.00    +0.000 A 
ATOM      2  C   UNL     1       3.650   7.787  17.181  0.00  0.00    +0.000 A 
ATOM      3  C   UNL     1       2.659   8.620  17.717  0.00  0.00    +0.000 A 
ATOM      4  C   UNL     1       1.971   8.286  18.893  0.00  0.00    +0.000 A 
ATOM      5  C   UNL     1       2.317   7.062  19.487  0.00  0.00    +0.000 A 
ATOM      6  F   UNL     1       1.707   6.655  20.613  0.00  0.00    +0.000 F 
ATOM      7  C   UNL     1       3.305   6.222  18.953  0.00  0.00    +0.000 A 
ENDROOT
BRANCH   1  10
ATOM      8  C   UNL     1       6.581   4.842  15.831  0.00  0.00    +0.000 C 
ATOM      9  C   UNL     1       5.268   5.595  15.860  0.00  0.00    +0.000 C 
ATOM     10  N   UNL     1       5.023   5.760  17.260  0.00  0.00    +0.000 N 
ATOM     11  C   UNL     1       5.823   4.873  17.974  0.00  0.00    +0.000 C 
ATOM     12  O   UNL     1       5.808   4.618  19.165  0.00  0.00    +0.000 OA
ATOM     13  O   UNL     1       6.663   4.212  17.119  0.00  0.00    +0.000 OA
BRANCH   8  14
ATOM     14  C   UNL     1       6.614   3.771  14.739  0.00  0.00    +0.000 C 
BRANCH  14  18
ATOM     15  C   UNL     1       4.387   3.592  11.681  0.00  0.00    +0.000 C 
ATOM     16  C   UNL     1       5.644   3.466  12.499  0.00  0.00    +0.000 C 
ATOM     17  O   UNL     1       6.694   3.012  12.058  0.00  0.00    +0.000 OA
ATOM     18  N   UNL     1       5.508   3.885  13.802  0.00  0.00    +0.000 N 
ATOM     19  H   UNL     1       4.579   4.061  14.167  0.00  0.00    +0.000 HD
ENDBRANCH  14  18
ENDBRANCH   8  14
ENDBRANCH   1  10
BRANCH   4  20
ATOM     20  C   UNL     1       0.963   9.216  19.456  0.00  0.00    +0.000 A 
ATOM     21  C   UNL     1       0.135   9.988  18.613  0.00  0.00    +0.000 A 
ATOM     22  C   UNL     1      -0.760  10.932  19.122  0.00  0.00    +0.000 A 
ATOM     23  C   UNL     1      -0.865  11.102  20.498  0.00  0.00    +0.000 A 
ATOM     24  C   UNL     1      -0.084  10.334  21.363  0.00  0.00    +0.000 A 
ATOM     25  C   UNL     1       0.825   9.407  20.842  0.00  0.00    +0.000 A 
BRANCH  23  26
ATOM     26  C   UNL     1      -1.803  12.079  21.068  0.00  0.00    +0.000 C 
ATOM     27  N   UNL     1      -2.217  12.023  22.298  0.00  0.00    +0.000 NA
BRANCH  27  28
ATOM     28  N   UNL     1      -3.059  13.042  22.595  0.00  0.00    +0.000 N 
ATOM     29  C   UNL     1      -3.085  14.161  21.625  0.00  0.00    +0.000 C 
ATOM     30  C   UNL     1      -4.301  15.071  21.872  0.00  0.00    +0.000 C 
ATOM     31  N   UNL     1      -4.373  15.510  23.270  0.00  0.00    +0.000 N 
ATOM     32  C   UNL     1      -4.615  16.839  23.570  0.00  0.00    +0.000 C 
ATOM     33  O   UNL     1      -4.734  17.711  22.707  0.00  0.00    +0.000 OA
ATOM     34  C   UNL     1      -4.228  14.436  24.251  0.00  0.00    +0.000 C 
ATOM     35  C   UNL     1      -2.975  13.602  23.962  0.00  0.00    +0.000 C 
BRANCH  32  36
ATOM     36  C   UNL     1      -4.681  17.222  25.055  0.00  0.00    +0.000 C 
BRANCH  36  37
ATOM     37  O   UNL     1      -3.511  17.880  25.514  0.00  0.00    +0.000 OA
ATOM     38  H   UNL     1      -3.808  18.482  26.226  0.00  0.00    +0.000 HD
ENDBRANCH  36  37
ENDBRANCH  32  36
ENDBRANCH  27  28
ENDBRANCH  23  26
ENDBRANCH   4  20
TORSDOF 8
ENDMDL
