MODEL 1
REMARK VINA RESULT:      -7.8      0.000      0.000
REMARK  Name = 
REMARK  3 active torsions:
REMARK  status: ('A' for Active; 'I' for Inactive)
REMARK    1  A    between atoms: C_1  and  C_2
REMARK    2  A    between atoms: C_8  and  C_9
REMARK    3  A    between atoms: C_11  and  C_12
REMARK                            x       y       z     vdW  Elec       q    Type
REMARK                         _______ _______ _______ _____ _____    ______ ____
ROOT
ATOM      1  C   UNL     1       5.391   2.894  11.957  0.00  0.00    +0.000 C 
ATOM      2  C   UNL     1       6.372   3.854  12.551  0.00  0.00    +0.000 A 
ATOM      3  C   UNL     1       7.316   4.462  11.811  0.00  0.00    +0.000 A 
ATOM      4  C   UNL     1       8.231   5.381  12.535  0.00  0.00    +0.000 A 
ATOM      5  N   UNL     1       8.214   5.628  13.807  0.00  0.00    +0.000 NA
ATOM      6  C   UNL     1       7.253   4.984  14.525  0.00  0.00    +0.000 A 
ATOM      7  N   UNL     1       7.029   5.032  15.815  0.00  0.00    +0.000 NA
ATOM      8  C   UNL     1       5.919   4.244  16.006  0.00  0.00    +0.000 A 
ATOM      9  N   UNL     1       5.446   3.674  14.884  0.00  0.00    +0.000 NA
ATOM     10  N   UNL     1       6.314   4.124  13.929  0.00  0.00    +0.000 N 
ENDROOT
BRANCH   8  11
ATOM     11  C   UNL     1       5.356   4.119  17.408  0.00  0.00    +0.000 A 
ATOM     12  N   UNL     1       4.101   3.932  17.797  0.00  0.00    +0.000 NA
ATOM     13  C   UNL     1       4.201   3.962  19.172  0.00  0.00    +0.000 A 
ATOM     14  N   UNL     1       5.447   4.116  19.633  0.00  0.00    +0.000 NA
ATOM     15  O   UNL     1       6.207   4.231  18.484  0.00  0.00    +0.000 OA
BRANCH  13  16
ATOM     16  C   UNL     1       3.082   3.867  20.142  0.00  0.00    +0.000 C 
ATOM     17  C   UNL     1       1.674   3.800  19.597  0.00  0.00    +0.000 C 
ATOM     18  C   UNL     1       0.904   3.217  20.768  0.00  0.00    +0.000 C 
ATOM     19  O   UNL     1       1.817   2.416  21.530  0.00  0.00    +0.000 OA
ATOM     20  C   UNL     1       3.137   2.616  21.001  0.00  0.00    +0.000 C 
ENDBRANCH  13  16
ENDBRANCH   8  11
TORSDOF 2
ENDMDL
MODEL 2
REMARK VINA RESULT:      -7.1      0.899      1.186
REMARK  Name = 
REMARK  3 active torsions:
REMARK  status: ('A' for Active; 'I' for Inactive)
REMARK    1  A    between atoms: C_1  and  C_2
REMARK    2  A    between atoms: C_8  and  C_9
REMARK    3  A    between atoms: C_11  and  C_12
REMARK                            x       y       z     vdW  Elec       q    Type
REMARK                         _______ _______ _______ _____ _____    ______ ____
ROOT
ATOM      1  C   UNL     1       5.557   2.734  11.791  0.00  0.00    +0.000 C 
ATOM      2  C   UNL     1       6.418   3.721  12.512  0.00  0.00    +0.000 A 
ATOM      3  C   UNL     1       7.454   4.338  11.915  0.00  0.00    +0.000 A 
ATOM      4  C   UNL     1       8.231   5.284  12.755  0.00  0.00    +0.000 A 
ATOM      5  N   UNL     1       8.016   5.547  14.006  0.00  0.00    +0.000 NA
ATOM      6  C   UNL     1       6.967   4.894  14.579  0.00  0.00    +0.000 A 
ATOM      7  N   UNL     1       6.548   4.955  15.818  0.00  0.00    +0.000 NA
ATOM      8  C   UNL     1       5.436   4.148  15.851  0.00  0.00    +0.000 A 
ATOM      9  N   UNL     1       5.150   3.553  14.679  0.00  0.00    +0.000 NA
ATOM     10  N   UNL     1       6.146   4.008  13.861  0.00  0.00    +0.000 N 
ENDROOT
BRANCH   8  11
ATOM     11  C   UNL     1       4.668   4.030  17.153  0.00  0.00    +0.000 A 
ATOM     12  N   UNL     1       4.033   2.981  17.663  0.00  0.00    +0.000 NA
ATOM     13  C   UNL     1       3.482   3.493  18.819  0.00  0.00    +0.000 A 
ATOM     14  N   UNL     1       3.780   4.776  19.054  0.00  0.00    +0.000 NA
ATOM     15  O   UNL     1       4.547   5.137  17.962  0.00  0.00    +0.000 OA
BRANCH  13  16
ATOM     16  C   UNL     1       2.600   2.774  19.770  0.00  0.00    +0.000 C 
ATOM     17  C   UNL     1       3.067   2.627  21.200  0.00  0.00    +0.000 C 
ATOM     18  C   UNL     1       1.771   2.333  21.933  0.00  0.00    +0.000 C 
ATOM     19  O   UNL     1       0.707   2.945  21.191  0.00  0.00    +0.000 OA
ATOM     20  C   UNL     1       1.248   3.441  19.957  0.00  0.00    +0.000 C 
ENDBRANCH  13  16
ENDBRANCH   8  11
TORSDOF 2
ENDMDL
MODEL 3
REMARK VINA RESULT:      -7.0      4.843      8.213
REMARK  Name = 
REMARK  3 active torsions:
REMARK  status: ('A' for Active; 'I' for Inactive)
REMARK    1  A    between atoms: C_1  and  C_2
REMARK    2  A    between atoms: C_8  and  C_9
REMARK    3  A    between atoms: C_11  and  C_12
REMARK                            x       y       z     vdW  Elec       q    Type
REMARK                         _______ _______ _______ _____ _____    ______ ____
ROOT
ATOM      1  C   UNL     1       0.315   9.310  22.594  0.00  0.00    +0.000 C 
ATOM      2  C   UNL     1       0.534   9.952  21.261  0.00  0.00    +0.000 A 
ATOM      3  C   UNL     1       0.112  11.200  20.991  0.00  0.00    +0.000 A 
ATOM      4  C   UNL     1       0.385  11.706  19.621  0.00  0.00    +0.000 A 
ATOM      5  N   UNL     1       0.968  11.049  18.668  0.00  0.00    +0.000 NA
ATOM      6  C   UNL     1       1.370   9.785  18.976  0.00  0.00    +0.000 A 
ATOM      7  N   UNL     1       1.954   8.904  18.202  0.00  0.00    +0.000 NA
ATOM      8  C   UNL     1       2.186   7.822  19.018  0.00  0.00    +0.000 A 
ATOM      9  N   UNL     1       1.742   7.975  20.278  0.00  0.00    +0.000 NA
ATOM     10  N   UNL     1       1.193   9.226  20.253  0.00  0.00    +0.000 N 
ENDROOT
BRANCH   8  11
ATOM     11  C   UNL     1       2.904   6.621  18.436  0.00  0.00    +0.000 A 
ATOM     12  N   UNL     1       4.117   6.544  17.901  0.00  0.00    +0.000 NA
ATOM     13  C   UNL     1       4.188   5.226  17.500  0.00  0.00    +0.000 A 
ATOM     14  N   UNL     1       3.107   4.497  17.796  0.00  0.00    +0.000 NA
ATOM     15  O   UNL     1       2.258   5.406  18.400  0.00  0.00    +0.000 OA
BRANCH  13  16
ATOM     16  C   UNL     1       5.311   4.585  16.772  0.00  0.00    +0.000 C 
ATOM     17  C   UNL     1       5.489   4.915  15.308  0.00  0.00    +0.000 C 
ATOM     18  C   UNL     1       6.935   4.522  15.063  0.00  0.00    +0.000 C 
ATOM     19  O   UNL     1       7.637   4.663  16.306  0.00  0.00    +0.000 OA
ATOM     20  C   UNL     1       6.675   4.945  17.335  0.00  0.00    +0.000 C 
ENDBRANCH  13  16
ENDBRANCH   8  11
TORSDOF 2
ENDMDL
MODEL 4
REMARK VINA RESULT:      -6.9      5.135      6.048
REMARK  Name = 
REMARK  3 active torsions:
REMARK  status: ('A' for Active; 'I' for Inactive)
REMARK    1  A    between atoms: C_1  and  C_2
REMARK    2  A    between atoms: C_8  and  C_9
REMARK    3  A    between atoms: C_11  and  C_12
REMARK                            x       y       z     vdW  Elec       q    Type
REMARK                         _______ _______ _______ _____ _____    ______ ____
ROOT
ATOM      1  C   UNL     1       3.293   3.030  17.438  0.00  0.00    +0.000 C 
ATOM      2  C   UNL     1       4.129   4.163  16.934  0.00  0.00    +0.000 A 
ATOM      3  C   UNL     1       5.214   3.964  16.164  0.00  0.00    +0.000 A 
ATOM      4  C   UNL     1       5.959   5.179  15.748  0.00  0.00    +0.000 A 
ATOM      5  N   UNL     1       5.671   6.400  16.076  0.00  0.00    +0.000 NA
ATOM      6  C   UNL     1       4.574   6.560  16.867  0.00  0.00    +0.000 A 
ATOM      7  N   UNL     1       4.079   7.668  17.360  0.00  0.00    +0.000 NA
ATOM      8  C   UNL     1       2.949   7.276  18.036  0.00  0.00    +0.000 A 
ATOM      9  N   UNL     1       2.724   5.950  18.013  0.00  0.00    +0.000 NA
ATOM     10  N   UNL     1       3.779   5.479  17.284  0.00  0.00    +0.000 N 
ENDROOT
BRANCH   8  11
ATOM     11  C   UNL     1       2.098   8.341  18.699  0.00  0.00    +0.000 A 
ATOM     12  N   UNL     1       1.471   8.309  19.869  0.00  0.00    +0.000 NA
ATOM     13  C   UNL     1       0.822   9.525  19.898  0.00  0.00    +0.000 A 
ATOM     14  N   UNL     1       1.053  10.302  18.835  0.00  0.00    +0.000 NA
ATOM     15  O   UNL     1       1.878   9.529  18.040  0.00  0.00    +0.000 OA
BRANCH  13  16
ATOM     16  C   UNL     1      -0.095  10.011  20.959  0.00  0.00    +0.000 C 
ATOM     17  C   UNL     1      -0.296   9.141  22.178  0.00  0.00    +0.000 C 
ATOM     18  C   UNL     1      -0.833  10.131  23.195  0.00  0.00    +0.000 C 
ATOM     19  O   UNL     1      -0.318  11.425  22.852  0.00  0.00    +0.000 OA
ATOM     20  C   UNL     1       0.355  11.319  21.588  0.00  0.00    +0.000 C 
ENDBRANCH  13  16
ENDBRANCH   8  11
TORSDOF 2
ENDMDL
MODEL 5
REMARK VINA RESULT:      -6.9      6.671      8.202
REMARK  Name = 
REMARK  3 active torsions:
REMARK  status: ('A' for Active; 'I' for Inactive)
REMARK    1  A    between atoms: C_1  and  C_2
REMARK    2  A    between atoms: C_8  and  C_9
REMARK    3  A    between atoms: C_11  and  C_12
REMARK                            x       y       z     vdW  Elec       q    Type
REMARK                         _______ _______ _______ _____ _____    ______ ____
ROOT
ATOM      1  C   UNL     1      10.781  13.546  17.036  0.00  0.00    +0.000 C 
ATOM      2  C   UNL     1      10.493  13.146  18.448  0.00  0.00    +0.000 A 
ATOM      3  C   UNL     1      10.806  13.934  19.492  0.00  0.00    +0.000 A 
ATOM      4  C   UNL     1      10.475  13.404  20.839  0.00  0.00    +0.000 A 
ATOM      5  N   UNL     1       9.938  12.253  21.095  0.00  0.00    +0.000 NA
ATOM      6  C   UNL     1       9.647  11.479  20.013  0.00  0.00    +0.000 A 
ATOM      7  N   UNL     1       9.129  10.276  19.987  0.00  0.00    +0.000 NA
ATOM      8  C   UNL     1       8.998   9.981  18.651  0.00  0.00    +0.000 A 
ATOM      9  N   UNL     1       9.442  10.946  17.826  0.00  0.00    +0.000 NA
ATOM     10  N   UNL     1       9.885  11.903  18.695  0.00  0.00    +0.000 N 
ENDROOT
BRANCH   8  11
ATOM     11  C   UNL     1       8.375   8.654  18.263  0.00  0.00    +0.000 A 
ATOM     12  N   UNL     1       7.567   8.370  17.249  0.00  0.00    +0.000 NA
ATOM     13  C   UNL     1       7.290   7.033  17.448  0.00  0.00    +0.000 A 
ATOM     14  N   UNL     1       7.914   6.488  18.498  0.00  0.00    +0.000 NA
ATOM     15  O   UNL     1       8.618   7.547  19.043  0.00  0.00    +0.000 OA
BRANCH  13  16
ATOM     16  C   UNL     1       6.372   6.192  16.642  0.00  0.00    +0.000 C 
ATOM     17  C   UNL     1       6.774   4.761  16.369  0.00  0.00    +0.000 C 
ATOM     18  C   UNL     1       5.449   4.118  16.004  0.00  0.00    +0.000 C 
ATOM     19  O   UNL     1       4.414   4.851  16.674  0.00  0.00    +0.000 OA
ATOM     20  C   UNL     1       5.007   6.009  17.282  0.00  0.00    +0.000 C 
ENDBRANCH  13  16
ENDBRANCH   8  11
TORSDOF 2
ENDMDL
MODEL 6
REMARK VINA RESULT:      -6.8      6.600      8.834
REMARK  Name = 
REMARK  3 active torsions:
REMARK  status: ('A' for Active; 'I' for Inactive)
REMARK    1  A    between atoms: C_1  and  C_2
REMARK    2  A    between atoms: C_8  and  C_9
REMARK    3  A    between atoms: C_11  and  C_12
REMARK                            x       y       z     vdW  Elec       q    Type
REMARK                         _______ _______ _______ _____ _____    ______ ____
ROOT
ATOM      1  C   UNL     1       5.144   6.811  15.526  0.00  0.00    +0.000 C 
ATOM      2  C   UNL     1       6.020   6.156  16.546  0.00  0.00    +0.000 A 
ATOM      3  C   UNL     1       5.964   4.835  16.796  0.00  0.00    +0.000 A 
ATOM      4  C   UNL     1       6.882   4.323  17.845  0.00  0.00    +0.000 A 
ATOM      5  N   UNL     1       7.707   5.033  18.549  0.00  0.00    +0.000 NA
ATOM      6  C   UNL     1       7.726   6.367  18.277  0.00  0.00    +0.000 A 
ATOM      7  N   UNL     1       8.438   7.306  18.849  0.00  0.00    +0.000 NA
ATOM      8  C   UNL     1       8.116   8.454  18.167  0.00  0.00    +0.000 A 
ATOM      9  N   UNL     1       7.200   8.282  17.197  0.00  0.00    +0.000 NA
ATOM     10  N   UNL     1       6.925   6.946  17.278  0.00  0.00    +0.000 N 
ENDROOT
BRANCH   8  11
ATOM     11  C   UNL     1       8.812   9.744  18.554  0.00  0.00    +0.000 A 
ATOM     12  N   UNL     1       9.210  10.749  17.784  0.00  0.00    +0.000 NA
ATOM     13  C   UNL     1       9.824  11.596  18.683  0.00  0.00    +0.000 A 
ATOM     14  N   UNL     1       9.783  11.179  19.953  0.00  0.00    +0.000 NA
ATOM     15  O   UNL     1       9.132   9.961  19.875  0.00  0.00    +0.000 OA
BRANCH  13  16
ATOM     16  C   UNL     1      10.520  12.867  18.366  0.00  0.00    +0.000 C 
ATOM     17  C   UNL     1      11.292  12.949  17.069  0.00  0.00    +0.000 C 
ATOM     18  C   UNL     1      11.407  14.448  16.858  0.00  0.00    +0.000 C 
ATOM     19  O   UNL     1      10.279  15.062  17.496  0.00  0.00    +0.000 OA
ATOM     20  C   UNL     1       9.577  14.051  18.235  0.00  0.00    +0.000 C 
ENDBRANCH  13  16
ENDBRANCH   8  11
TORSDOF 2
ENDMDL
MODEL 7
REMARK VINA RESULT:      -6.6      6.400      8.011
REMARK  Name = 
REMARK  3 active torsions:
REMARK  status: ('A' for Active; 'I' for Inactive)
REMARK    1  A    between atoms: C_1  and  C_2
REMARK    2  A    between atoms: C_8  and  C_9
REMARK    3  A    between atoms: C_11  and  C_12
REMARK                            x       y       z     vdW  Elec       q    Type
REMARK                         _______ _______ _______ _____ _____    ______ ____
ROOT
ATOM      1  C   UNL     1       8.274  13.998  17.639  0.00  0.00    +0.000 C 
ATOM      2  C   UNL     1       9.116  13.267  18.636  0.00  0.00    +0.000 A 
ATOM      3  C   UNL     1       9.955  13.907  19.469  0.00  0.00    +0.000 A 
ATOM      4  C   UNL     1      10.740  13.053  20.397  0.00  0.00    +0.000 A 
ATOM      5  N   UNL     1      10.704  11.759  20.458  0.00  0.00    +0.000 NA
ATOM      6  C   UNL     1       9.852  11.146  19.590  0.00  0.00    +0.000 A 
ATOM      7  N   UNL     1       9.638   9.865  19.425  0.00  0.00    +0.000 NA
ATOM      8  C   UNL     1       8.654   9.795  18.469  0.00  0.00    +0.000 A 
ATOM      9  N   UNL     1       8.253  10.990  18.000  0.00  0.00    +0.000 NA
ATOM     10  N   UNL     1       9.037  11.864  18.698  0.00  0.00    +0.000 N 
ENDROOT
BRANCH   8  11
ATOM     11  C   UNL     1       8.131   8.429  18.070  0.00  0.00    +0.000 A 
ATOM     12  N   UNL     1       7.373   8.088  17.034  0.00  0.00    +0.000 NA
ATOM     13  C   UNL     1       7.179   6.737  17.233  0.00  0.00    +0.000 A 
ATOM     14  N   UNL     1       7.807   6.238  18.303  0.00  0.00    +0.000 NA
ATOM     15  O   UNL     1       8.423   7.342  18.862  0.00  0.00    +0.000 OA
BRANCH  13  16
ATOM     16  C   UNL     1       6.343   5.834  16.404  0.00  0.00    +0.000 C 
ATOM     17  C   UNL     1       7.044   4.835  15.512  0.00  0.00    +0.000 C 
ATOM     18  C   UNL     1       5.951   3.815  15.250  0.00  0.00    +0.000 C 
ATOM     19  O   UNL     1       5.062   3.836  16.375  0.00  0.00    +0.000 OA
ATOM     20  C   UNL     1       5.441   4.929  17.226  0.00  0.00    +0.000 C 
ENDBRANCH  13  16
ENDBRANCH   8  11
TORSDOF 2
ENDMDL
MODEL 8
REMARK VINA RESULT:      -6.6      5.293      8.715
REMARK  Name = 
REMARK  3 active torsions:
REMARK  status: ('A' for Active; 'I' for Inactive)
REMARK    1  A    between atoms: C_1  and  C_2
REMARK    2  A    between atoms: C_8  and  C_9
REMARK    3  A    between atoms: C_11  and  C_12
REMARK                            x       y       z     vdW  Elec       q    Type
REMARK                         _______ _______ _______ _____ _____    ______ ____
ROOT
ATOM      1  C   UNL     1      -0.149   9.516  23.109  0.00  0.00    +0.000 C 
ATOM      2  C   UNL     1      -0.142  10.160  21.759  0.00  0.00    +0.000 A 
ATOM      3  C   UNL     1      -0.816  11.295  21.504  0.00  0.00    +0.000 A 
ATOM      4  C   UNL     1      -0.732  11.815  20.115  0.00  0.00    +0.000 A 
ATOM      5  N   UNL     1      -0.090  11.264  19.133  0.00  0.00    +0.000 NA
ATOM      6  C   UNL     1       0.571  10.110  19.426  0.00  0.00    +0.000 A 
ATOM      7  N   UNL     1       1.269   9.344  18.626  0.00  0.00    +0.000 NA
ATOM      8  C   UNL     1       1.758   8.346  19.435  0.00  0.00    +0.000 A 
ATOM      9  N   UNL     1       1.370   8.437  20.720  0.00  0.00    +0.000 NA
ATOM     10  N   UNL     1       0.585   9.555  20.718  0.00  0.00    +0.000 N 
ENDROOT
BRANCH   8  11
ATOM     11  C   UNL     1       2.662   7.296  18.820  0.00  0.00    +0.000 A 
ATOM     12  N   UNL     1       3.415   7.370  17.729  0.00  0.00    +0.000 NA
ATOM     13  C   UNL     1       3.952   6.102  17.645  0.00  0.00    +0.000 A 
ATOM     14  N   UNL     1       3.597   5.283  18.642  0.00  0.00    +0.000 NA
ATOM     15  O   UNL     1       2.744   6.055  19.409  0.00  0.00    +0.000 OA
BRANCH  13  16
ATOM     16  C   UNL     1       4.833   5.586  16.569  0.00  0.00    +0.000 C 
ATOM     17  C   UNL     1       6.315   5.865  16.669  0.00  0.00    +0.000 C 
ATOM     18  C   UNL     1       6.904   4.810  15.751  0.00  0.00    +0.000 C 
ATOM     19  O   UNL     1       6.003   3.694  15.741  0.00  0.00    +0.000 OA
ATOM     20  C   UNL     1       4.815   4.071  16.454  0.00  0.00    +0.000 C 
ENDBRANCH  13  16
ENDBRANCH   8  11
TORSDOF 2
ENDMDL
MODEL 9
REMARK VINA RESULT:      -6.6      4.696      8.267
REMARK  Name = 
REMARK  3 active torsions:
REMARK  status: ('A' for Active; 'I' for Inactive)
REMARK    1  A    between atoms: C_1  and  C_2
REMARK    2  A    between atoms: C_8  and  C_9
REMARK    3  A    between atoms: C_11  and  C_12
REMARK                            x       y       z     vdW  Elec       q    Type
REMARK                         _______ _______ _______ _____ _____    ______ ____
ROOT
ATOM      1  C   UNL     1      -0.302  11.062  18.243  0.00  0.00    +0.000 C 
ATOM      2  C   UNL     1       0.102  10.377  19.509  0.00  0.00    +0.000 A 
ATOM      3  C   UNL     1      -0.290  10.819  20.718  0.00  0.00    +0.000 A 
ATOM      4  C   UNL     1       0.198  10.049  21.890  0.00  0.00    +0.000 A 
ATOM      5  N   UNL     1       0.978   9.014  21.853  0.00  0.00    +0.000 NA
ATOM      6  C   UNL     1       1.364   8.605  20.613  0.00  0.00    +0.000 A 
ATOM      7  N   UNL     1       2.158   7.615  20.291  0.00  0.00    +0.000 NA
ATOM      8  C   UNL     1       2.169   7.607  18.917  0.00  0.00    +0.000 A 
ATOM      9  N   UNL     1       1.429   8.578  18.353  0.00  0.00    +0.000 NA
ATOM     10  N   UNL     1       0.927   9.241  19.438  0.00  0.00    +0.000 N 
ENDROOT
BRANCH   8  11
ATOM     11  C   UNL     1       2.972   6.535  18.208  0.00  0.00    +0.000 A 
ATOM     12  N   UNL     1       4.189   6.605  17.682  0.00  0.00    +0.000 NA
ATOM     13  C   UNL     1       4.354   5.351  17.131  0.00  0.00    +0.000 A 
ATOM     14  N   UNL     1       3.325   4.520  17.327  0.00  0.00    +0.000 NA
ATOM     15  O   UNL     1       2.412   5.291  18.022  0.00  0.00    +0.000 OA
BRANCH  13  16
ATOM     16  C   UNL     1       5.521   4.878  16.347  0.00  0.00    +0.000 C 
ATOM     17  C   UNL     1       5.441   4.950  14.839  0.00  0.00    +0.000 C 
ATOM     18  C   UNL     1       6.903   4.888  14.436  0.00  0.00    +0.000 C 
ATOM     19  O   UNL     1       7.672   5.438  15.514  0.00  0.00    +0.000 OA
ATOM     20  C   UNL     1       6.789   5.668  16.623  0.00  0.00    +0.000 C 
ENDBRANCH  13  16
ENDBRANCH   8  11
TORSDOF 2
ENDMDL
