MODEL 1
REMARK VINA RESULT:      -8.7      0.000      0.000
REMARK  Name = 
REMARK  7 active torsions:
REMARK  status: ('A' for Active; 'I' for Inactive)
REMARK    1  A    between atoms: C_1  and  N_2
REMARK    2  A    between atoms: N_5  and  C_6
REMARK    3  A    between atoms: C_9  and  S_10
REMARK    4  A    between atoms: S_10  and  C_13
REMARK    5  A    between atoms: C_16  and  C_17
REMARK    6  A    between atoms: C_17  and  N_18
REMARK    7  A    between atoms: C_19  and  C_21
REMARK                            x       y       z     vdW  Elec       q    Type
REMARK                         _______ _______ _______ _____ _____    ______ ____
ROOT
ATOM      1  C   UNL     1       1.046   9.528  19.775  0.00  0.00    +0.000 A 
ATOM      2  C   UNL     1       1.507   9.159  18.515  0.00  0.00    +0.000 A 
ATOM      3  C   UNL     1       2.144   7.928  18.369  0.00  0.00    +0.000 A 
ATOM      4  C   UNL     1       2.312   7.111  19.487  0.00  0.00    +0.000 A 
ATOM      5  N   UNL     1       1.836   7.455  20.715  0.00  0.00    +0.000 NA
ATOM      6  C   UNL     1       1.226   8.663  20.837  0.00  0.00    +0.000 A 
ENDROOT
BRANCH   1   7
ATOM      7  S   UNL     1       0.286  11.097  20.040  0.00  0.00    +0.000 S 
ATOM      8  O   UNL     1      -0.024  11.159  21.457  0.00  0.00    +0.000 OA
ATOM      9  O   UNL     1      -0.762  11.253  19.048  0.00  0.00    +0.000 OA
BRANCH   7  13
ATOM     10  C   UNL     1       3.419  14.338  19.111  0.00  0.00    +0.000 A 
ATOM     11  C   UNL     1       2.735  14.319  20.336  0.00  0.00    +0.000 A 
ATOM     12  C   UNL     1       1.773  13.342  20.631  0.00  0.00    +0.000 A 
ATOM     13  C   UNL     1       1.491  12.354  19.690  0.00  0.00    +0.000 A 
ATOM     14  C   UNL     1       2.133  12.353  18.455  0.00  0.00    +0.000 A 
ATOM     15  C   UNL     1       3.086  13.339  18.180  0.00  0.00    +0.000 A 
BRANCH  10  20
ATOM     16  C   UNL     1       7.976  17.525  19.254  0.00  0.00    +0.000 C 
ATOM     17  N   UNL     1       6.744  16.984  18.686  0.00  0.00    +0.000 NA
ATOM     18  C   UNL     1       5.586  17.288  19.560  0.00  0.00    +0.000 C 
ATOM     19  C   UNL     1       4.256  16.693  19.030  0.00  0.00    +0.000 C 
ATOM     20  N   UNL     1       4.420  15.245  18.832  0.00  0.00    +0.000 N 
ATOM     21  C   UNL     1       5.550  14.895  17.953  0.00  0.00    +0.000 C 
ATOM     22  C   UNL     1       6.851  15.517  18.512  0.00  0.00    +0.000 C 
ENDBRANCH  10  20
ENDBRANCH   7  13
ENDBRANCH   1   7
BRANCH   4  23
ATOM     23  C   UNL     1       3.068   5.807  19.375  0.00  0.00    +0.000 C 
BRANCH  23  24
ATOM     24  N   UNL     1       3.986   5.779  18.252  0.00  0.00    +0.000 N 
ATOM     25  C   UNL     1       4.830   4.721  18.028  0.00  0.00    +0.000 C 
ATOM     26  O   UNL     1       4.891   3.746  18.769  0.00  0.00    +0.000 OA
ATOM     27  H   UNL     1       3.916   6.557  17.613  0.00  0.00    +0.000 HD
BRANCH  25  28
ATOM     28  C   UNL     1       5.648   4.803  16.790  0.00  0.00    +0.000 A 
ATOM     29  C   UNL     1       6.881   5.628  16.618  0.00  0.00    +0.000 A 
ATOM     30  N   UNL     1       7.589   5.765  15.537  0.00  0.00    +0.000 NA
ATOM     31  C   UNL     1       7.160   5.062  14.450  0.00  0.00    +0.000 A 
ATOM     32  N   UNL     1       7.663   5.025  13.234  0.00  0.00    +0.000 NA
ATOM     33  C   UNL     1       6.875   4.161  12.521  0.00  0.00    +0.000 A 
ATOM     34  C   UNL     1       5.867   3.654  13.306  0.00  0.00    +0.000 A 
ATOM     35  N   UNL     1       6.043   4.232  14.535  0.00  0.00    +0.000 N 
ATOM     36  C   UNL     1       5.298   4.104  15.698  0.00  0.00    +0.000 A 
ENDBRANCH  25  28
ENDBRANCH  23  24
ENDBRANCH   4  23
TORSDOF 6
ENDMDL
MODEL 2
REMARK VINA RESULT:      -8.5      0.726      1.083
REMARK  Name = 
REMARK  7 active torsions:
REMARK  status: ('A' for Active; 'I' for Inactive)
REMARK    1  A    between atoms: C_1  and  N_2
REMARK    2  A    between atoms: N_5  and  C_6
REMARK    3  A    between atoms: C_9  and  S_10
REMARK    4  A    between atoms: S_10  and  C_13
REMARK    5  A    between atoms: C_16  and  C_17
REMARK    6  A    between atoms: C_17  and  N_18
REMARK    7  A    between atoms: C_19  and  C_21
REMARK                            x       y       z     vdW  Elec       q    Type
REMARK                         _______ _______ _______ _____ _____    ______ ____
ROOT
ATOM      1  C   UNL     1       0.775   9.927  19.475  0.00  0.00    +0.000 A 
ATOM      2  C   UNL     1       1.337   9.453  18.293  0.00  0.00    +0.000 A 
ATOM      3  C   UNL     1       2.003   8.229  18.312  0.00  0.00    +0.000 A 
ATOM      4  C   UNL     1       2.097   7.523  19.512  0.00  0.00    +0.000 A 
ATOM      5  N   UNL     1       1.524   7.969  20.663  0.00  0.00    +0.000 NA
ATOM      6  C   UNL     1       0.887   9.168  20.624  0.00  0.00    +0.000 A 
ENDROOT
BRANCH   1   7
ATOM      7  S   UNL     1      -0.029  11.495  19.533  0.00  0.00    +0.000 S 
ATOM      8  O   UNL     1      -0.662  11.574  20.837  0.00  0.00    +0.000 OA
ATOM      9  O   UNL     1      -0.815  11.634  18.322  0.00  0.00    +0.000 OA
BRANCH   7  13
ATOM     10  C   UNL     1       3.207  14.764  19.367  0.00  0.00    +0.000 A 
ATOM     11  C   UNL     1       2.883  14.005  18.233  0.00  0.00    +0.000 A 
ATOM     12  C   UNL     1       1.905  13.002  18.269  0.00  0.00    +0.000 A 
ATOM     13  C   UNL     1       1.223  12.753  19.460  0.00  0.00    +0.000 A 
ATOM     14  C   UNL     1       1.533  13.470  20.611  0.00  0.00    +0.000 A 
ATOM     15  C   UNL     1       2.516  14.464  20.554  0.00  0.00    +0.000 A 
BRANCH  10  20
ATOM     16  C   UNL     1       7.580  18.110  20.160  0.00  0.00    +0.000 C 
ATOM     17  N   UNL     1       6.305  17.696  19.580  0.00  0.00    +0.000 NA
ATOM     18  C   UNL     1       5.275  17.542  20.634  0.00  0.00    +0.000 C 
ATOM     19  C   UNL     1       3.911  17.055  20.080  0.00  0.00    +0.000 C 
ATOM     20  N   UNL     1       4.112  15.804  19.333  0.00  0.00    +0.000 N 
ATOM     21  C   UNL     1       5.117  15.914  18.261  0.00  0.00    +0.000 C 
ATOM     22  C   UNL     1       6.455  16.412  18.855  0.00  0.00    +0.000 C 
ENDBRANCH  10  20
ENDBRANCH   7  13
ENDBRANCH   1   7
BRANCH   4  23
ATOM     23  C   UNL     1       2.881   6.232  19.580  0.00  0.00    +0.000 C 
BRANCH  23  24
ATOM     24  N   UNL     1       3.905   6.136  18.556  0.00  0.00    +0.000 N 
ATOM     25  C   UNL     1       4.217   4.946  17.950  0.00  0.00    +0.000 C 
ATOM     26  O   UNL     1       3.682   3.883  18.245  0.00  0.00    +0.000 OA
ATOM     27  H   UNL     1       4.324   7.010  18.276  0.00  0.00    +0.000 HD
BRANCH  25  28
ATOM     28  C   UNL     1       5.227   5.026  16.862  0.00  0.00    +0.000 A 
ATOM     29  C   UNL     1       6.450   5.883  16.875  0.00  0.00    +0.000 A 
ATOM     30  N   UNL     1       7.324   6.018  15.923  0.00  0.00    +0.000 NA
ATOM     31  C   UNL     1       7.100   5.279  14.798  0.00  0.00    +0.000 A 
ATOM     32  N   UNL     1       7.799   5.231  13.684  0.00  0.00    +0.000 NA
ATOM     33  C   UNL     1       7.163   4.329  12.873  0.00  0.00    +0.000 A 
ATOM     34  C   UNL     1       6.052   3.809  13.493  0.00  0.00    +0.000 A 
ATOM     35  N   UNL     1       6.006   4.419  14.720  0.00  0.00    +0.000 N 
ATOM     36  C   UNL     1       5.082   4.293  15.746  0.00  0.00    +0.000 A 
ENDBRANCH  25  28
ENDBRANCH  23  24
ENDBRANCH   4  23
TORSDOF 6
ENDMDL
MODEL 3
REMARK VINA RESULT:      -8.5      3.090      9.233
REMARK  Name = 
REMARK  7 active torsions:
REMARK  status: ('A' for Active; 'I' for Inactive)
REMARK    1  A    between atoms: C_1  and  N_2
REMARK    2  A    between atoms: N_5  and  C_6
REMARK    3  A    between atoms: C_9  and  S_10
REMARK    4  A    between atoms: S_10  and  C_13
REMARK    5  A    between atoms: C_16  and  C_17
REMARK    6  A    between atoms: C_17  and  N_18
REMARK    7  A    between atoms: C_19  and  C_21
REMARK                            x       y       z     vdW  Elec       q    Type
REMARK                         _______ _______ _______ _____ _____    ______ ____
ROOT
ATOM      1  C   UNL     1       1.465  12.511  19.435  0.00  0.00    +0.000 A 
ATOM      2  C   UNL     1       1.805  13.135  18.239  0.00  0.00    +0.000 A 
ATOM      3  C   UNL     1       2.760  14.150  18.260  0.00  0.00    +0.000 A 
ATOM      4  C   UNL     1       3.336  14.517  19.476  0.00  0.00    +0.000 A 
ATOM      5  N   UNL     1       3.029  13.890  20.644  0.00  0.00    +0.000 NA
ATOM      6  C   UNL     1       2.089  12.910  20.602  0.00  0.00    +0.000 A 
ENDROOT
BRANCH   1   7
ATOM      7  S   UNL     1       0.222  11.262  19.487  0.00  0.00    +0.000 S 
ATOM      8  O   UNL     1      -0.563  11.426  18.277  0.00  0.00    +0.000 OA
ATOM      9  O   UNL     1      -0.412  11.323  20.791  0.00  0.00    +0.000 OA
BRANCH   7  13
ATOM     10  C   UNL     1       2.316   7.171  19.237  0.00  0.00    +0.000 A 
ATOM     11  C   UNL     1       1.771   7.635  20.444  0.00  0.00    +0.000 A 
ATOM     12  C   UNL     1       1.136   8.882  20.538  0.00  0.00    +0.000 A 
ATOM     13  C   UNL     1       1.030   9.683  19.402  0.00  0.00    +0.000 A 
ATOM     14  C   UNL     1       1.579   9.266  18.193  0.00  0.00    +0.000 A 
ATOM     15  C   UNL     1       2.212   8.021  18.122  0.00  0.00    +0.000 A 
BRANCH  10  20
ATOM     16  C   UNL     1       3.358   1.853  17.982  0.00  0.00    +0.000 C 
ATOM     17  N   UNL     1       3.639   3.170  18.549  0.00  0.00    +0.000 NA
ATOM     18  C   UNL     1       2.644   3.515  19.591  0.00  0.00    +0.000 C 
ATOM     19  C   UNL     1       2.864   4.927  20.193  0.00  0.00    +0.000 C 
ATOM     20  N   UNL     1       2.878   5.919  19.107  0.00  0.00    +0.000 N 
ATOM     21  C   UNL     1       3.867   5.625  18.055  0.00  0.00    +0.000 C 
ATOM     22  C   UNL     1       3.617   4.207  17.492  0.00  0.00    +0.000 C 
ENDBRANCH  10  20
ENDBRANCH   7  13
ENDBRANCH   1   7
BRANCH   4  23
ATOM     23  C   UNL     1       4.316  15.667  19.541  0.00  0.00    +0.000 C 
BRANCH  23  24
ATOM     24  N   UNL     1       5.687  15.234  19.734  0.00  0.00    +0.000 N 
ATOM     25  C   UNL     1       6.489  14.869  18.683  0.00  0.00    +0.000 C 
ATOM     26  O   UNL     1       6.102  14.855  17.519  0.00  0.00    +0.000 OA
ATOM     27  H   UNL     1       6.029  15.279  20.682  0.00  0.00    +0.000 HD
BRANCH  25  28
ATOM     28  C   UNL     1       7.893  14.531  19.034  0.00  0.00    +0.000 A 
ATOM     29  C   UNL     1       8.603  14.957  20.276  0.00  0.00    +0.000 A 
ATOM     30  N   UNL     1       9.842  14.724  20.591  0.00  0.00    +0.000 NA
ATOM     31  C   UNL     1      10.561  13.998  19.688  0.00  0.00    +0.000 A 
ATOM     32  N   UNL     1      11.826  13.634  19.733  0.00  0.00    +0.000 NA
ATOM     33  C   UNL     1      12.055  12.911  18.593  0.00  0.00    +0.000 A 
ATOM     34  C   UNL     1      10.916  12.824  17.828  0.00  0.00    +0.000 A 
ATOM     35  N   UNL     1       9.963  13.522  18.522  0.00  0.00    +0.000 N 
ATOM     36  C   UNL     1       8.639  13.786  18.203  0.00  0.00    +0.000 A 
ENDBRANCH  25  28
ENDBRANCH  23  24
ENDBRANCH   4  23
TORSDOF 6
ENDMDL
MODEL 4
REMARK VINA RESULT:      -8.4      1.613      2.189
REMARK  Name = 
REMARK  7 active torsions:
REMARK  status: ('A' for Active; 'I' for Inactive)
REMARK    1  A    between atoms: C_1  and  N_2
REMARK    2  A    between atoms: N_5  and  C_6
REMARK    3  A    between atoms: C_9  and  S_10
REMARK    4  A    between atoms: S_10  and  C_13
REMARK    5  A    between atoms: C_16  and  C_17
REMARK    6  A    between atoms: C_17  and  N_18
REMARK    7  A    between atoms: C_19  and  C_21
REMARK                            x       y       z     vdW  Elec       q    Type
REMARK                         _______ _______ _______ _____ _____    ______ ____
ROOT
ATOM      1  C   UNL     1       0.953  11.451  19.622  0.00  0.00    +0.000 A 
ATOM      2  C   UNL     1       1.313  10.706  18.503  0.00  0.00    +0.000 A 
ATOM      3  C   UNL     1       1.538   9.339  18.652  0.00  0.00    +0.000 A 
ATOM      4  C   UNL     1       1.409   8.761  19.916  0.00  0.00    +0.000 A 
ATOM      5  N   UNL     1       1.028   9.480  21.007  0.00  0.00    +0.000 NA
ATOM      6  C   UNL     1       0.822  10.812  20.841  0.00  0.00    +0.000 A 
ENDROOT
BRANCH   1   7
ATOM      7  S   UNL     1       0.714  13.194  19.514  0.00  0.00    +0.000 S 
ATOM      8  O   UNL     1       0.205  13.611  20.809  0.00  0.00    +0.000 OA
ATOM      9  O   UNL     1      -0.041  13.462  18.304  0.00  0.00    +0.000 OA
BRANCH   7  13
ATOM     10  C   UNL     1       4.834  15.149  18.891  0.00  0.00    +0.000 A 
ATOM     11  C   UNL     1       4.379  14.807  20.173  0.00  0.00    +0.000 A 
ATOM     12  C   UNL     1       3.124  14.217  20.380  0.00  0.00    +0.000 A 
ATOM     13  C   UNL     1       2.304  13.950  19.285  0.00  0.00    +0.000 A 
ATOM     14  C   UNL     1       2.712  14.296  18.000  0.00  0.00    +0.000 A 
ATOM     15  C   UNL     1       3.966  14.888  17.816  0.00  0.00    +0.000 A 
BRANCH  10  20
ATOM     16  C   UNL     1      10.198  16.580  19.232  0.00  0.00    +0.000 C 
ATOM     17  N   UNL     1       8.875  16.500  18.618  0.00  0.00    +0.000 NA
ATOM     18  C   UNL     1       7.862  17.172  19.466  0.00  0.00    +0.000 C 
ATOM     19  C   UNL     1       6.428  17.075  18.886  0.00  0.00    +0.000 C 
ATOM     20  N   UNL     1       6.093  15.661  18.660  0.00  0.00    +0.000 N 
ATOM     21  C   UNL     1       7.065  14.955  17.806  0.00  0.00    +0.000 C 
ATOM     22  C   UNL     1       8.480  15.087  18.415  0.00  0.00    +0.000 C 
ENDBRANCH  10  20
ENDBRANCH   7  13
ENDBRANCH   1   7
BRANCH   4  23
ATOM     23  C   UNL     1       1.723   7.297  20.123  0.00  0.00    +0.000 C 
BRANCH  23  24
ATOM     24  N   UNL     1       2.891   6.858  19.383  0.00  0.00    +0.000 N 
ATOM     25  C   UNL     1       3.448   5.618  19.571  0.00  0.00    +0.000 C 
ATOM     26  O   UNL     1       3.022   4.810  20.390  0.00  0.00    +0.000 OA
ATOM     27  H   UNL     1       3.226   7.497  18.678  0.00  0.00    +0.000 HD
BRANCH  25  28
ATOM     28  C   UNL     1       4.588   5.285  18.677  0.00  0.00    +0.000 A 
ATOM     29  C   UNL     1       5.938   4.833  19.127  0.00  0.00    +0.000 A 
ATOM     30  N   UNL     1       6.971   4.584  18.379  0.00  0.00    +0.000 NA
ATOM     31  C   UNL     1       6.789   4.741  17.037  0.00  0.00    +0.000 A 
ATOM     32  N   UNL     1       7.653   4.581  16.057  0.00  0.00    +0.000 NA
ATOM     33  C   UNL     1       6.971   4.848  14.900  0.00  0.00    +0.000 A 
ATOM     34  C   UNL     1       5.664   5.178  15.165  0.00  0.00    +0.000 A 
ATOM     35  N   UNL     1       5.546   5.117  16.528  0.00  0.00    +0.000 N 
ATOM     36  C   UNL     1       4.457   5.383  17.344  0.00  0.00    +0.000 A 
ENDBRANCH  25  28
ENDBRANCH  23  24
ENDBRANCH   4  23
TORSDOF 6
ENDMDL
MODEL 5
REMARK VINA RESULT:      -8.3      3.246      9.188
REMARK  Name = 
REMARK  7 active torsions:
REMARK  status: ('A' for Active; 'I' for Inactive)
REMARK    1  A    between atoms: C_1  and  N_2
REMARK    2  A    between atoms: N_5  and  C_6
REMARK    3  A    between atoms: C_9  and  S_10
REMARK    4  A    between atoms: S_10  and  C_13
REMARK    5  A    between atoms: C_16  and  C_17
REMARK    6  A    between atoms: C_17  and  N_18
REMARK    7  A    between atoms: C_19  and  C_21
REMARK                            x       y       z     vdW  Elec       q    Type
REMARK                         _______ _______ _______ _____ _____    ______ ____
ROOT
ATOM      1  C   UNL     1       1.883  12.626  19.600  0.00  0.00    +0.000 A 
ATOM      2  C   UNL     1       2.301  12.820  18.287  0.00  0.00    +0.000 A 
ATOM      3  C   UNL     1       3.260  13.798  18.028  0.00  0.00    +0.000 A 
ATOM      4  C   UNL     1       3.760  14.559  19.085  0.00  0.00    +0.000 A 
ATOM      5  N   UNL     1       3.376  14.352  20.374  0.00  0.00    +0.000 NA
ATOM      6  C   UNL     1       2.435  13.400  20.603  0.00  0.00    +0.000 A 
ENDROOT
BRANCH   1   7
ATOM      7  S   UNL     1       0.630  11.448  19.989  0.00  0.00    +0.000 S 
ATOM      8  O   UNL     1      -0.483  11.738  19.103  0.00  0.00    +0.000 OA
ATOM      9  O   UNL     1       0.449  11.454  21.428  0.00  0.00    +0.000 OA
BRANCH   7  13
ATOM     10  C   UNL     1       2.240   7.264  18.942  0.00  0.00    +0.000 A 
ATOM     11  C   UNL     1       2.108   8.258  17.961  0.00  0.00    +0.000 A 
ATOM     12  C   UNL     1       1.613   9.535  18.263  0.00  0.00    +0.000 A 
ATOM     13  C   UNL     1       1.250   9.836  19.574  0.00  0.00    +0.000 A 
ATOM     14  C   UNL     1       1.346   8.868  20.570  0.00  0.00    +0.000 A 
ATOM     15  C   UNL     1       1.837   7.600  20.247  0.00  0.00    +0.000 A 
BRANCH  10  20
ATOM     16  C   UNL     1       4.022   2.003  19.239  0.00  0.00    +0.000 C 
ATOM     17  N   UNL     1       3.786   3.298  18.605  0.00  0.00    +0.000 NA
ATOM     18  C   UNL     1       4.497   4.375  19.333  0.00  0.00    +0.000 C 
ATOM     19  C   UNL     1       4.242   5.781  18.732  0.00  0.00    +0.000 C 
ATOM     20  N   UNL     1       2.793   6.028  18.681  0.00  0.00    +0.000 N 
ATOM     21  C   UNL     1       2.044   4.990  17.950  0.00  0.00    +0.000 C 
ATOM     22  C   UNL     1       2.337   3.606  18.575  0.00  0.00    +0.000 C 
ENDBRANCH  10  20
ENDBRANCH   7  13
ENDBRANCH   1   7
BRANCH   4  23
ATOM     23  C   UNL     1       4.741  15.679  18.823  0.00  0.00    +0.000 C 
BRANCH  23  24
ATOM     24  N   UNL     1       6.072  15.202  18.495  0.00  0.00    +0.000 N 
ATOM     25  C   UNL     1       6.999  14.910  19.462  0.00  0.00    +0.000 C 
ATOM     26  O   UNL     1       6.785  15.055  20.661  0.00  0.00    +0.000 OA
ATOM     27  H   UNL     1       6.247  15.040  17.515  0.00  0.00    +0.000 HD
BRANCH  25  28
ATOM     28  C   UNL     1       8.286  14.352  18.970  0.00  0.00    +0.000 A 
ATOM     29  C   UNL     1       8.780  12.965  19.216  0.00  0.00    +0.000 A 
ATOM     30  N   UNL     1       9.920  12.461  18.847  0.00  0.00    +0.000 NA
ATOM     31  C   UNL     1      10.742  13.294  18.145  0.00  0.00    +0.000 A 
ATOM     32  N   UNL     1      11.947  13.063  17.669  0.00  0.00    +0.000 NA
ATOM     33  C   UNL     1      12.333  14.215  17.036  0.00  0.00    +0.000 A 
ATOM     34  C   UNL     1      11.354  15.175  17.121  0.00  0.00    +0.000 A 
ATOM     35  N   UNL     1      10.339  14.592  17.834  0.00  0.00    +0.000 N 
ATOM     36  C   UNL     1       9.120  15.112  18.241  0.00  0.00    +0.000 A 
ENDBRANCH  25  28
ENDBRANCH  23  24
ENDBRANCH   4  23
TORSDOF 6
ENDMDL
MODEL 6
REMARK VINA RESULT:      -8.3      3.289      9.345
REMARK  Name = 
REMARK  7 active torsions:
REMARK  status: ('A' for Active; 'I' for Inactive)
REMARK    1  A    between atoms: C_1  and  N_2
REMARK    2  A    between atoms: N_5  and  C_6
REMARK    3  A    between atoms: C_9  and  S_10
REMARK    4  A    between atoms: S_10  and  C_13
REMARK    5  A    between atoms: C_16  and  C_17
REMARK    6  A    between atoms: C_17  and  N_18
REMARK    7  A    between atoms: C_19  and  C_21
REMARK                            x       y       z     vdW  Elec       q    Type
REMARK                         _______ _______ _______ _____ _____    ______ ____
ROOT
ATOM      1  C   UNL     1       1.194  12.255  19.824  0.00  0.00    +0.000 A 
ATOM      2  C   UNL     1       0.761  12.719  18.585  0.00  0.00    +0.000 A 
ATOM      3  C   UNL     1       1.442  13.783  17.994  0.00  0.00    +0.000 A 
ATOM      4  C   UNL     1       2.523  14.356  18.664  0.00  0.00    +0.000 A 
ATOM      5  N   UNL     1       2.968  13.886  19.861  0.00  0.00    +0.000 NA
ATOM      6  C   UNL     1       2.285  12.854  20.423  0.00  0.00    +0.000 A 
ENDROOT
BRANCH   1   7
ATOM      7  S   UNL     1       0.341  10.954  20.654  0.00  0.00    +0.000 S 
ATOM      8  O   UNL     1      -1.020  10.979  20.148  0.00  0.00    +0.000 OA
ATOM      9  O   UNL     1       0.603  11.090  22.074  0.00  0.00    +0.000 OA
BRANCH   7  13
ATOM     10  C   UNL     1       2.249   6.976  19.343  0.00  0.00    +0.000 A 
ATOM     11  C   UNL     1       1.736   7.143  20.637  0.00  0.00    +0.000 A 
ATOM     12  C   UNL     1       1.158   8.350  21.054  0.00  0.00    +0.000 A 
ATOM     13  C   UNL     1       1.077   9.416  20.158  0.00  0.00    +0.000 A 
ATOM     14  C   UNL     1       1.596   9.294  18.872  0.00  0.00    +0.000 A 
ATOM     15  C   UNL     1       2.172   8.083  18.479  0.00  0.00    +0.000 A 
BRANCH  10  20
ATOM     16  C   UNL     1       3.646   1.627  18.723  0.00  0.00    +0.000 C 
ATOM     17  N   UNL     1       3.575   3.039  18.355  0.00  0.00    +0.000 NA
ATOM     18  C   UNL     1       4.252   3.880  19.370  0.00  0.00    +0.000 C 
ATOM     19  C   UNL     1       4.165   5.396  19.054  0.00  0.00    +0.000 C 
ATOM     20  N   UNL     1       2.753   5.774  18.891  0.00  0.00    +0.000 N 
ATOM     21  C   UNL     1       2.042   4.975  17.877  0.00  0.00    +0.000 C 
ATOM     22  C   UNL     1       2.165   3.473  18.225  0.00  0.00    +0.000 C 
ENDBRANCH  10  20
ENDBRANCH   7  13
ENDBRANCH   1   7
BRANCH   4  23
ATOM     23  C   UNL     1       3.230  15.560  18.084  0.00  0.00    +0.000 C 
BRANCH  23  24
ATOM     24  N   UNL     1       4.652  15.345  17.892  0.00  0.00    +0.000 N 
ATOM     25  C   UNL     1       5.594  15.966  18.672  0.00  0.00    +0.000 C 
ATOM     26  O   UNL     1       5.308  16.762  19.560  0.00  0.00    +0.000 OA
ATOM     27  H   UNL     1       4.899  14.661  17.192  0.00  0.00    +0.000 HD
BRANCH  25  28
ATOM     28  C   UNL     1       7.004  15.578  18.408  0.00  0.00    +0.000 A 
ATOM     29  C   UNL     1       8.144  16.524  18.222  0.00  0.00    +0.000 A 
ATOM     30  N   UNL     1       9.375  16.223  17.938  0.00  0.00    +0.000 NA
ATOM     31  C   UNL     1       9.651  14.893  17.813  0.00  0.00    +0.000 A 
ATOM     32  N   UNL     1      10.791  14.306  17.514  0.00  0.00    +0.000 NA
ATOM     33  C   UNL     1      10.541  12.959  17.527  0.00  0.00    +0.000 A 
ATOM     34  C   UNL     1       9.227  12.706  17.838  0.00  0.00    +0.000 A 
ATOM     35  N   UNL     1       8.655  13.939  18.015  0.00  0.00    +0.000 N 
ATOM     36  C   UNL     1       7.344  14.282  18.313  0.00  0.00    +0.000 A 
ENDBRANCH  25  28
ENDBRANCH  23  24
ENDBRANCH   4  23
TORSDOF 6
ENDMDL
MODEL 7
REMARK VINA RESULT:      -8.3      3.278      9.262
REMARK  Name = 
REMARK  7 active torsions:
REMARK  status: ('A' for Active; 'I' for Inactive)
REMARK    1  A    between atoms: C_1  and  N_2
REMARK    2  A    between atoms: N_5  and  C_6
REMARK    3  A    between atoms: C_9  and  S_10
REMARK    4  A    between atoms: S_10  and  C_13
REMARK    5  A    between atoms: C_16  and  C_17
REMARK    6  A    between atoms: C_17  and  N_18
REMARK    7  A    between atoms: C_19  and  C_21
REMARK                            x       y       z     vdW  Elec       q    Type
REMARK                         _______ _______ _______ _____ _____    ______ ____
ROOT
ATOM      1  C   UNL     1       0.902  13.130  20.184  0.00  0.00    +0.000 A 
ATOM      2  C   UNL     1       2.270  13.135  20.442  0.00  0.00    +0.000 A 
ATOM      3  C   UNL     1       3.055  14.135  19.872  0.00  0.00    +0.000 A 
ATOM      4  C   UNL     1       2.452  15.090  19.052  0.00  0.00    +0.000 A 
ATOM      5  N   UNL     1       1.111  15.106  18.821  0.00  0.00    +0.000 NA
ATOM      6  C   UNL     1       0.366  14.117  19.380  0.00  0.00    +0.000 A 
ENDROOT
BRANCH   1   7
ATOM      7  S   UNL     1      -0.138  11.859  20.826  0.00  0.00    +0.000 S 
ATOM      8  O   UNL     1      -1.374  11.930  20.067  0.00  0.00    +0.000 OA
ATOM      9  O   UNL     1      -0.152  11.987  22.271  0.00  0.00    +0.000 OA
BRANCH   7  13
ATOM     10  C   UNL     1       1.846   7.813  19.884  0.00  0.00    +0.000 A 
ATOM     11  C   UNL     1       1.482   8.156  21.195  0.00  0.00    +0.000 A 
ATOM     12  C   UNL     1       0.883   9.387  21.499  0.00  0.00    +0.000 A 
ATOM     13  C   UNL     1       0.629  10.296  20.473  0.00  0.00    +0.000 A 
ATOM     14  C   UNL     1       0.996  10.000  19.164  0.00  0.00    +0.000 A 
ATOM     15  C   UNL     1       1.597   8.769  18.883  0.00  0.00    +0.000 A 
BRANCH  10  20
ATOM     16  C   UNL     1       2.920   2.888  17.533  0.00  0.00    +0.000 C 
ATOM     17  N   UNL     1       3.117   3.989  18.472  0.00  0.00    +0.000 NA
ATOM     18  C   UNL     1       1.920   4.169  19.327  0.00  0.00    +0.000 C 
ATOM     19  C   UNL     1       2.054   5.359  20.312  0.00  0.00    +0.000 C 
ATOM     20  N   UNL     1       2.367   6.580  19.555  0.00  0.00    +0.000 N 
ATOM     21  C   UNL     1       3.562   6.454  18.702  0.00  0.00    +0.000 C 
ATOM     22  C   UNL     1       3.390   5.251  17.746  0.00  0.00    +0.000 C 
ENDBRANCH  10  20
ENDBRANCH   7  13
ENDBRANCH   1   7
BRANCH   4  23
ATOM     23  C   UNL     1       3.290  16.138  18.356  0.00  0.00    +0.000 C 
BRANCH  23  24
ATOM     24  N   UNL     1       4.669  15.728  18.167  0.00  0.00    +0.000 N 
ATOM     25  C   UNL     1       5.721  16.488  18.609  0.00  0.00    +0.000 C 
ATOM     26  O   UNL     1       5.577  17.572  19.166  0.00  0.00    +0.000 OA
ATOM     27  H   UNL     1       4.799  14.820  17.747  0.00  0.00    +0.000 HD
BRANCH  25  28
ATOM     28  C   UNL     1       7.070  15.893  18.415  0.00  0.00    +0.000 A 
ATOM     29  C   UNL     1       8.359  16.646  18.417  0.00  0.00    +0.000 A 
ATOM     30  N   UNL     1       9.547  16.168  18.199  0.00  0.00    +0.000 NA
ATOM     31  C   UNL     1       9.616  14.827  17.958  0.00  0.00    +0.000 A 
ATOM     32  N   UNL     1      10.670  14.085  17.689  0.00  0.00    +0.000 NA
ATOM     33  C   UNL     1      10.207  12.805  17.542  0.00  0.00    +0.000 A 
ATOM     34  C   UNL     1       8.845  12.750  17.723  0.00  0.00    +0.000 A 
ATOM     35  N   UNL     1       8.465  14.041  17.982  0.00  0.00    +0.000 N 
ATOM     36  C   UNL     1       7.205  14.572  18.212  0.00  0.00    +0.000 A 
ENDBRANCH  25  28
ENDBRANCH  23  24
ENDBRANCH   4  23
TORSDOF 6
ENDMDL
MODEL 8
REMARK VINA RESULT:      -8.2      3.114      9.129
REMARK  Name = 
REMARK  7 active torsions:
REMARK  status: ('A' for Active; 'I' for Inactive)
REMARK    1  A    between atoms: C_1  and  N_2
REMARK    2  A    between atoms: N_5  and  C_6
REMARK    3  A    between atoms: C_9  and  S_10
REMARK    4  A    between atoms: S_10  and  C_13
REMARK    5  A    between atoms: C_16  and  C_17
REMARK    6  A    between atoms: C_17  and  N_18
REMARK    7  A    between atoms: C_19  and  C_21
REMARK                            x       y       z     vdW  Elec       q    Type
REMARK                         _______ _______ _______ _____ _____    ______ ____
ROOT
ATOM      1  C   UNL     1       0.872  12.844  19.613  0.00  0.00    +0.000 A 
ATOM      2  C   UNL     1       1.959  12.766  20.478  0.00  0.00    +0.000 A 
ATOM      3  C   UNL     1       2.860  13.829  20.519  0.00  0.00    +0.000 A 
ATOM      4  C   UNL     1       2.654  14.929  19.686  0.00  0.00    +0.000 A 
ATOM      5  N   UNL     1       1.576  15.022  18.860  0.00  0.00    +0.000 NA
ATOM      6  C   UNL     1       0.715  13.972  18.830  0.00  0.00    +0.000 A 
ENDROOT
BRANCH   1   7
ATOM      7  S   UNL     1      -0.270  11.509  19.469  0.00  0.00    +0.000 S 
ATOM      8  O   UNL     1      -0.944  11.692  18.196  0.00  0.00    +0.000 OA
ATOM      9  O   UNL     1      -1.031  11.443  20.703  0.00  0.00    +0.000 OA
BRANCH   7  13
ATOM     10  C   UNL     1       2.145   7.600  19.210  0.00  0.00    +0.000 A 
ATOM     11  C   UNL     1       1.571   8.019  20.419  0.00  0.00    +0.000 A 
ATOM     12  C   UNL     1       0.838   9.210  20.515  0.00  0.00    +0.000 A 
ATOM     13  C   UNL     1       0.662  10.000  19.380  0.00  0.00    +0.000 A 
ATOM     14  C   UNL     1       1.237   9.627  18.168  0.00  0.00    +0.000 A 
ATOM     15  C   UNL     1       1.968   8.438  18.095  0.00  0.00    +0.000 A 
BRANCH  10  20
ATOM     16  C   UNL     1       3.618   2.391  17.925  0.00  0.00    +0.000 C 
ATOM     17  N   UNL     1       3.787   3.721  18.507  0.00  0.00    +0.000 NA
ATOM     18  C   UNL     1       2.754   3.977  19.538  0.00  0.00    +0.000 C 
ATOM     19  C   UNL     1       2.856   5.396  20.155  0.00  0.00    +0.000 C 
ATOM     20  N   UNL     1       2.806   6.396  19.077  0.00  0.00    +0.000 N 
ATOM     21  C   UNL     1       3.828   6.191  18.036  0.00  0.00    +0.000 C 
ATOM     22  C   UNL     1       3.697   4.763  17.458  0.00  0.00    +0.000 C 
ENDBRANCH  10  20
ENDBRANCH   7  13
ENDBRANCH   1   7
BRANCH   4  23
ATOM     23  C   UNL     1       3.656  16.060  19.651  0.00  0.00    +0.000 C 
BRANCH  23  24
ATOM     24  N   UNL     1       5.029  15.605  19.766  0.00  0.00    +0.000 N 
ATOM     25  C   UNL     1       5.730  15.128  18.688  0.00  0.00    +0.000 C 
ATOM     26  O   UNL     1       5.244  15.024  17.566  0.00  0.00    +0.000 OA
ATOM     27  H   UNL     1       5.452  15.723  20.674  0.00  0.00    +0.000 HD
BRANCH  25  28
ATOM     28  C   UNL     1       7.151  14.780  18.949  0.00  0.00    +0.000 A 
ATOM     29  C   UNL     1       7.924  15.151  20.172  0.00  0.00    +0.000 A 
ATOM     30  N   UNL     1       9.178  14.910  20.410  0.00  0.00    +0.000 NA
ATOM     31  C   UNL     1       9.851  14.230  19.438  0.00  0.00    +0.000 A 
ATOM     32  N   UNL     1      11.117  13.872  19.400  0.00  0.00    +0.000 NA
ATOM     33  C   UNL     1      11.289  13.204  18.216  0.00  0.00    +0.000 A 
ATOM     34  C   UNL     1      10.112  13.147  17.509  0.00  0.00    +0.000 A 
ATOM     35  N   UNL     1       9.194  13.808  18.283  0.00  0.00    +0.000 N 
ATOM     36  C   UNL     1       7.855  14.079  18.046  0.00  0.00    +0.000 A 
ENDBRANCH  25  28
ENDBRANCH  23  24
ENDBRANCH   4  23
TORSDOF 6
ENDMDL
MODEL 9
REMARK VINA RESULT:      -8.2      4.395      6.038
REMARK  Name = 
REMARK  7 active torsions:
REMARK  status: ('A' for Active; 'I' for Inactive)
REMARK    1  A    between atoms: C_1  and  N_2
REMARK    2  A    between atoms: N_5  and  C_6
REMARK    3  A    between atoms: C_9  and  S_10
REMARK    4  A    between atoms: S_10  and  C_13
REMARK    5  A    between atoms: C_16  and  C_17
REMARK    6  A    between atoms: C_17  and  N_18
REMARK    7  A    between atoms: C_19  and  C_21
REMARK                            x       y       z     vdW  Elec       q    Type
REMARK                         _______ _______ _______ _____ _____    ______ ____
ROOT
ATOM      1  C   UNL     1       0.539  11.093  19.658  0.00  0.00    +0.000 A 
ATOM      2  C   UNL     1       0.491  10.738  21.003  0.00  0.00    +0.000 A 
ATOM      3  C   UNL     1       0.884   9.452  21.371  0.00  0.00    +0.000 A 
ATOM      4  C   UNL     1       1.301   8.559  20.384  0.00  0.00    +0.000 A 
ATOM      5  N   UNL     1       1.378   8.911  19.072  0.00  0.00    +0.000 NA
ATOM      6  C   UNL     1       0.982  10.166  18.734  0.00  0.00    +0.000 A 
ENDROOT
BRANCH   1   7
ATOM      7  S   UNL     1      -0.001  12.682  19.119  0.00  0.00    +0.000 S 
ATOM      8  O   UNL     1      -0.946  12.441  18.043  0.00  0.00    +0.000 OA
ATOM      9  O   UNL     1       1.179  13.497  18.896  0.00  0.00    +0.000 OA
BRANCH   7  13
ATOM     10  C   UNL     1      -2.314  14.644  22.581  0.00  0.00    +0.000 A 
ATOM     11  C   UNL     1      -0.953  14.914  22.372  0.00  0.00    +0.000 A 
ATOM     12  C   UNL     1      -0.233  14.319  21.326  0.00  0.00    +0.000 A 
ATOM     13  C   UNL     1      -0.884  13.442  20.459  0.00  0.00    +0.000 A 
ATOM     14  C   UNL     1      -2.228  13.133  20.649  0.00  0.00    +0.000 A 
ATOM     15  C   UNL     1      -2.926  13.734  21.701  0.00  0.00    +0.000 A 
BRANCH  10  20
ATOM     16  C   UNL     1      -5.180  18.318  25.619  0.00  0.00    +0.000 C 
ATOM     17  N   UNL     1      -4.605  17.015  25.295  0.00  0.00    +0.000 NA
ATOM     18  C   UNL     1      -3.128  17.101  25.207  0.00  0.00    +0.000 C 
ATOM     19  C   UNL     1      -2.466  15.755  24.816  0.00  0.00    +0.000 C 
ATOM     20  N   UNL     1      -3.056  15.274  23.557  0.00  0.00    +0.000 N 
ATOM     21  C   UNL     1      -4.524  15.156  23.602  0.00  0.00    +0.000 C 
ATOM     22  C   UNL     1      -5.140  16.516  24.007  0.00  0.00    +0.000 C 
ENDBRANCH  10  20
ENDBRANCH   7  13
ENDBRANCH   1   7
BRANCH   4  23
ATOM     23  C   UNL     1       1.657   7.134  20.743  0.00  0.00    +0.000 C 
BRANCH  23  24
ATOM     24  N   UNL     1       2.839   6.654  20.052  0.00  0.00    +0.000 N 
ATOM     25  C   UNL     1       2.836   5.488  19.330  0.00  0.00    +0.000 C 
ATOM     26  O   UNL     1       1.854   4.759  19.240  0.00  0.00    +0.000 OA
ATOM     27  H   UNL     1       3.641   7.265  20.085  0.00  0.00    +0.000 HD
BRANCH  25  28
ATOM     28  C   UNL     1       4.099   5.175  18.611  0.00  0.00    +0.000 A 
ATOM     29  C   UNL     1       5.390   4.791  19.254  0.00  0.00    +0.000 A 
ATOM     30  N   UNL     1       6.524   4.562  18.662  0.00  0.00    +0.000 NA
ATOM     31  C   UNL     1       6.520   4.673  17.302  0.00  0.00    +0.000 A 
ATOM     32  N   UNL     1       7.516   4.519  16.454  0.00  0.00    +0.000 NA
ATOM     33  C   UNL     1       6.988   4.725  15.207  0.00  0.00    +0.000 A 
ATOM     34  C   UNL     1       5.646   5.010  15.281  0.00  0.00    +0.000 A 
ATOM     35  N   UNL     1       5.346   4.984  16.618  0.00  0.00    +0.000 N 
ATOM     36  C   UNL     1       4.147   5.229  17.270  0.00  0.00    +0.000 A 
ENDBRANCH  25  28
ENDBRANCH  23  24
ENDBRANCH   4  23
TORSDOF 6
ENDMDL
