MODEL 1
REMARK VINA RESULT:      -7.8      0.000      0.000
REMARK  Name = 
REMARK  4 active torsions:
REMARK  status: ('A' for Active; 'I' for Inactive)
REMARK    1  A    between atoms: S_2  and  C_4
REMARK    2  A    between atoms: S_2  and  N_11
REMARK    3  A    between atoms: C_14  and  N_15
REMARK    4  A    between atoms: C_17  and  C_18
REMARK                            x       y       z     vdW  Elec       q    Type
REMARK                         _______ _______ _______ _____ _____    ______ ____
ROOT
ATOM      1  N   UNL     1       0.664  10.394  19.880  0.00  0.00    +0.000 NA
ATOM      2  C   UNL     1      -0.591  10.349  19.065  0.00  0.00    +0.000 C 
ATOM      3  C   UNL     1      -0.892  11.651  18.328  0.00  0.00    +0.000 C 
ATOM      4  C   UNL     1      -0.879  12.839  19.276  0.00  0.00    +0.000 C 
ATOM      5  C   UNL     1       0.567  12.935  19.773  0.00  0.00    +0.000 C 
ATOM      6  C   UNL     1       0.964  11.700  20.563  0.00  0.00    +0.000 C 
ENDROOT
BRANCH   4   7
ATOM      7  N   UNL     1      -1.879  12.753  20.355  0.00  0.00    +0.000 N 
ATOM      8  C   UNL     1      -3.234  12.792  20.232  0.00  0.00    +0.000 A 
ATOM      9  C   UNL     1      -3.797  12.740  21.499  0.00  0.00    +0.000 A 
ATOM     10  C   UNL     1      -2.667  12.514  22.318  0.00  0.00    +0.000 A 
ATOM     11  N   UNL     1      -1.504  12.525  21.637  0.00  0.00    +0.000 NA
BRANCH   9  12
ATOM     12  C   UNL     1      -5.244  12.639  21.661  0.00  0.00    +0.000 A 
ATOM     13  N   UNL     1      -5.845  11.792  20.777  0.00  0.00    +0.000 NA
ATOM     14  C   UNL     1      -7.091  11.371  21.035  0.00  0.00    +0.000 A 
ATOM     15  N   UNL     1      -7.778  11.531  22.168  0.00  0.00    +0.000 NA
ATOM     16  C   UNL     1      -7.244  12.510  22.900  0.00  0.00    +0.000 A 
ATOM     17  N   UNL     1      -7.847  13.055  24.001  0.00  0.00    +0.000 N 
ATOM     18  C   UNL     1      -7.416  14.357  24.113  0.00  0.00    +0.000 A 
ATOM     19  C   UNL     1      -6.254  14.451  23.341  0.00  0.00    +0.000 A 
ATOM     20  C   UNL     1      -6.065  13.207  22.644  0.00  0.00    +0.000 A 
ATOM     21  H   UNL     1      -8.672  12.667  24.427  0.00  0.00    +0.000 HD
ENDBRANCH   9  12
ENDBRANCH   4   7
BRANCH   1  23
ATOM     22  O   UNL     1      -0.622   8.684  21.335  0.00  0.00    +0.000 OA
ATOM     23  S   UNL     1       0.739   9.144  21.070  0.00  0.00    +0.000 S 
ATOM     24  O   UNL     1       1.564   9.618  22.173  0.00  0.00    +0.000 OA
BRANCH  23  25
ATOM     25  C   UNL     1       1.589   7.768  20.314  0.00  0.00    +0.000 A 
ATOM     26  C   UNL     1       1.500   6.487  20.909  0.00  0.00    +0.000 A 
ATOM     27  C   UNL     1       2.008   5.389  20.227  0.00  0.00    +0.000 A 
ATOM     28  C   UNL     1       2.612   5.546  18.971  0.00  0.00    +0.000 A 
ATOM     29 BR   UNL     1       3.262   4.036  18.036  0.00  0.00    +0.000 Br
ATOM     30  C   UNL     1       2.699   6.815  18.385  0.00  0.00    +0.000 A 
ATOM     31  C   UNL     1       2.192   7.918  19.061  0.00  0.00    +0.000 A 
ENDBRANCH  23  25
ENDBRANCH   1  23
TORSDOF 4
ENDMDL
MODEL 2
REMARK VINA RESULT:      -7.7      1.054      1.572
REMARK  Name = 
REMARK  4 active torsions:
REMARK  status: ('A' for Active; 'I' for Inactive)
REMARK    1  A    between atoms: S_2  and  C_4
REMARK    2  A    between atoms: S_2  and  N_11
REMARK    3  A    between atoms: C_14  and  N_15
REMARK    4  A    between atoms: C_17  and  C_18
REMARK                            x       y       z     vdW  Elec       q    Type
REMARK                         _______ _______ _______ _____ _____    ______ ____
ROOT
ATOM      1  N   UNL     1       0.534  10.323  19.528  0.00  0.00    +0.000 NA
ATOM      2  C   UNL     1      -0.881  10.384  19.043  0.00  0.00    +0.000 C 
ATOM      3  C   UNL     1      -1.194  11.626  18.213  0.00  0.00    +0.000 C 
ATOM      4  C   UNL     1      -0.796  12.896  18.949  0.00  0.00    +0.000 C 
ATOM      5  C   UNL     1       0.729  12.821  19.077  0.00  0.00    +0.000 C 
ATOM      6  C   UNL     1       1.156  11.634  19.924  0.00  0.00    +0.000 C 
ENDROOT
BRANCH   4   7
ATOM      7  N   UNL     1      -1.496  13.087  20.232  0.00  0.00    +0.000 N 
ATOM      8  C   UNL     1      -2.754  12.680  20.556  0.00  0.00    +0.000 A 
ATOM      9  C   UNL     1      -3.044  13.115  21.842  0.00  0.00    +0.000 A 
ATOM     10  C   UNL     1      -1.805  13.654  22.260  0.00  0.00    +0.000 A 
ATOM     11  N   UNL     1      -0.866  13.645  21.294  0.00  0.00    +0.000 NA
BRANCH   9  12
ATOM     12  C   UNL     1      -4.283  12.711  22.496  0.00  0.00    +0.000 A 
ATOM     13  N   UNL     1      -4.138  12.392  23.815  0.00  0.00    +0.000 NA
ATOM     14  C   UNL     1      -5.233  12.330  24.585  0.00  0.00    +0.000 A 
ATOM     15  N   UNL     1      -6.467  12.728  24.268  0.00  0.00    +0.000 NA
ATOM     16  C   UNL     1      -6.593  12.836  22.944  0.00  0.00    +0.000 A 
ATOM     17  N   UNL     1      -7.791  13.009  22.304  0.00  0.00    +0.000 N 
ATOM     18  C   UNL     1      -7.678  12.456  21.050  0.00  0.00    +0.000 A 
ATOM     19  C   UNL     1      -6.308  12.337  20.797  0.00  0.00    +0.000 A 
ATOM     20  C   UNL     1      -5.589  12.703  21.989  0.00  0.00    +0.000 A 
ATOM     21  H   UNL     1      -8.651  13.209  22.788  0.00  0.00    +0.000 HD
ENDBRANCH   9  12
ENDBRANCH   4   7
BRANCH   1  23
ATOM     22  O   UNL     1      -0.563   8.711  21.228  0.00  0.00    +0.000 OA
ATOM     23  S   UNL     1       0.750   9.217  20.837  0.00  0.00    +0.000 S 
ATOM     24  O   UNL     1       1.600   9.855  21.833  0.00  0.00    +0.000 OA
BRANCH  23  25
ATOM     25  C   UNL     1       1.646   7.817  20.182  0.00  0.00    +0.000 A 
ATOM     26  C   UNL     1       1.591   6.579  20.863  0.00  0.00    +0.000 A 
ATOM     27  C   UNL     1       2.135   5.452  20.262  0.00  0.00    +0.000 A 
ATOM     28  C   UNL     1       2.743   5.540  19.001  0.00  0.00    +0.000 A 
ATOM     29 BR   UNL     1       3.444   3.989  18.176  0.00  0.00    +0.000 Br
ATOM     30  C   UNL     1       2.796   6.767  18.329  0.00  0.00    +0.000 A 
ATOM     31  C   UNL     1       2.252   7.899  18.924  0.00  0.00    +0.000 A 
ENDBRANCH  23  25
ENDBRANCH   1  23
TORSDOF 4
ENDMDL
MODEL 3
REMARK VINA RESULT:      -7.7      6.429     12.455
REMARK  Name = 
REMARK  4 active torsions:
REMARK  status: ('A' for Active; 'I' for Inactive)
REMARK    1  A    between atoms: S_2  and  C_4
REMARK    2  A    between atoms: S_2  and  N_11
REMARK    3  A    between atoms: C_14  and  N_15
REMARK    4  A    between atoms: C_17  and  C_18
REMARK                            x       y       z     vdW  Elec       q    Type
REMARK                         _______ _______ _______ _____ _____    ______ ____
ROOT
ATOM      1  N   UNL     1       2.484   5.682  18.875  0.00  0.00    +0.000 NA
ATOM      2  C   UNL     1       2.347   4.699  17.755  0.00  0.00    +0.000 C 
ATOM      3  C   UNL     1       2.775   3.281  18.125  0.00  0.00    +0.000 C 
ATOM      4  C   UNL     1       4.174   3.264  18.720  0.00  0.00    +0.000 C 
ATOM      5  C   UNL     1       4.058   4.048  20.031  0.00  0.00    +0.000 C 
ATOM      6  C   UNL     1       3.673   5.496  19.778  0.00  0.00    +0.000 C 
ENDROOT
BRANCH   4   7
ATOM      7  N   UNL     1       5.217   3.770  17.810  0.00  0.00    +0.000 N 
ATOM      8  C   UNL     1       5.191   3.783  16.449  0.00  0.00    +0.000 A 
ATOM      9  C   UNL     1       6.397   4.290  15.987  0.00  0.00    +0.000 A 
ATOM     10  C   UNL     1       7.027   4.698  17.185  0.00  0.00    +0.000 A 
ATOM     11  N   UNL     1       6.324   4.385  18.291  0.00  0.00    +0.000 NA
BRANCH   9  12
ATOM     12  C   UNL     1       6.598   4.535  14.563  0.00  0.00    +0.000 A 
ATOM     13  N   UNL     1       7.556   5.468  14.288  0.00  0.00    +0.000 NA
ATOM     14  C   UNL     1       8.051   5.534  13.045  0.00  0.00    +0.000 A 
ATOM     15  N   UNL     1       7.858   4.663  12.052  0.00  0.00    +0.000 NA
ATOM     16  C   UNL     1       6.786   3.907  12.299  0.00  0.00    +0.000 A 
ATOM     17  N   UNL     1       6.207   3.080  11.376  0.00  0.00    +0.000 N 
ATOM     18  C   UNL     1       4.871   2.977  11.687  0.00  0.00    +0.000 A 
ATOM     19  C   UNL     1       4.747   3.392  13.016  0.00  0.00    +0.000 A 
ATOM     20  C   UNL     1       6.023   3.885  13.463  0.00  0.00    +0.000 A 
ATOM     21  H   UNL     1       6.625   2.870  10.484  0.00  0.00    +0.000 HD
ENDBRANCH   9  12
ENDBRANCH   4   7
BRANCH   1  23
ATOM     22  O   UNL     1       1.572   7.426  17.197  0.00  0.00    +0.000 OA
ATOM     23  S   UNL     1       2.480   7.323  18.336  0.00  0.00    +0.000 S 
ATOM     24  O   UNL     1       3.864   7.756  18.194  0.00  0.00    +0.000 OA
BRANCH  23  25
ATOM     25  C   UNL     1       1.745   8.290  19.646  0.00  0.00    +0.000 A 
ATOM     26  C   UNL     1       1.340   9.619  19.382  0.00  0.00    +0.000 A 
ATOM     27  C   UNL     1       0.608  10.306  20.342  0.00  0.00    +0.000 A 
ATOM     28  C   UNL     1       0.285   9.696  21.563  0.00  0.00    +0.000 A 
ATOM     29 BR   UNL     1      -0.747  10.629  22.844  0.00  0.00    +0.000 Br
ATOM     30  C   UNL     1       0.688   8.380  21.822  0.00  0.00    +0.000 A 
ATOM     31  C   UNL     1       1.418   7.687  20.865  0.00  0.00    +0.000 A 
ENDBRANCH  23  25
ENDBRANCH   1  23
TORSDOF 4
ENDMDL
MODEL 4
REMARK VINA RESULT:      -7.7      4.269      9.741
REMARK  Name = 
REMARK  4 active torsions:
REMARK  status: ('A' for Active; 'I' for Inactive)
REMARK    1  A    between atoms: S_2  and  C_4
REMARK    2  A    between atoms: S_2  and  N_11
REMARK    3  A    between atoms: C_14  and  N_15
REMARK    4  A    between atoms: C_17  and  C_18
REMARK                            x       y       z     vdW  Elec       q    Type
REMARK                         _______ _______ _______ _____ _____    ______ ____
ROOT
ATOM      1  N   UNL     1      -0.680  10.671  20.108  0.00  0.00    +0.000 NA
ATOM      2  C   UNL     1      -1.050   9.242  20.353  0.00  0.00    +0.000 C 
ATOM      3  C   UNL     1      -0.277   8.594  21.498  0.00  0.00    +0.000 C 
ATOM      4  C   UNL     1       1.224   8.764  21.317  0.00  0.00    +0.000 C 
ATOM      5  C   UNL     1       1.467  10.273  21.415  0.00  0.00    +0.000 C 
ATOM      6  C   UNL     1       0.772  11.021  20.290  0.00  0.00    +0.000 C 
ENDROOT
BRANCH   4   7
ATOM      7  N   UNL     1       1.750   8.150  20.085  0.00  0.00    +0.000 N 
ATOM      8  C   UNL     1       2.050   6.839  19.877  0.00  0.00    +0.000 A 
ATOM      9  C   UNL     1       2.573   6.700  18.599  0.00  0.00    +0.000 A 
ATOM     10  C   UNL     1       2.396   7.997  18.063  0.00  0.00    +0.000 A 
ATOM     11  N   UNL     1       1.904   8.880  18.953  0.00  0.00    +0.000 NA
BRANCH   9  12
ATOM     12  C   UNL     1       2.867   5.377  18.061  0.00  0.00    +0.000 A 
ATOM     13  N   UNL     1       3.936   5.344  17.214  0.00  0.00    +0.000 NA
ATOM     14  C   UNL     1       4.492   4.160  16.926  0.00  0.00    +0.000 A 
ATOM     15  N   UNL     1       4.248   2.988  17.517  0.00  0.00    +0.000 NA
ATOM     16  C   UNL     1       3.087   3.033  18.173  0.00  0.00    +0.000 A 
ATOM     17  N   UNL     1       2.461   1.932  18.691  0.00  0.00    +0.000 N 
ATOM     18  C   UNL     1       1.109   2.185  18.699  0.00  0.00    +0.000 A 
ATOM     19  C   UNL     1       0.971   3.572  18.586  0.00  0.00    +0.000 A 
ATOM     20  C   UNL     1       2.272   4.145  18.368  0.00  0.00    +0.000 A 
ATOM     21  H   UNL     1       2.893   1.024  18.741  0.00  0.00    +0.000 HD
ENDBRANCH   9  12
ENDBRANCH   4   7
BRANCH   1  23
ATOM     22  O   UNL     1      -0.990  10.146  17.593  0.00  0.00    +0.000 OA
ATOM     23  S   UNL     1      -1.169  11.236  18.550  0.00  0.00    +0.000 S 
ATOM     24  O   UNL     1      -0.520  12.517  18.309  0.00  0.00    +0.000 OA
BRANCH  23  25
ATOM     25  C   UNL     1      -2.928  11.531  18.641  0.00  0.00    +0.000 A 
ATOM     26  C   UNL     1      -3.447  12.299  19.710  0.00  0.00    +0.000 A 
ATOM     27  C   UNL     1      -4.783  12.678  19.683  0.00  0.00    +0.000 A 
ATOM     28  C   UNL     1      -5.611  12.296  18.617  0.00  0.00    +0.000 A 
ATOM     29 BR   UNL     1      -7.418  12.854  18.573  0.00  0.00    +0.000 Br
ATOM     30  C   UNL     1      -5.095  11.535  17.561  0.00  0.00    +0.000 A 
ATOM     31  C   UNL     1      -3.759  11.154  17.581  0.00  0.00    +0.000 A 
ENDBRANCH  23  25
ENDBRANCH   1  23
TORSDOF 4
ENDMDL
MODEL 5
REMARK VINA RESULT:      -7.5      4.187     10.014
REMARK  Name = 
REMARK  4 active torsions:
REMARK  status: ('A' for Active; 'I' for Inactive)
REMARK    1  A    between atoms: S_2  and  C_4
REMARK    2  A    between atoms: S_2  and  N_11
REMARK    3  A    between atoms: C_14  and  N_15
REMARK    4  A    between atoms: C_17  and  C_18
REMARK                            x       y       z     vdW  Elec       q    Type
REMARK                         _______ _______ _______ _____ _____    ______ ____
ROOT
ATOM      1  N   UNL     1      -0.617  10.607  20.429  0.00  0.00    +0.000 NA
ATOM      2  C   UNL     1      -1.002   9.163  20.337  0.00  0.00    +0.000 C 
ATOM      3  C   UNL     1      -0.290   8.271  21.351  0.00  0.00    +0.000 C 
ATOM      4  C   UNL     1       1.218   8.457  21.285  0.00  0.00    +0.000 C 
ATOM      5  C   UNL     1       1.460   9.905  21.722  0.00  0.00    +0.000 C 
ATOM      6  C   UNL     1       0.825  10.889  20.755  0.00  0.00    +0.000 C 
ENDROOT
BRANCH   4   7
ATOM      7  N   UNL     1       1.805   8.120  19.976  0.00  0.00    +0.000 N 
ATOM      8  C   UNL     1       2.431   6.963  19.624  0.00  0.00    +0.000 A 
ATOM      9  C   UNL     1       2.885   7.084  18.318  0.00  0.00    +0.000 A 
ATOM     10  C   UNL     1       2.332   8.325  17.924  0.00  0.00    +0.000 A 
ATOM     11  N   UNL     1       1.683   8.959  18.920  0.00  0.00    +0.000 NA
BRANCH   9  12
ATOM     12  C   UNL     1       3.486   5.943  17.636  0.00  0.00    +0.000 A 
ATOM     13  N   UNL     1       4.562   6.261  16.860  0.00  0.00    +0.000 NA
ATOM     14  C   UNL     1       5.379   5.277  16.461  0.00  0.00    +0.000 A 
ATOM     15  N   UNL     1       5.385   4.011  16.882  0.00  0.00    +0.000 NA
ATOM     16  C   UNL     1       4.222   3.711  17.465  0.00  0.00    +0.000 A 
ATOM     17  N   UNL     1       3.842   2.439  17.798  0.00  0.00    +0.000 N 
ATOM     18  C   UNL     1       2.468   2.389  17.754  0.00  0.00    +0.000 A 
ATOM     19  C   UNL     1       2.026   3.714  17.809  0.00  0.00    +0.000 A 
ATOM     20  C   UNL     1       3.173   4.582  17.747  0.00  0.00    +0.000 A 
ATOM     21  H   UNL     1       4.464   1.649  17.760  0.00  0.00    +0.000 HD
ENDBRANCH   9  12
ENDBRANCH   4   7
BRANCH   1  23
ATOM     22  O   UNL     1      -0.970  10.597  17.866  0.00  0.00    +0.000 OA
ATOM     23  S   UNL     1      -1.024  11.504  19.010  0.00  0.00    +0.000 S 
ATOM     24  O   UNL     1      -0.225  12.722  18.999  0.00  0.00    +0.000 OA
BRANCH  23  25
ATOM     25  C   UNL     1      -2.735  11.984  19.181  0.00  0.00    +0.000 A 
ATOM     26  C   UNL     1      -3.676  11.553  18.216  0.00  0.00    +0.000 A 
ATOM     27  C   UNL     1      -5.028  11.773  18.445  0.00  0.00    +0.000 A 
ATOM     28  C   UNL     1      -5.457  12.425  19.611  0.00  0.00    +0.000 A 
ATOM     29 BR   UNL     1      -7.304  12.681  19.929  0.00  0.00    +0.000 Br
ATOM     30  C   UNL     1      -4.524  12.850  20.564  0.00  0.00    +0.000 A 
ATOM     31  C   UNL     1      -3.170  12.632  20.342  0.00  0.00    +0.000 A 
ENDBRANCH  23  25
ENDBRANCH   1  23
TORSDOF 4
ENDMDL
MODEL 6
REMARK VINA RESULT:      -7.5      0.896      1.321
REMARK  Name = 
REMARK  4 active torsions:
REMARK  status: ('A' for Active; 'I' for Inactive)
REMARK    1  A    between atoms: S_2  and  C_4
REMARK    2  A    between atoms: S_2  and  N_11
REMARK    3  A    between atoms: C_14  and  N_15
REMARK    4  A    between atoms: C_17  and  C_18
REMARK                            x       y       z     vdW  Elec       q    Type
REMARK                         _______ _______ _______ _____ _____    ______ ____
ROOT
ATOM      1  N   UNL     1       0.876  11.273  19.870  0.00  0.00    +0.000 NA
ATOM      2  C   UNL     1      -0.298  11.543  18.982  0.00  0.00    +0.000 C 
ATOM      3  C   UNL     1      -0.415  13.001  18.545  0.00  0.00    +0.000 C 
ATOM      4  C   UNL     1      -0.386  13.940  19.741  0.00  0.00    +0.000 C 
ATOM      5  C   UNL     1       1.011  13.770  20.346  0.00  0.00    +0.000 C 
ATOM      6  C   UNL     1       1.226  12.355  20.855  0.00  0.00    +0.000 C 
ENDROOT
BRANCH   4   7
ATOM      7  N   UNL     1      -1.484  13.722  20.699  0.00  0.00    +0.000 N 
ATOM      8  C   UNL     1      -2.801  13.526  20.416  0.00  0.00    +0.000 A 
ATOM      9  C   UNL     1      -3.501  13.422  21.610  0.00  0.00    +0.000 A 
ATOM     10  C   UNL     1      -2.459  13.419  22.566  0.00  0.00    +0.000 A 
ATOM     11  N   UNL     1      -1.239  13.604  22.026  0.00  0.00    +0.000 NA
BRANCH   9  12
ATOM     12  C   UNL     1      -4.920  13.082  21.607  0.00  0.00    +0.000 A 
ATOM     13  N   UNL     1      -5.320  12.370  20.514  0.00  0.00    +0.000 NA
ATOM     14  C   UNL     1      -6.496  11.730  20.560  0.00  0.00    +0.000 A 
ATOM     15  N   UNL     1      -7.271  11.539  21.629  0.00  0.00    +0.000 NA
ATOM     16  C   UNL     1      -6.948  12.402  22.595  0.00  0.00    +0.000 A 
ATOM     17  N   UNL     1      -7.700  12.603  23.721  0.00  0.00    +0.000 N 
ATOM     18  C   UNL     1      -7.492  13.897  24.138  0.00  0.00    +0.000 A 
ATOM     19  C   UNL     1      -6.313  14.322  23.518  0.00  0.00    +0.000 A 
ATOM     20  C   UNL     1      -5.883  13.299  22.602  0.00  0.00    +0.000 A 
ATOM     21  H   UNL     1      -8.478  12.017  23.976  0.00  0.00    +0.000 HD
ENDBRANCH   9  12
ENDBRANCH   4   7
BRANCH   1  23
ATOM     22  O   UNL     1      -0.681   9.426  20.796  0.00  0.00    +0.000 OA
ATOM     23  S   UNL     1       0.733   9.789  20.742  0.00  0.00    +0.000 S 
ATOM     24  O   UNL     1       1.490   9.917  21.981  0.00  0.00    +0.000 OA
BRANCH  23  25
ATOM     25  C   UNL     1       1.530   8.534  19.752  0.00  0.00    +0.000 A 
ATOM     26  C   UNL     1       2.000   8.866  18.460  0.00  0.00    +0.000 A 
ATOM     27  C   UNL     1       2.775   7.947  17.765  0.00  0.00    +0.000 A 
ATOM     28  C   UNL     1       3.079   6.699  18.330  0.00  0.00    +0.000 A 
ATOM     29 BR   UNL     1       4.169   5.473  17.390  0.00  0.00    +0.000 Br
ATOM     30  C   UNL     1       2.612   6.373  19.609  0.00  0.00    +0.000 A 
ATOM     31  C   UNL     1       1.837   7.289  20.310  0.00  0.00    +0.000 A 
ENDBRANCH  23  25
ENDBRANCH   1  23
TORSDOF 4
ENDMDL
MODEL 7
REMARK VINA RESULT:      -7.5      4.155      9.846
REMARK  Name = 
REMARK  4 active torsions:
REMARK  status: ('A' for Active; 'I' for Inactive)
REMARK    1  A    between atoms: S_2  and  C_4
REMARK    2  A    between atoms: S_2  and  N_11
REMARK    3  A    between atoms: C_14  and  N_15
REMARK    4  A    between atoms: C_17  and  C_18
REMARK                            x       y       z     vdW  Elec       q    Type
REMARK                         _______ _______ _______ _____ _____    ______ ____
ROOT
ATOM      1  N   UNL     1      -0.435  10.833  20.859  0.00  0.00    +0.000 NA
ATOM      2  C   UNL     1      -0.986   9.468  20.589  0.00  0.00    +0.000 C 
ATOM      3  C   UNL     1      -0.412   8.382  21.495  0.00  0.00    +0.000 C 
ATOM      4  C   UNL     1       1.109   8.390  21.471  0.00  0.00    +0.000 C 
ATOM      5  C   UNL     1       1.508   9.736  22.084  0.00  0.00    +0.000 C 
ATOM      6  C   UNL     1       1.020  10.898  21.236  0.00  0.00    +0.000 C 
ENDROOT
BRANCH   4   7
ATOM      7  N   UNL     1       1.687   8.143  20.139  0.00  0.00    +0.000 N 
ATOM      8  C   UNL     1       2.372   7.041  19.726  0.00  0.00    +0.000 A 
ATOM      9  C   UNL     1       2.791   7.243  18.418  0.00  0.00    +0.000 A 
ATOM     10  C   UNL     1       2.158   8.464  18.088  0.00  0.00    +0.000 A 
ATOM     11  N   UNL     1       1.493   9.016  19.121  0.00  0.00    +0.000 NA
BRANCH   9  12
ATOM     12  C   UNL     1       3.443   6.169  17.678  0.00  0.00    +0.000 A 
ATOM     13  N   UNL     1       4.493   6.579  16.909  0.00  0.00    +0.000 NA
ATOM     14  C   UNL     1       5.356   5.660  16.456  0.00  0.00    +0.000 A 
ATOM     15  N   UNL     1       5.432   4.377  16.816  0.00  0.00    +0.000 NA
ATOM     16  C   UNL     1       4.293   3.990  17.394  0.00  0.00    +0.000 A 
ATOM     17  N   UNL     1       3.984   2.685  17.670  0.00  0.00    +0.000 N 
ATOM     18  C   UNL     1       2.615   2.564  17.634  0.00  0.00    +0.000 A 
ATOM     19  C   UNL     1       2.104   3.860  17.756  0.00  0.00    +0.000 A 
ATOM     20  C   UNL     1       3.203   4.789  17.726  0.00  0.00    +0.000 A 
ATOM     21  H   UNL     1       4.647   1.932  17.588  0.00  0.00    +0.000 HD
ENDBRANCH   9  12
ENDBRANCH   4   7
BRANCH   1  23
ATOM     22  O   UNL     1       0.007  11.423  18.380  0.00  0.00    +0.000 OA
ATOM     23  S   UNL     1      -0.694  11.935  19.555  0.00  0.00    +0.000 S 
ATOM     24  O   UNL     1      -0.406  13.280  20.034  0.00  0.00    +0.000 OA
BRANCH  23  25
ATOM     25  C   UNL     1      -2.435  11.865  19.164  0.00  0.00    +0.000 A 
ATOM     26  C   UNL     1      -3.366  12.481  20.032  0.00  0.00    +0.000 A 
ATOM     27  C   UNL     1      -4.694  12.582  19.638  0.00  0.00    +0.000 A 
ATOM     28  C   UNL     1      -5.111  12.069  18.400  0.00  0.00    +0.000 A 
ATOM     29 BR   UNL     1      -6.915  12.250  17.859  0.00  0.00    +0.000 Br
ATOM     30  C   UNL     1      -4.188  11.459  17.543  0.00  0.00    +0.000 A 
ATOM     31  C   UNL     1      -2.857  11.356  17.931  0.00  0.00    +0.000 A 
ENDBRANCH  23  25
ENDBRANCH   1  23
TORSDOF 4
ENDMDL
MODEL 8
REMARK VINA RESULT:      -7.5      4.856      7.680
REMARK  Name = 
REMARK  4 active torsions:
REMARK  status: ('A' for Active; 'I' for Inactive)
REMARK    1  A    between atoms: S_2  and  C_4
REMARK    2  A    between atoms: S_2  and  N_11
REMARK    3  A    between atoms: C_14  and  N_15
REMARK    4  A    between atoms: C_17  and  C_18
REMARK                            x       y       z     vdW  Elec       q    Type
REMARK                         _______ _______ _______ _____ _____    ______ ____
ROOT
ATOM      1  N   UNL     1       2.674   2.292  19.117  0.00  0.00    +0.000 NA
ATOM      2  C   UNL     1       3.500   2.822  20.247  0.00  0.00    +0.000 C 
ATOM      3  C   UNL     1       2.706   3.064  21.528  0.00  0.00    +0.000 C 
ATOM      4  C   UNL     1       1.487   3.935  21.266  0.00  0.00    +0.000 C 
ATOM      5  C   UNL     1       0.594   3.101  20.343  0.00  0.00    +0.000 C 
ATOM      6  C   UNL     1       1.273   2.831  19.011  0.00  0.00    +0.000 C 
ENDROOT
BRANCH   4   7
ATOM      7  N   UNL     1       1.811   5.272  20.739  0.00  0.00    +0.000 N 
ATOM      8  C   UNL     1       1.061   6.404  20.839  0.00  0.00    +0.000 A 
ATOM      9  C   UNL     1       1.704   7.425  20.155  0.00  0.00    +0.000 A 
ATOM     10  C   UNL     1       2.933   6.820  19.804  0.00  0.00    +0.000 A 
ATOM     11  N   UNL     1       3.005   5.520  20.149  0.00  0.00    +0.000 NA
BRANCH   9  12
ATOM     12  C   UNL     1       1.185   8.788  20.202  0.00  0.00    +0.000 A 
ATOM     13  N   UNL     1       1.429   9.516  19.074  0.00  0.00    +0.000 NA
ATOM     14  C   UNL     1       0.729  10.641  18.872  0.00  0.00    +0.000 A 
ATOM     15  N   UNL     1      -0.336  11.063  19.556  0.00  0.00    +0.000 NA
ATOM     16  C   UNL     1      -0.404  10.443  20.736  0.00  0.00    +0.000 A 
ATOM     17  N   UNL     1      -1.249  10.817  21.746  0.00  0.00    +0.000 N 
ATOM     18  C   UNL     1      -0.662  10.459  22.937  0.00  0.00    +0.000 A 
ATOM     19  C   UNL     1       0.315   9.510  22.620  0.00  0.00    +0.000 A 
ATOM     20  C   UNL     1       0.402   9.402  21.188  0.00  0.00    +0.000 A 
ATOM     21  H   UNL     1      -1.982  11.498  21.629  0.00  0.00    +0.000 HD
ENDBRANCH   9  12
ENDBRANCH   4   7
BRANCH   1  23
ATOM     22  O   UNL     1       2.398   2.789  16.593  0.00  0.00    +0.000 OA
ATOM     23  S   UNL     1       3.434   2.487  17.578  0.00  0.00    +0.000 S 
ATOM     24  O   UNL     1       4.320   1.350  17.364  0.00  0.00    +0.000 OA
BRANCH  23  25
ATOM     25  C   UNL     1       4.452   3.950  17.692  0.00  0.00    +0.000 A 
ATOM     26  C   UNL     1       5.618   3.922  18.491  0.00  0.00    +0.000 A 
ATOM     27  C   UNL     1       6.501   4.993  18.437  0.00  0.00    +0.000 A 
ATOM     28  C   UNL     1       6.235   6.094  17.610  0.00  0.00    +0.000 A 
ATOM     29 BR   UNL     1       7.467   7.527  17.515  0.00  0.00    +0.000 Br
ATOM     30  C   UNL     1       5.080   6.119  16.820  0.00  0.00    +0.000 A 
ATOM     31  C   UNL     1       4.193   5.051  16.868  0.00  0.00    +0.000 A 
ENDBRANCH  23  25
ENDBRANCH   1  23
TORSDOF 4
ENDMDL
MODEL 9
REMARK VINA RESULT:      -7.5      1.169      2.016
REMARK  Name = 
REMARK  4 active torsions:
REMARK  status: ('A' for Active; 'I' for Inactive)
REMARK    1  A    between atoms: S_2  and  C_4
REMARK    2  A    between atoms: S_2  and  N_11
REMARK    3  A    between atoms: C_14  and  N_15
REMARK    4  A    between atoms: C_17  and  C_18
REMARK                            x       y       z     vdW  Elec       q    Type
REMARK                         _______ _______ _______ _____ _____    ______ ____
ROOT
ATOM      1  N   UNL     1       0.589  11.148  19.617  0.00  0.00    +0.000 NA
ATOM      2  C   UNL     1      -0.748  11.348  18.974  0.00  0.00    +0.000 C 
ATOM      3  C   UNL     1      -0.956  12.752  18.413  0.00  0.00    +0.000 C 
ATOM      4  C   UNL     1      -0.672  13.815  19.463  0.00  0.00    +0.000 C 
ATOM      5  C   UNL     1       0.822  13.678  19.772  0.00  0.00    +0.000 C 
ATOM      6  C   UNL     1       1.141  12.322  20.378  0.00  0.00    +0.000 C 
ENDROOT
BRANCH   4   7
ATOM      7  N   UNL     1      -1.539  13.728  20.651  0.00  0.00    +0.000 N 
ATOM      8  C   UNL     1      -2.811  13.246  20.713  0.00  0.00    +0.000 A 
ATOM      9  C   UNL     1      -3.283  13.403  22.008  0.00  0.00    +0.000 A 
ATOM     10  C   UNL     1      -2.132  13.860  22.691  0.00  0.00    +0.000 A 
ATOM     11  N   UNL     1      -1.076  14.063  21.879  0.00  0.00    +0.000 NA
BRANCH   9  12
ATOM     12  C   UNL     1      -4.580  12.856  22.393  0.00  0.00    +0.000 A 
ATOM     13  N   UNL     1      -4.744  12.708  23.739  0.00  0.00    +0.000 NA
ATOM     14  C   UNL     1      -5.983  12.534  24.220  0.00  0.00    +0.000 A 
ATOM     15  N   UNL     1      -7.133  12.671  23.557  0.00  0.00    +0.000 NA
ATOM     16  C   UNL     1      -6.919  12.615  22.241  0.00  0.00    +0.000 A 
ATOM     17  N   UNL     1      -7.916  12.504  21.310  0.00  0.00    +0.000 N 
ATOM     18  C   UNL     1      -7.398  11.851  20.217  0.00  0.00    +0.000 A 
ATOM     19  C   UNL     1      -6.007  11.952  20.326  0.00  0.00    +0.000 A 
ATOM     20  C   UNL     1      -5.690  12.563  21.589  0.00  0.00    +0.000 A 
ATOM     21  H   UNL     1      -8.893  12.598  21.535  0.00  0.00    +0.000 HD
ENDBRANCH   9  12
ENDBRANCH   4   7
BRANCH   1  23
ATOM     22  O   UNL     1      -0.734   9.307  20.864  0.00  0.00    +0.000 OA
ATOM     23  S   UNL     1       0.636   9.771  20.659  0.00  0.00    +0.000 S 
ATOM     24  O   UNL     1       1.462  10.104  21.811  0.00  0.00    +0.000 OA
BRANCH  23  25
ATOM     25  C   UNL     1       1.469   8.474  19.756  0.00  0.00    +0.000 A 
ATOM     26  C   UNL     1       1.929   8.729  18.443  0.00  0.00    +0.000 A 
ATOM     27  C   UNL     1       2.730   7.786  17.813  0.00  0.00    +0.000 A 
ATOM     28  C   UNL     1       3.069   6.590  18.463  0.00  0.00    +0.000 A 
ATOM     29 BR   UNL     1       4.195   5.333  17.608  0.00  0.00    +0.000 Br
ATOM     30  C   UNL     1       2.612   6.340  19.762  0.00  0.00    +0.000 A 
ATOM     31  C   UNL     1       1.811   7.280  20.399  0.00  0.00    +0.000 A 
ENDBRANCH  23  25
ENDBRANCH   1  23
TORSDOF 4
ENDMDL
