MODEL 1
REMARK VINA RESULT:      -7.1      0.000      0.000
REMARK  Name = 
REMARK  4 active torsions:
REMARK  status: ('A' for Active; 'I' for Inactive)
REMARK    1  A    between atoms: C_1  and  N_2
REMARK    2  A    between atoms: N_2  and  C_3
REMARK    3  A    between atoms: C_7  and  C_8
REMARK    4  A    between atoms: C_12  and  O_13
REMARK                            x       y       z     vdW  Elec       q    Type
REMARK                         _______ _______ _______ _____ _____    ______ ____
ROOT
ATOM      1  C   UNL     1       2.313   6.793  19.779  0.00  0.00    +0.000 A 
ATOM      2  N   UNL     1       3.337   6.264  19.131  0.00  0.00    +0.000 NA
ATOM      3  C   UNL     1       3.414   4.985  19.624  0.00  0.00    +0.000 A 
ATOM      4  C   UNL     1       4.298   3.937  19.332  0.00  0.00    +0.000 A 
ATOM      5  C   UNL     1       4.116   2.734  20.023  0.00  0.00    +0.000 A 
ATOM      6  C   UNL     1       3.098   2.562  20.964  0.00  0.00    +0.000 A 
ATOM      7  C   UNL     1       2.208   3.600  21.262  0.00  0.00    +0.000 A 
ATOM      8  C   UNL     1       2.418   4.782  20.563  0.00  0.00    +0.000 A 
ATOM      9  O   UNL     1       1.704   5.940  20.667  0.00  0.00    +0.000 OA
ENDROOT
BRANCH   1  16
ATOM     10  C   UNL     1      -0.626  12.415  18.422  0.00  0.00    +0.000 C 
ATOM     11  N   UNL     1       0.044  11.975  19.638  0.00  0.00    +0.000 N 
ATOM     12  C   UNL     1      -0.547  12.394  20.905  0.00  0.00    +0.000 C 
ATOM     13  C   UNL     1       0.609  10.695  19.645  0.00  0.00    +0.000 A 
ATOM     14  C   UNL     1       1.163  10.143  18.489  0.00  0.00    +0.000 A 
ATOM     15  C   UNL     1       1.729   8.865  18.510  0.00  0.00    +0.000 A 
ATOM     16  C   UNL     1       1.753   8.133  19.692  0.00  0.00    +0.000 A 
ATOM     17  C   UNL     1       1.202   8.751  20.804  0.00  0.00    +0.000 A 
ATOM     18  N   UNL     1       0.647   9.995  20.802  0.00  0.00    +0.000 NA
ENDBRANCH   1  16
BRANCH   5  19
ATOM     19  O   UNL     1       4.939   1.666  19.798  0.00  0.00    +0.000 OA
ATOM     20  H   UNL     1       5.817   1.995  19.544  0.00  0.00    +0.000 HD
ENDBRANCH   5  19
TORSDOF 2
ENDMDL
MODEL 2
REMARK VINA RESULT:      -6.9      1.409      1.659
REMARK  Name = 
REMARK  4 active torsions:
REMARK  status: ('A' for Active; 'I' for Inactive)
REMARK    1  A    between atoms: C_1  and  N_2
REMARK    2  A    between atoms: N_2  and  C_3
REMARK    3  A    between atoms: C_7  and  C_8
REMARK    4  A    between atoms: C_12  and  O_13
REMARK                            x       y       z     vdW  Elec       q    Type
REMARK                         _______ _______ _______ _____ _____    ______ ____
ROOT
ATOM      1  C   UNL     1       2.523   6.098  19.139  0.00  0.00    +0.000 A 
ATOM      2  N   UNL     1       3.378   5.432  19.898  0.00  0.00    +0.000 NA
ATOM      3  C   UNL     1       3.430   4.186  19.321  0.00  0.00    +0.000 A 
ATOM      4  C   UNL     1       4.153   3.039  19.672  0.00  0.00    +0.000 A 
ATOM      5  C   UNL     1       3.979   1.902  18.874  0.00  0.00    +0.000 A 
ATOM      6  C   UNL     1       3.130   1.895  17.764  0.00  0.00    +0.000 A 
ATOM      7  C   UNL     1       2.405   3.036  17.403  0.00  0.00    +0.000 A 
ATOM      8  C   UNL     1       2.595   4.145  18.218  0.00  0.00    +0.000 A 
ATOM      9  O   UNL     1       2.010   5.371  18.093  0.00  0.00    +0.000 OA
ENDROOT
BRANCH   1  16
ATOM     10  C   UNL     1      -0.070  12.027  18.683  0.00  0.00    +0.000 C 
ATOM     11  N   UNL     1       0.601  11.378  19.802  0.00  0.00    +0.000 N 
ATOM     12  C   UNL     1       0.073  11.650  21.135  0.00  0.00    +0.000 C 
ATOM     13  C   UNL     1       1.080  10.078  19.611  0.00  0.00    +0.000 A 
ATOM     14  C   UNL     1       1.565   9.661  18.370  0.00  0.00    +0.000 A 
ATOM     15  C   UNL     1       2.045   8.360  18.193  0.00  0.00    +0.000 A 
ATOM     16  C   UNL     1       2.051   7.469  19.259  0.00  0.00    +0.000 A 
ATOM     17  C   UNL     1       1.573   7.956  20.466  0.00  0.00    +0.000 A 
ATOM     18  N   UNL     1       1.101   9.220  20.657  0.00  0.00    +0.000 NA
ENDBRANCH   1  16
BRANCH   5  19
ATOM     19  O   UNL     1       4.645   0.742  19.152  0.00  0.00    +0.000 OA
ATOM     20  H   UNL     1       3.996   0.048  19.353  0.00  0.00    +0.000 HD
ENDBRANCH   5  19
TORSDOF 2
ENDMDL
MODEL 3
REMARK VINA RESULT:      -6.8      2.449      3.411
REMARK  Name = 
REMARK  4 active torsions:
REMARK  status: ('A' for Active; 'I' for Inactive)
REMARK    1  A    between atoms: C_1  and  N_2
REMARK    2  A    between atoms: N_2  and  C_3
REMARK    3  A    between atoms: C_7  and  C_8
REMARK    4  A    between atoms: C_12  and  O_13
REMARK                            x       y       z     vdW  Elec       q    Type
REMARK                         _______ _______ _______ _____ _____    ______ ____
ROOT
ATOM      1  C   UNL     1       2.737   7.044  18.670  0.00  0.00    +0.000 A 
ATOM      2  N   UNL     1       2.923   5.738  18.775  0.00  0.00    +0.000 NA
ATOM      3  C   UNL     1       3.856   5.459  17.807  0.00  0.00    +0.000 A 
ATOM      4  C   UNL     1       4.453   4.250  17.424  0.00  0.00    +0.000 A 
ATOM      5  C   UNL     1       5.379   4.296  16.376  0.00  0.00    +0.000 A 
ATOM      6  C   UNL     1       5.714   5.489  15.730  0.00  0.00    +0.000 A 
ATOM      7  C   UNL     1       5.127   6.702  16.106  0.00  0.00    +0.000 A 
ATOM      8  C   UNL     1       4.209   6.623  17.144  0.00  0.00    +0.000 A 
ATOM      9  O   UNL     1       3.495   7.646  17.695  0.00  0.00    +0.000 OA
ENDROOT
BRANCH   1  16
ATOM     10  C   UNL     1      -0.568  10.674  22.911  0.00  0.00    +0.000 C 
ATOM     11  N   UNL     1      -0.663  10.604  21.459  0.00  0.00    +0.000 N 
ATOM     12  C   UNL     1      -0.910  11.857  20.753  0.00  0.00    +0.000 C 
ATOM     13  C   UNL     1       0.178   9.707  20.792  0.00  0.00    +0.000 A 
ATOM     14  C   UNL     1       0.543   8.491  21.372  0.00  0.00    +0.000 A 
ATOM     15  C   UNL     1       1.381   7.601  20.693  0.00  0.00    +0.000 A 
ATOM     16  C   UNL     1       1.852   7.918  19.424  0.00  0.00    +0.000 A 
ATOM     17  C   UNL     1       1.433   9.132  18.902  0.00  0.00    +0.000 A 
ATOM     18  N   UNL     1       0.618  10.011  19.549  0.00  0.00    +0.000 NA
ENDBRANCH   1  16
BRANCH   5  19
ATOM     19  O   UNL     1       6.001   3.159  15.942  0.00  0.00    +0.000 OA
ATOM     20  H   UNL     1       5.418   2.704  15.312  0.00  0.00    +0.000 HD
ENDBRANCH   5  19
TORSDOF 2
ENDMDL
MODEL 4
REMARK VINA RESULT:      -6.8      7.228      7.855
REMARK  Name = 
REMARK  4 active torsions:
REMARK  status: ('A' for Active; 'I' for Inactive)
REMARK    1  A    between atoms: C_1  and  N_2
REMARK    2  A    between atoms: N_2  and  C_3
REMARK    3  A    between atoms: C_7  and  C_8
REMARK    4  A    between atoms: C_12  and  O_13
REMARK                            x       y       z     vdW  Elec       q    Type
REMARK                         _______ _______ _______ _____ _____    ______ ____
ROOT
ATOM      1  C   UNL     1       8.172   8.931  18.103  0.00  0.00    +0.000 A 
ATOM      2  N   UNL     1       7.253   8.649  17.195  0.00  0.00    +0.000 NA
ATOM      3  C   UNL     1       7.043   7.300  17.346  0.00  0.00    +0.000 A 
ATOM      4  C   UNL     1       6.191   6.419  16.667  0.00  0.00    +0.000 A 
ATOM      5  C   UNL     1       6.215   5.075  17.057  0.00  0.00    +0.000 A 
ATOM      6  C   UNL     1       7.042   4.613  18.084  0.00  0.00    +0.000 A 
ATOM      7  C   UNL     1       7.896   5.484  18.770  0.00  0.00    +0.000 A 
ATOM      8  C   UNL     1       7.852   6.809  18.356  0.00  0.00    +0.000 A 
ATOM      9  O   UNL     1       8.580   7.852  18.849  0.00  0.00    +0.000 OA
ENDROOT
BRANCH   1  16
ATOM     10  C   UNL     1      11.939  13.988  19.626  0.00  0.00    +0.000 C 
ATOM     11  N   UNL     1      10.574  13.952  19.119  0.00  0.00    +0.000 N 
ATOM     12  C   UNL     1      10.198  14.989  18.164  0.00  0.00    +0.000 C 
ATOM     13  C   UNL     1       9.996  12.700  18.888  0.00  0.00    +0.000 A 
ATOM     14  C   UNL     1      10.307  11.601  19.692  0.00  0.00    +0.000 A 
ATOM     15  C   UNL     1       9.720  10.355  19.453  0.00  0.00    +0.000 A 
ATOM     16  C   UNL     1       8.809  10.201  18.414  0.00  0.00    +0.000 A 
ATOM     17  C   UNL     1       8.533  11.339  17.670  0.00  0.00    +0.000 A 
ATOM     18  N   UNL     1       9.096  12.560  17.888  0.00  0.00    +0.000 NA
ENDBRANCH   1  16
BRANCH   5  19
ATOM     19  O   UNL     1       5.416   4.153  16.441  0.00  0.00    +0.000 OA
ATOM     20  H   UNL     1       4.663   3.953  17.021  0.00  0.00    +0.000 HD
ENDBRANCH   5  19
TORSDOF 2
ENDMDL
MODEL 5
REMARK VINA RESULT:      -6.8      0.680      1.405
REMARK  Name = 
REMARK  4 active torsions:
REMARK  status: ('A' for Active; 'I' for Inactive)
REMARK    1  A    between atoms: C_1  and  N_2
REMARK    2  A    between atoms: N_2  and  C_3
REMARK    3  A    between atoms: C_7  and  C_8
REMARK    4  A    between atoms: C_12  and  O_13
REMARK                            x       y       z     vdW  Elec       q    Type
REMARK                         _______ _______ _______ _____ _____    ______ ____
ROOT
ATOM      1  C   UNL     1       2.194   6.835  20.038  0.00  0.00    +0.000 A 
ATOM      2  N   UNL     1       3.220   6.376  19.340  0.00  0.00    +0.000 NA
ATOM      3  C   UNL     1       3.325   5.064  19.733  0.00  0.00    +0.000 A 
ATOM      4  C   UNL     1       4.224   4.059  19.353  0.00  0.00    +0.000 A 
ATOM      5  C   UNL     1       4.072   2.803  19.952  0.00  0.00    +0.000 A 
ATOM      6  C   UNL     1       3.067   2.540  20.887  0.00  0.00    +0.000 A 
ATOM      7  C   UNL     1       2.163   3.536  21.272  0.00  0.00    +0.000 A 
ATOM      8  C   UNL     1       2.343   4.772  20.664  0.00  0.00    +0.000 A 
ATOM      9  O   UNL     1       1.611   5.905  20.864  0.00  0.00    +0.000 OA
ENDROOT
BRANCH   1  16
ATOM     10  C   UNL     1       0.090  12.874  21.124  0.00  0.00    +0.000 C 
ATOM     11  N   UNL     1       0.013  12.055  19.923  0.00  0.00    +0.000 N 
ATOM     12  C   UNL     1       0.189  12.738  18.645  0.00  0.00    +0.000 C 
ATOM     13  C   UNL     1       0.547  10.763  19.979  0.00  0.00    +0.000 A 
ATOM     14  C   UNL     1       0.498  10.011  21.154  0.00  0.00    +0.000 A 
ATOM     15  C   UNL     1       1.031   8.719  21.196  0.00  0.00    +0.000 A 
ATOM     16  C   UNL     1       1.609   8.166  20.059  0.00  0.00    +0.000 A 
ATOM     17  C   UNL     1       1.604   8.962  18.923  0.00  0.00    +0.000 A 
ATOM     18  N   UNL     1       1.090  10.222  18.864  0.00  0.00    +0.000 NA
ENDBRANCH   1  16
BRANCH   5  19
ATOM     19  O   UNL     1       4.912   1.771  19.637  0.00  0.00    +0.000 OA
ATOM     20  H   UNL     1       4.514   0.939  19.943  0.00  0.00    +0.000 HD
ENDBRANCH   5  19
TORSDOF 2
ENDMDL
MODEL 6
REMARK VINA RESULT:      -6.8      2.562      3.264
REMARK  Name = 
REMARK  4 active torsions:
REMARK  status: ('A' for Active; 'I' for Inactive)
REMARK    1  A    between atoms: C_1  and  N_2
REMARK    2  A    between atoms: N_2  and  C_3
REMARK    3  A    between atoms: C_7  and  C_8
REMARK    4  A    between atoms: C_12  and  O_13
REMARK                            x       y       z     vdW  Elec       q    Type
REMARK                         _______ _______ _______ _____ _____    ______ ____
ROOT
ATOM      1  C   UNL     1       2.910   7.074  18.330  0.00  0.00    +0.000 A 
ATOM      2  N   UNL     1       2.967   5.760  18.469  0.00  0.00    +0.000 NA
ATOM      3  C   UNL     1       3.890   5.369  17.530  0.00  0.00    +0.000 A 
ATOM      4  C   UNL     1       4.376   4.100  17.189  0.00  0.00    +0.000 A 
ATOM      5  C   UNL     1       5.325   4.032  16.163  0.00  0.00    +0.000 A 
ATOM      6  C   UNL     1       5.787   5.171  15.498  0.00  0.00    +0.000 A 
ATOM      7  C   UNL     1       5.311   6.443  15.833  0.00  0.00    +0.000 A 
ATOM      8  C   UNL     1       4.367   6.477  16.851  0.00  0.00    +0.000 A 
ATOM      9  O   UNL     1       3.742   7.577  17.361  0.00  0.00    +0.000 OA
ENDROOT
BRANCH   1  16
ATOM     10  C   UNL     1      -1.318  11.456  20.569  0.00  0.00    +0.000 C 
ATOM     11  N   UNL     1      -0.282  10.708  21.267  0.00  0.00    +0.000 N 
ATOM     12  C   UNL     1      -0.591  10.259  22.622  0.00  0.00    +0.000 C 
ATOM     13  C   UNL     1       0.504   9.826  20.519  0.00  0.00    +0.000 A 
ATOM     14  C   UNL     1       0.833  10.100  19.190  0.00  0.00    +0.000 A 
ATOM     15  C   UNL     1       1.623   9.212  18.453  0.00  0.00    +0.000 A 
ATOM     16  C   UNL     1       2.096   8.047  19.044  0.00  0.00    +0.000 A 
ATOM     17  C   UNL     1       1.746   7.848  20.371  0.00  0.00    +0.000 A 
ATOM     18  N   UNL     1       0.978   8.701  21.104  0.00  0.00    +0.000 NA
ENDBRANCH   1  16
BRANCH   5  19
ATOM     19  O   UNL     1       5.844   2.830  15.769  0.00  0.00    +0.000 OA
ATOM     20  H   UNL     1       5.563   2.651  14.856  0.00  0.00    +0.000 HD
ENDBRANCH   5  19
TORSDOF 2
ENDMDL
MODEL 7
REMARK VINA RESULT:      -6.7      2.696      3.537
REMARK  Name = 
REMARK  4 active torsions:
REMARK  status: ('A' for Active; 'I' for Inactive)
REMARK    1  A    between atoms: C_1  and  N_2
REMARK    2  A    between atoms: N_2  and  C_3
REMARK    3  A    between atoms: C_7  and  C_8
REMARK    4  A    between atoms: C_12  and  O_13
REMARK                            x       y       z     vdW  Elec       q    Type
REMARK                         _______ _______ _______ _____ _____    ______ ____
ROOT
ATOM      1  C   UNL     1       3.084   7.016  18.251  0.00  0.00    +0.000 A 
ATOM      2  N   UNL     1       3.999   7.477  17.414  0.00  0.00    +0.000 NA
ATOM      3  C   UNL     1       4.551   6.342  16.873  0.00  0.00    +0.000 A 
ATOM      4  C   UNL     1       5.573   6.175  15.929  0.00  0.00    +0.000 A 
ATOM      5  C   UNL     1       5.920   4.864  15.584  0.00  0.00    +0.000 A 
ATOM      6  C   UNL     1       5.279   3.754  16.140  0.00  0.00    +0.000 A 
ATOM      7  C   UNL     1       4.255   3.908  17.081  0.00  0.00    +0.000 A 
ATOM      8  C   UNL     1       3.939   5.221  17.406  0.00  0.00    +0.000 A 
ATOM      9  O   UNL     1       2.993   5.646  18.292  0.00  0.00    +0.000 OA
ENDROOT
BRANCH   1  16
ATOM     10  C   UNL     1      -0.238   9.985  22.967  0.00  0.00    +0.000 C 
ATOM     11  N   UNL     1      -0.418  10.026  21.522  0.00  0.00    +0.000 N 
ATOM     12  C   UNL     1      -0.812  11.306  20.941  0.00  0.00    +0.000 C 
ATOM     13  C   UNL     1       0.450   9.263  20.734  0.00  0.00    +0.000 A 
ATOM     14  C   UNL     1       0.951   8.041  21.186  0.00  0.00    +0.000 A 
ATOM     15  C   UNL     1       1.816   7.286  20.387  0.00  0.00    +0.000 A 
ATOM     16  C   UNL     1       2.178   7.745  19.126  0.00  0.00    +0.000 A 
ATOM     17  C   UNL     1       1.628   8.957  18.735  0.00  0.00    +0.000 A 
ATOM     18  N   UNL     1       0.785   9.705  19.500  0.00  0.00    +0.000 NA
ENDBRANCH   1  16
BRANCH   5  19
ATOM     19  O   UNL     1       6.910   4.618  14.674  0.00  0.00    +0.000 OA
ATOM     20  H   UNL     1       6.550   4.064  13.961  0.00  0.00    +0.000 HD
ENDBRANCH   5  19
TORSDOF 2
ENDMDL
MODEL 8
REMARK VINA RESULT:      -6.7      2.036      2.360
REMARK  Name = 
REMARK  4 active torsions:
REMARK  status: ('A' for Active; 'I' for Inactive)
REMARK    1  A    between atoms: C_1  and  N_2
REMARK    2  A    between atoms: N_2  and  C_3
REMARK    3  A    between atoms: C_7  and  C_8
REMARK    4  A    between atoms: C_12  and  O_13
REMARK                            x       y       z     vdW  Elec       q    Type
REMARK                         _______ _______ _______ _____ _____    ______ ____
ROOT
ATOM      1  C   UNL     1       2.651   7.280  18.421  0.00  0.00    +0.000 A 
ATOM      2  N   UNL     1       3.694   7.334  17.609  0.00  0.00    +0.000 NA
ATOM      3  C   UNL     1       4.007   6.016  17.385  0.00  0.00    +0.000 A 
ATOM      4  C   UNL     1       5.019   5.427  16.615  0.00  0.00    +0.000 A 
ATOM      5  C   UNL     1       5.080   4.029  16.598  0.00  0.00    +0.000 A 
ATOM      6  C   UNL     1       4.174   3.235  17.306  0.00  0.00    +0.000 A 
ATOM      7  C   UNL     1       3.158   3.812  18.076  0.00  0.00    +0.000 A 
ATOM      8  C   UNL     1       3.128   5.200  18.077  0.00  0.00    +0.000 A 
ATOM      9  O   UNL     1       2.252   6.006  18.744  0.00  0.00    +0.000 OA
ENDROOT
BRANCH   1  16
ATOM     10  C   UNL     1      -1.379  12.064  20.139  0.00  0.00    +0.000 C 
ATOM     11  N   UNL     1      -0.367  11.363  20.918  0.00  0.00    +0.000 N 
ATOM     12  C   UNL     1      -0.682  11.091  22.317  0.00  0.00    +0.000 C 
ATOM     13  C   UNL     1       0.376  10.367  20.276  0.00  0.00    +0.000 A 
ATOM     14  C   UNL     1       0.705  10.468  18.923  0.00  0.00    +0.000 A 
ATOM     15  C   UNL     1       1.451   9.468  18.294  0.00  0.00    +0.000 A 
ATOM     16  C   UNL     1       1.883   8.362  19.017  0.00  0.00    +0.000 A 
ATOM     17  C   UNL     1       1.537   8.337  20.360  0.00  0.00    +0.000 A 
ATOM     18  N   UNL     1       0.811   9.302  20.989  0.00  0.00    +0.000 NA
ENDBRANCH   1  16
BRANCH   5  19
ATOM     19  O   UNL     1       6.041   3.380  15.874  0.00  0.00    +0.000 OA
ATOM     20  H   UNL     1       6.899   3.500  16.313  0.00  0.00    +0.000 HD
ENDBRANCH   5  19
TORSDOF 2
ENDMDL
MODEL 9
REMARK VINA RESULT:      -6.6      2.456      7.323
REMARK  Name = 
REMARK  4 active torsions:
REMARK  status: ('A' for Active; 'I' for Inactive)
REMARK    1  A    between atoms: C_1  and  N_2
REMARK    2  A    between atoms: N_2  and  C_3
REMARK    3  A    between atoms: C_7  and  C_8
REMARK    4  A    between atoms: C_12  and  O_13
REMARK                            x       y       z     vdW  Elec       q    Type
REMARK                         _______ _______ _______ _____ _____    ______ ____
ROOT
ATOM      1  C   UNL     1       1.489   8.055  20.250  0.00  0.00    +0.000 A 
ATOM      2  N   UNL     1       1.241   9.238  19.714  0.00  0.00    +0.000 NA
ATOM      3  C   UNL     1       0.556   9.909  20.698  0.00  0.00    +0.000 A 
ATOM      4  C   UNL     1       0.017  11.202  20.727  0.00  0.00    +0.000 A 
ATOM      5  C   UNL     1      -0.643  11.595  21.897  0.00  0.00    +0.000 A 
ATOM      6  C   UNL     1      -0.765  10.750  23.003  0.00  0.00    +0.000 A 
ATOM      7  C   UNL     1      -0.229   9.458  22.986  0.00  0.00    +0.000 A 
ATOM      8  C   UNL     1       0.415   9.096  21.810  0.00  0.00    +0.000 A 
ATOM      9  O   UNL     1       1.014   7.903  21.530  0.00  0.00    +0.000 OA
ENDROOT
BRANCH   1  16
ATOM     10  C   UNL     1       3.635   2.361  18.000  0.00  0.00    +0.000 C 
ATOM     11  N   UNL     1       4.190   3.700  17.851  0.00  0.00    +0.000 N 
ATOM     12  C   UNL     1       4.799   4.022  16.564  0.00  0.00    +0.000 C 
ATOM     13  C   UNL     1       3.513   4.759  18.464  0.00  0.00    +0.000 A 
ATOM     14  C   UNL     1       2.837   4.582  19.673  0.00  0.00    +0.000 A 
ATOM     15  C   UNL     1       2.167   5.650  20.278  0.00  0.00    +0.000 A 
ATOM     16  C   UNL     1       2.176   6.906  19.682  0.00  0.00    +0.000 A 
ATOM     17  C   UNL     1       2.883   7.013  18.493  0.00  0.00    +0.000 A 
ATOM     18  N   UNL     1       3.541   5.984  17.889  0.00  0.00    +0.000 NA
ENDBRANCH   1  16
BRANCH   5  19
ATOM     19  O   UNL     1      -1.200  12.839  22.002  0.00  0.00    +0.000 OA
ATOM     20  H   UNL     1      -0.681  13.461  21.466  0.00  0.00    +0.000 HD
ENDBRANCH   5  19
TORSDOF 2
ENDMDL
