MODEL 1
REMARK VINA RESULT:      -8.3      0.000      0.000
REMARK  Name = 
REMARK  11 active torsions:
REMARK  status: ('A' for Active; 'I' for Inactive)
REMARK    1  A    between atoms: C_2  and  C_27
REMARK    2  A    between atoms: N_3  and  C_4
REMARK    3  A    between atoms: C_4  and  C_5
REMARK    4  A    between atoms: C_5  and  C_6
REMARK    5  A    between atoms: C_6  and  C_7
REMARK    6  A    between atoms: C_7  and  C_8
REMARK    7  A    between atoms: C_8  and  C_9
REMARK    8  A    between atoms: C_9  and  C_10
REMARK    9  A    between atoms: C_10  and  C_11
REMARK   10  A    between atoms: C_11  and  N_12
REMARK   11  A    between atoms: N_12  and  C_13
REMARK                            x       y       z     vdW  Elec       q    Type
REMARK                         _______ _______ _______ _____ _____    ______ ____
ROOT
ATOM      1  C   UNL     1       2.526   7.171  19.396  0.00  0.00    +0.000 C 
ENDROOT
BRANCH   1   2
ATOM      2  C   UNL     1       1.616   6.097  20.006  0.00  0.00    +0.000 C 
BRANCH   2   3
ATOM      3  C   UNL     1       2.398   5.105  20.853  0.00  0.00    +0.000 C 
BRANCH   3   4
ATOM      4  C   UNL     1       1.948   3.682  20.530  0.00  0.00    +0.000 C 
BRANCH   4   5
ATOM      5  C   UNL     1       2.219   3.332  19.072  0.00  0.00    +0.000 C 
BRANCH   5   6
ATOM      6  C   UNL     1       3.539   2.583  18.945  0.00  0.00    +0.000 C 
BRANCH   6   9
ATOM      7  O   UNL     1       5.123   4.897  18.647  0.00  0.00    +0.000 OA
ATOM      8  C   UNL     1       5.013   4.119  17.715  0.00  0.00    +0.000 C 
ATOM      9  N   UNL     1       4.256   2.956  17.749  0.00  0.00    +0.000 N 
ATOM     10  H   UNL     1       4.374   2.262  17.031  0.00  0.00    +0.000 HD
BRANCH   8  11
ATOM     11  C   UNL     1       5.739   4.394  16.455  0.00  0.00    +0.000 A 
ATOM     12  C   UNL     1       6.782   5.300  16.467  0.00  0.00    +0.000 A 
ATOM     13  N   UNL     1       7.515   5.620  15.370  0.00  0.00    +0.000 NA
ATOM     14  C   UNL     1       7.162   5.019  14.209  0.00  0.00    +0.000 A 
ATOM     15 CL   UNL     1       8.158   5.482  12.885  0.00  0.00    +0.000 Cl
ATOM     16  C   UNL     1       6.107   4.116  14.091  0.00  0.00    +0.000 A 
ATOM     17 CL   UNL     1       5.648   3.384  12.599  0.00  0.00    +0.000 Cl
ATOM     18  C   UNL     1       5.383   3.795  15.237  0.00  0.00    +0.000 A 
ENDBRANCH   8  11
ENDBRANCH   6   9
ENDBRANCH   5   6
ENDBRANCH   4   5
ENDBRANCH   3   4
ENDBRANCH   2   3
ENDBRANCH   1   2
BRANCH   1  19
ATOM     19  C   UNL     1       1.742   8.344  18.789  0.00  0.00    +0.000 C 
BRANCH  19  20
ATOM     20  C   UNL     1       0.974   9.126  19.843  0.00  0.00    +0.000 C 
BRANCH  20  21
ATOM     21  N   UNL     1       0.603  10.458  19.384  0.00  0.00    +0.000 N 
ATOM     22  H   UNL     1       1.117  10.756  18.569  0.00  0.00    +0.000 HD
BRANCH  21  23
ATOM     23  C   UNL     1      -0.709  10.971  19.485  0.00  0.00    +0.000 A 
ATOM     24  C   UNL     1      -1.159  11.740  20.590  0.00  0.00    +0.000 A 
ATOM     25  C   UNL     1      -2.419  12.349  20.508  0.00  0.00    +0.000 A 
ATOM     26  N   UNL     1      -3.256  12.178  19.463  0.00  0.00    +0.000 NA
ATOM     27  C   UNL     1      -2.879  11.401  18.446  0.00  0.00    +0.000 A 
ATOM     28  C   UNL     1      -3.805  11.217  17.427  0.00  0.00    +0.000 A 
ATOM     29  C   UNL     1      -3.544  10.407  16.323  0.00  0.00    +0.000 A 
ATOM     30  C   UNL     1      -2.318   9.773  16.227  0.00  0.00    +0.000 A 
ATOM     31  C   UNL     1      -1.367   9.957  17.235  0.00  0.00    +0.000 A 
ATOM     32  C   UNL     1      -1.616  10.769  18.380  0.00  0.00    +0.000 A 
ATOM     33  C   UNL     1      -2.981  13.204  21.618  0.00  0.00    +0.000 C 
ATOM     34  C   UNL     1      -1.967  13.670  22.653  0.00  0.00    +0.000 C 
ATOM     35  C   UNL     1      -1.077  12.517  23.043  0.00  0.00    +0.000 C 
ATOM     36  C   UNL     1      -0.334  11.999  21.826  0.00  0.00    +0.000 C 
ENDBRANCH  21  23
ENDBRANCH  20  21
ENDBRANCH  19  20
ENDBRANCH   1  19
TORSDOF 11
ENDMDL
MODEL 2
REMARK VINA RESULT:      -8.2      5.526     11.232
REMARK  Name = 
REMARK  11 active torsions:
REMARK  status: ('A' for Active; 'I' for Inactive)
REMARK    1  A    between atoms: C_2  and  C_27
REMARK    2  A    between atoms: N_3  and  C_4
REMARK    3  A    between atoms: C_4  and  C_5
REMARK    4  A    between atoms: C_5  and  C_6
REMARK    5  A    between atoms: C_6  and  C_7
REMARK    6  A    between atoms: C_7  and  C_8
REMARK    7  A    between atoms: C_8  and  C_9
REMARK    8  A    between atoms: C_9  and  C_10
REMARK    9  A    between atoms: C_10  and  C_11
REMARK   10  A    between atoms: C_11  and  N_12
REMARK   11  A    between atoms: N_12  and  C_13
REMARK                            x       y       z     vdW  Elec       q    Type
REMARK                         _______ _______ _______ _____ _____    ______ ____
ROOT
ATOM      1  C   UNL     1       1.472  10.348  18.268  0.00  0.00    +0.000 C 
ENDROOT
BRANCH   1   2
ATOM      2  C   UNL     1      -0.030  10.059  18.387  0.00  0.00    +0.000 C 
BRANCH   2   3
ATOM      3  C   UNL     1      -0.602  10.564  19.703  0.00  0.00    +0.000 C 
BRANCH   3   4
ATOM      4  C   UNL     1       0.389  10.298  20.834  0.00  0.00    +0.000 C 
BRANCH   4   5
ATOM      5  C   UNL     1      -0.195   9.346  21.870  0.00  0.00    +0.000 C 
BRANCH   5   6
ATOM      6  C   UNL     1      -0.398  10.068  23.196  0.00  0.00    +0.000 C 
BRANCH   6   9
ATOM      7  O   UNL     1      -0.364  12.888  23.179  0.00  0.00    +0.000 OA
ATOM      8  C   UNL     1      -1.431  12.298  23.161  0.00  0.00    +0.000 C 
ATOM      9  N   UNL     1      -1.565  10.917  23.174  0.00  0.00    +0.000 N 
ATOM     10  H   UNL     1      -2.451  10.499  22.948  0.00  0.00    +0.000 HD
BRANCH   8  11
ATOM     11  C   UNL     1      -2.687  13.080  23.101  0.00  0.00    +0.000 A 
ATOM     12  C   UNL     1      -2.663  14.344  22.545  0.00  0.00    +0.000 A 
ATOM     13  N   UNL     1      -3.756  15.141  22.436  0.00  0.00    +0.000 NA
ATOM     14  C   UNL     1      -4.915  14.650  22.935  0.00  0.00    +0.000 A 
ATOM     15 CL   UNL     1      -6.241  15.729  22.738  0.00  0.00    +0.000 Cl
ATOM     16  C   UNL     1      -5.033  13.401  23.541  0.00  0.00    +0.000 A 
ATOM     17 CL   UNL     1      -6.508  12.802  24.202  0.00  0.00    +0.000 Cl
ATOM     18  C   UNL     1      -3.896  12.599  23.623  0.00  0.00    +0.000 A 
ENDBRANCH   8  11
ENDBRANCH   6   9
ENDBRANCH   5   6
ENDBRANCH   4   5
ENDBRANCH   3   4
ENDBRANCH   2   3
ENDBRANCH   1   2
BRANCH   1  19
ATOM     19  C   UNL     1       2.293   9.104  17.896  0.00  0.00    +0.000 C 
BRANCH  19  20
ATOM     20  C   UNL     1       1.984   7.922  18.803  0.00  0.00    +0.000 C 
BRANCH  20  21
ATOM     21  N   UNL     1       3.177   7.162  19.148  0.00  0.00    +0.000 N 
ATOM     22  H   UNL     1       3.551   7.397  20.056  0.00  0.00    +0.000 HD
BRANCH  21  23
ATOM     23  C   UNL     1       3.385   5.826  18.744  0.00  0.00    +0.000 A 
ATOM     24  C   UNL     1       2.852   4.710  19.441  0.00  0.00    +0.000 A 
ATOM     25  C   UNL     1       2.967   3.442  18.856  0.00  0.00    +0.000 A 
ATOM     26  N   UNL     1       3.627   3.218  17.700  0.00  0.00    +0.000 NA
ATOM     27  C   UNL     1       4.195   4.244  17.065  0.00  0.00    +0.000 A 
ATOM     28  C   UNL     1       4.908   3.944  15.911  0.00  0.00    +0.000 A 
ATOM     29  C   UNL     1       5.571   4.922  15.171  0.00  0.00    +0.000 A 
ATOM     30  C   UNL     1       5.510   6.240  15.589  0.00  0.00    +0.000 A 
ATOM     31  C   UNL     1       4.785   6.564  16.740  0.00  0.00    +0.000 A 
ATOM     32  C   UNL     1       4.111   5.580  17.520  0.00  0.00    +0.000 A 
ATOM     33  C   UNL     1       2.416   2.196  19.506  0.00  0.00    +0.000 C 
ATOM     34  C   UNL     1       1.415   2.438  20.627  0.00  0.00    +0.000 C 
ATOM     35  C   UNL     1       1.926   3.529  21.534  0.00  0.00    +0.000 C 
ATOM     36  C   UNL     1       2.106   4.815  20.749  0.00  0.00    +0.000 C 
ENDBRANCH  21  23
ENDBRANCH  20  21
ENDBRANCH  19  20
ENDBRANCH   1  19
TORSDOF 11
ENDMDL
MODEL 3
REMARK VINA RESULT:      -8.0      5.459      9.721
REMARK  Name = 
REMARK  11 active torsions:
REMARK  status: ('A' for Active; 'I' for Inactive)
REMARK    1  A    between atoms: C_2  and  C_27
REMARK    2  A    between atoms: N_3  and  C_4
REMARK    3  A    between atoms: C_4  and  C_5
REMARK    4  A    between atoms: C_5  and  C_6
REMARK    5  A    between atoms: C_6  and  C_7
REMARK    6  A    between atoms: C_7  and  C_8
REMARK    7  A    between atoms: C_8  and  C_9
REMARK    8  A    between atoms: C_9  and  C_10
REMARK    9  A    between atoms: C_10  and  C_11
REMARK   10  A    between atoms: C_11  and  N_12
REMARK   11  A    between atoms: N_12  and  C_13
REMARK                            x       y       z     vdW  Elec       q    Type
REMARK                         _______ _______ _______ _____ _____    ______ ____
ROOT
ATOM      1  C   UNL     1       2.176  10.492  18.116  0.00  0.00    +0.000 C 
ENDROOT
BRANCH   1   2
ATOM      2  C   UNL     1       1.039  11.405  18.595  0.00  0.00    +0.000 C 
BRANCH   2   3
ATOM      3  C   UNL     1       1.566  12.707  19.178  0.00  0.00    +0.000 C 
BRANCH   3   4
ATOM      4  C   UNL     1       2.480  13.394  18.167  0.00  0.00    +0.000 C 
BRANCH   4   5
ATOM      5  C   UNL     1       2.615  14.883  18.463  0.00  0.00    +0.000 C 
BRANCH   5   6
ATOM      6  C   UNL     1       3.702  15.498  17.592  0.00  0.00    +0.000 C 
BRANCH   6   9
ATOM      7  O   UNL     1       6.161  16.412  18.626  0.00  0.00    +0.000 OA
ATOM      8  C   UNL     1       6.080  15.282  18.175  0.00  0.00    +0.000 C 
ATOM      9  N   UNL     1       4.925  14.733  17.637  0.00  0.00    +0.000 N 
ATOM     10  H   UNL     1       4.870  13.741  17.478  0.00  0.00    +0.000 HD
BRANCH   8  11
ATOM     11  C   UNL     1       7.272  14.404  18.209  0.00  0.00    +0.000 A 
ATOM     12  C   UNL     1       7.307  13.291  17.393  0.00  0.00    +0.000 A 
ATOM     13  N   UNL     1       8.351  12.426  17.342  0.00  0.00    +0.000 NA
ATOM     14  C   UNL     1       9.391  12.682  18.172  0.00  0.00    +0.000 A 
ATOM     15 CL   UNL     1      10.666  11.536  18.024  0.00  0.00    +0.000 Cl
ATOM     16  C   UNL     1       9.434  13.761  19.052  0.00  0.00    +0.000 A 
ATOM     17 CL   UNL     1      10.749  14.056  20.127  0.00  0.00    +0.000 Cl
ATOM     18  C   UNL     1       8.354  14.641  19.069  0.00  0.00    +0.000 A 
ENDBRANCH   8  11
ENDBRANCH   6   9
ENDBRANCH   5   6
ENDBRANCH   4   5
ENDBRANCH   3   4
ENDBRANCH   2   3
ENDBRANCH   1   2
BRANCH   1  19
ATOM     19  C   UNL     1       1.685   9.101  17.686  0.00  0.00    +0.000 C 
BRANCH  19  20
ATOM     20  C   UNL     1       2.107   8.018  18.666  0.00  0.00    +0.000 C 
BRANCH  20  21
ATOM     21  N   UNL     1       2.376   6.748  18.006  0.00  0.00    +0.000 N 
ATOM     22  H   UNL     1       2.341   6.806  16.999  0.00  0.00    +0.000 HD
BRANCH  21  23
ATOM     23  C   UNL     1       3.276   5.788  18.517  0.00  0.00    +0.000 A 
ATOM     24  C   UNL     1       2.870   4.696  19.329  0.00  0.00    +0.000 A 
ATOM     25  C   UNL     1       3.814   3.706  19.634  0.00  0.00    +0.000 A 
ATOM     26  N   UNL     1       5.109   3.778  19.258  0.00  0.00    +0.000 NA
ATOM     27  C   UNL     1       5.526   4.832  18.555  0.00  0.00    +0.000 A 
ATOM     28  C   UNL     1       6.880   4.879  18.247  0.00  0.00    +0.000 A 
ATOM     29  C   UNL     1       7.445   5.938  17.541  0.00  0.00    +0.000 A 
ATOM     30  C   UNL     1       6.634   6.976  17.119  0.00  0.00    +0.000 A 
ATOM     31  C   UNL     1       5.266   6.941  17.406  0.00  0.00    +0.000 A 
ATOM     32  C   UNL     1       4.667   5.875  18.139  0.00  0.00    +0.000 A 
ATOM     33  C   UNL     1       3.478   2.495  20.470  0.00  0.00    +0.000 C 
ATOM     34  C   UNL     1       1.991   2.221  20.645  0.00  0.00    +0.000 C 
ATOM     35  C   UNL     1       1.274   3.509  20.963  0.00  0.00    +0.000 C 
ATOM     36  C   UNL     1       1.461   4.501  19.830  0.00  0.00    +0.000 C 
ENDBRANCH  21  23
ENDBRANCH  20  21
ENDBRANCH  19  20
ENDBRANCH   1  19
TORSDOF 11
ENDMDL
MODEL 4
REMARK VINA RESULT:      -7.8      4.510     10.067
REMARK  Name = 
REMARK  11 active torsions:
REMARK  status: ('A' for Active; 'I' for Inactive)
REMARK    1  A    between atoms: C_2  and  C_27
REMARK    2  A    between atoms: N_3  and  C_4
REMARK    3  A    between atoms: C_4  and  C_5
REMARK    4  A    between atoms: C_5  and  C_6
REMARK    5  A    between atoms: C_6  and  C_7
REMARK    6  A    between atoms: C_7  and  C_8
REMARK    7  A    between atoms: C_8  and  C_9
REMARK    8  A    between atoms: C_9  and  C_10
REMARK    9  A    between atoms: C_10  and  C_11
REMARK   10  A    between atoms: C_11  and  N_12
REMARK   11  A    between atoms: N_12  and  C_13
REMARK                            x       y       z     vdW  Elec       q    Type
REMARK                         _______ _______ _______ _____ _____    ______ ____
ROOT
ATOM      1  C   UNL     1       1.590   8.420  21.224  0.00  0.00    +0.000 C 
ENDROOT
BRANCH   1   2
ATOM      2  C   UNL     1       1.015   9.255  22.375  0.00  0.00    +0.000 C 
BRANCH   2   3
ATOM      3  C   UNL     1      -0.502   9.345  22.309  0.00  0.00    +0.000 C 
BRANCH   3   4
ATOM      4  C   UNL     1      -0.988  10.512  23.165  0.00  0.00    +0.000 C 
BRANCH   4   5
ATOM      5  C   UNL     1      -1.437  11.684  22.301  0.00  0.00    +0.000 C 
BRANCH   5   6
ATOM      6  C   UNL     1      -0.952  12.998  22.900  0.00  0.00    +0.000 C 
BRANCH   6   9
ATOM      7  O   UNL     1       1.518  13.030  21.540  0.00  0.00    +0.000 OA
ATOM      8  C   UNL     1       0.672  13.865  21.271  0.00  0.00    +0.000 C 
ATOM      9  N   UNL     1      -0.572  13.946  21.881  0.00  0.00    +0.000 N 
ATOM     10  H   UNL     1      -1.293  14.517  21.472  0.00  0.00    +0.000 HD
BRANCH   8  11
ATOM     11  C   UNL     1       0.951  14.861  20.212  0.00  0.00    +0.000 A 
ATOM     12  C   UNL     1       0.067  15.905  20.024  0.00  0.00    +0.000 A 
ATOM     13  N   UNL     1       0.232  16.873  19.087  0.00  0.00    +0.000 NA
ATOM     14  C   UNL     1       1.321  16.765  18.290  0.00  0.00    +0.000 A 
ATOM     15 CL   UNL     1       1.445  18.045  17.146  0.00  0.00    +0.000 Cl
ATOM     16  C   UNL     1       2.252  15.733  18.382  0.00  0.00    +0.000 A 
ATOM     17 CL   UNL     1       3.617  15.589  17.339  0.00  0.00    +0.000 Cl
ATOM     18  C   UNL     1       2.065  14.763  19.365  0.00  0.00    +0.000 A 
ENDBRANCH   8  11
ENDBRANCH   6   9
ENDBRANCH   5   6
ENDBRANCH   4   5
ENDBRANCH   3   4
ENDBRANCH   2   3
ENDBRANCH   1   2
BRANCH   1  19
ATOM     19  C   UNL     1       1.225   8.980  19.840  0.00  0.00    +0.000 C 
BRANCH  19  20
ATOM     20  C   UNL     1       1.857   8.177  18.713  0.00  0.00    +0.000 C 
BRANCH  20  21
ATOM     21  N   UNL     1       2.916   7.296  19.187  0.00  0.00    +0.000 N 
ATOM     22  H   UNL     1       3.114   7.403  20.171  0.00  0.00    +0.000 HD
BRANCH  21  23
ATOM     23  C   UNL     1       3.128   5.998  18.673  0.00  0.00    +0.000 A 
ATOM     24  C   UNL     1       2.431   4.853  19.141  0.00  0.00    +0.000 A 
ATOM     25  C   UNL     1       2.587   3.648  18.443  0.00  0.00    +0.000 A 
ATOM     26  N   UNL     1       3.425   3.504  17.394  0.00  0.00    +0.000 NA
ATOM     27  C   UNL     1       4.142   4.551  16.984  0.00  0.00    +0.000 A 
ATOM     28  C   UNL     1       5.029   4.328  15.938  0.00  0.00    +0.000 A 
ATOM     29  C   UNL     1       5.854   5.332  15.435  0.00  0.00    +0.000 A 
ATOM     30  C   UNL     1       5.782   6.600  15.984  0.00  0.00    +0.000 A 
ATOM     31  C   UNL     1       4.886   6.849  17.028  0.00  0.00    +0.000 A 
ATOM     32  C   UNL     1       4.042   5.835  17.568  0.00  0.00    +0.000 A 
ATOM     33  C   UNL     1       1.875   2.379  18.845  0.00  0.00    +0.000 C 
ATOM     34  C   UNL     1       0.708   2.568  19.804  0.00  0.00    +0.000 C 
ATOM     35  C   UNL     1       1.105   3.523  20.902  0.00  0.00    +0.000 C 
ATOM     36  C   UNL     1       1.477   4.870  20.309  0.00  0.00    +0.000 C 
ENDBRANCH  21  23
ENDBRANCH  20  21
ENDBRANCH  19  20
ENDBRANCH   1  19
TORSDOF 11
ENDMDL
MODEL 5
REMARK VINA RESULT:      -7.8      1.069      1.624
REMARK  Name = 
REMARK  11 active torsions:
REMARK  status: ('A' for Active; 'I' for Inactive)
REMARK    1  A    between atoms: C_2  and  C_27
REMARK    2  A    between atoms: N_3  and  C_4
REMARK    3  A    between atoms: C_4  and  C_5
REMARK    4  A    between atoms: C_5  and  C_6
REMARK    5  A    between atoms: C_6  and  C_7
REMARK    6  A    between atoms: C_7  and  C_8
REMARK    7  A    between atoms: C_8  and  C_9
REMARK    8  A    between atoms: C_9  and  C_10
REMARK    9  A    between atoms: C_10  and  C_11
REMARK   10  A    between atoms: C_11  and  N_12
REMARK   11  A    between atoms: N_12  and  C_13
REMARK                            x       y       z     vdW  Elec       q    Type
REMARK                         _______ _______ _______ _____ _____    ______ ____
ROOT
ATOM      1  C   UNL     1       1.224   8.933  20.431  0.00  0.00    +0.000 C 
ENDROOT
BRANCH   1   2
ATOM      2  C   UNL     1       1.904   7.565  20.287  0.00  0.00    +0.000 C 
BRANCH   2   3
ATOM      3  C   UNL     1       2.507   7.374  18.904  0.00  0.00    +0.000 C 
BRANCH   3   4
ATOM      4  C   UNL     1       2.204   5.966  18.398  0.00  0.00    +0.000 C 
BRANCH   4   5
ATOM      5  C   UNL     1       2.198   4.956  19.540  0.00  0.00    +0.000 C 
BRANCH   5   6
ATOM      6  C   UNL     1       3.308   3.931  19.344  0.00  0.00    +0.000 C 
BRANCH   6   9
ATOM      7  O   UNL     1       5.850   5.076  18.926  0.00  0.00    +0.000 OA
ATOM      8  C   UNL     1       5.216   4.653  17.974  0.00  0.00    +0.000 C 
ATOM      9  N   UNL     1       3.956   4.078  18.064  0.00  0.00    +0.000 N 
ATOM     10  H   UNL     1       3.584   3.567  17.282  0.00  0.00    +0.000 HD
BRANCH   8  11
ATOM     11  C   UNL     1       5.812   4.726  16.621  0.00  0.00    +0.000 A 
ATOM     12  C   UNL     1       6.984   5.435  16.442  0.00  0.00    +0.000 A 
ATOM     13  N   UNL     1       7.614   5.559  15.247  0.00  0.00    +0.000 NA
ATOM     14  C   UNL     1       7.022   4.965  14.184  0.00  0.00    +0.000 A 
ATOM     15 CL   UNL     1       7.904   5.171  12.722  0.00  0.00    +0.000 Cl
ATOM     16  C   UNL     1       5.825   4.254  14.260  0.00  0.00    +0.000 A 
ATOM     17 CL   UNL     1       5.064   3.531  12.892  0.00  0.00    +0.000 Cl
ATOM     18  C   UNL     1       5.210   4.130  15.503  0.00  0.00    +0.000 A 
ENDBRANCH   8  11
ENDBRANCH   6   9
ENDBRANCH   5   6
ENDBRANCH   4   5
ENDBRANCH   3   4
ENDBRANCH   2   3
ENDBRANCH   1   2
BRANCH   1  19
ATOM     19  C   UNL     1       1.066   9.372  21.894  0.00  0.00    +0.000 C 
BRANCH  19  20
ATOM     20  C   UNL     1      -0.150  10.263  22.096  0.00  0.00    +0.000 C 
BRANCH  20  21
ATOM     21  N   UNL     1      -0.342  11.196  20.995  0.00  0.00    +0.000 N 
ATOM     22  H   UNL     1       0.352  11.104  20.269  0.00  0.00    +0.000 HD
BRANCH  21  23
ATOM     23  C   UNL     1      -1.615  11.619  20.555  0.00  0.00    +0.000 A 
ATOM     24  C   UNL     1      -2.461  12.465  21.320  0.00  0.00    +0.000 A 
ATOM     25  C   UNL     1      -3.622  12.967  20.716  0.00  0.00    +0.000 A 
ATOM     26  N   UNL     1      -4.015  12.626  19.470  0.00  0.00    +0.000 NA
ATOM     27  C   UNL     1      -3.269  11.777  18.761  0.00  0.00    +0.000 A 
ATOM     28  C   UNL     1      -3.753  11.420  17.510  0.00  0.00    +0.000 A 
ATOM     29  C   UNL     1      -3.082  10.521  16.682  0.00  0.00    +0.000 A 
ATOM     30  C   UNL     1      -1.887   9.972  17.112  0.00  0.00    +0.000 A 
ATOM     31  C   UNL     1      -1.376  10.330  18.363  0.00  0.00    +0.000 A 
ATOM     32  C   UNL     1      -2.050  11.237  19.232  0.00  0.00    +0.000 A 
ATOM     33  C   UNL     1      -4.576  13.889  21.436  0.00  0.00    +0.000 C 
ATOM     34  C   UNL     1      -4.024  14.534  22.700  0.00  0.00    +0.000 C 
ATOM     35  C   UNL     1      -3.303  13.497  23.523  0.00  0.00    +0.000 C 
ATOM     36  C   UNL     1      -2.151  12.911  22.727  0.00  0.00    +0.000 C 
ENDBRANCH  21  23
ENDBRANCH  20  21
ENDBRANCH  19  20
ENDBRANCH   1  19
TORSDOF 11
ENDMDL
MODEL 6
REMARK VINA RESULT:      -7.8      2.533      3.678
REMARK  Name = 
REMARK  11 active torsions:
REMARK  status: ('A' for Active; 'I' for Inactive)
REMARK    1  A    between atoms: C_2  and  C_27
REMARK    2  A    between atoms: N_3  and  C_4
REMARK    3  A    between atoms: C_4  and  C_5
REMARK    4  A    between atoms: C_5  and  C_6
REMARK    5  A    between atoms: C_6  and  C_7
REMARK    6  A    between atoms: C_7  and  C_8
REMARK    7  A    between atoms: C_8  and  C_9
REMARK    8  A    between atoms: C_9  and  C_10
REMARK    9  A    between atoms: C_10  and  C_11
REMARK   10  A    between atoms: C_11  and  N_12
REMARK   11  A    between atoms: N_12  and  C_13
REMARK                            x       y       z     vdW  Elec       q    Type
REMARK                         _______ _______ _______ _____ _____    ______ ____
ROOT
ATOM      1  C   UNL     1       2.302   8.152  18.723  0.00  0.00    +0.000 C 
ENDROOT
BRANCH   1   2
ATOM      2  C   UNL     1       2.021   7.256  19.936  0.00  0.00    +0.000 C 
BRANCH   2   3
ATOM      3  C   UNL     1       2.756   5.927  19.842  0.00  0.00    +0.000 C 
BRANCH   3   4
ATOM      4  C   UNL     1       1.767   4.776  20.006  0.00  0.00    +0.000 C 
BRANCH   4   5
ATOM      5  C   UNL     1       1.809   3.834  18.810  0.00  0.00    +0.000 C 
BRANCH   5   6
ATOM      6  C   UNL     1       3.158   3.130  18.738  0.00  0.00    +0.000 C 
BRANCH   6   9
ATOM      7  O   UNL     1       5.795   4.128  18.717  0.00  0.00    +0.000 OA
ATOM      8  C   UNL     1       5.198   3.983  17.664  0.00  0.00    +0.000 C 
ATOM      9  N   UNL     1       3.899   3.508  17.558  0.00  0.00    +0.000 N 
ATOM     10  H   UNL     1       3.544   3.217  16.663  0.00  0.00    +0.000 HD
BRANCH   8  11
ATOM     11  C   UNL     1       5.886   4.308  16.394  0.00  0.00    +0.000 A 
ATOM     12  C   UNL     1       6.896   5.250  16.401  0.00  0.00    +0.000 A 
ATOM     13  N   UNL     1       7.592   5.617  15.296  0.00  0.00    +0.000 NA
ATOM     14  C   UNL     1       7.234   5.026  14.131  0.00  0.00    +0.000 A 
ATOM     15 CL   UNL     1       8.183   5.550  12.794  0.00  0.00    +0.000 Cl
ATOM     16  C   UNL     1       6.210   4.089  14.018  0.00  0.00    +0.000 A 
ATOM     17 CL   UNL     1       5.742   3.370  12.522  0.00  0.00    +0.000 Cl
ATOM     18  C   UNL     1       5.524   3.721  15.173  0.00  0.00    +0.000 A 
ENDBRANCH   8  11
ENDBRANCH   6   9
ENDBRANCH   5   6
ENDBRANCH   4   5
ENDBRANCH   3   4
ENDBRANCH   2   3
ENDBRANCH   1   2
BRANCH   1  19
ATOM     19  C   UNL     1       1.211   9.209  18.495  0.00  0.00    +0.000 C 
BRANCH  19  20
ATOM     20  C   UNL     1       1.795  10.594  18.261  0.00  0.00    +0.000 C 
BRANCH  20  21
ATOM     21  N   UNL     1       0.800  11.647  18.411  0.00  0.00    +0.000 N 
ATOM     22  H   UNL     1      -0.146  11.326  18.266  0.00  0.00    +0.000 HD
BRANCH  21  23
ATOM     23  C   UNL     1       0.935  12.713  19.327  0.00  0.00    +0.000 A 
ATOM     24  C   UNL     1       1.739  13.856  19.076  0.00  0.00    +0.000 A 
ATOM     25  C   UNL     1       1.663  14.932  19.970  0.00  0.00    +0.000 A 
ATOM     26  N   UNL     1       0.922  14.905  21.099  0.00  0.00    +0.000 NA
ATOM     27  C   UNL     1       0.214  13.812  21.388  0.00  0.00    +0.000 A 
ATOM     28  C   UNL     1      -0.483  13.821  22.589  0.00  0.00    +0.000 A 
ATOM     29  C   UNL     1      -1.237  12.731  23.019  0.00  0.00    +0.000 A 
ATOM     30  C   UNL     1      -1.308  11.604  22.221  0.00  0.00    +0.000 A 
ATOM     31  C   UNL     1      -0.625  11.579  21.001  0.00  0.00    +0.000 A 
ATOM     32  C   UNL     1       0.163  12.677  20.546  0.00  0.00    +0.000 A 
ATOM     33  C   UNL     1       2.460  16.200  19.783  0.00  0.00    +0.000 C 
ATOM     34  C   UNL     1       3.052  16.394  18.394  0.00  0.00    +0.000 C 
ATOM     35  C   UNL     1       3.676  15.103  17.926  0.00  0.00    +0.000 C 
ATOM     36  C   UNL     1       2.624  14.011  17.864  0.00  0.00    +0.000 C 
ENDBRANCH  21  23
ENDBRANCH  20  21
ENDBRANCH  19  20
ENDBRANCH   1  19
TORSDOF 11
ENDMDL
MODEL 7
REMARK VINA RESULT:      -7.8      1.521      1.855
REMARK  Name = 
REMARK  11 active torsions:
REMARK  status: ('A' for Active; 'I' for Inactive)
REMARK    1  A    between atoms: C_2  and  C_27
REMARK    2  A    between atoms: N_3  and  C_4
REMARK    3  A    between atoms: C_4  and  C_5
REMARK    4  A    between atoms: C_5  and  C_6
REMARK    5  A    between atoms: C_6  and  C_7
REMARK    6  A    between atoms: C_7  and  C_8
REMARK    7  A    between atoms: C_8  and  C_9
REMARK    8  A    between atoms: C_9  and  C_10
REMARK    9  A    between atoms: C_10  and  C_11
REMARK   10  A    between atoms: C_11  and  N_12
REMARK   11  A    between atoms: N_12  and  C_13
REMARK                            x       y       z     vdW  Elec       q    Type
REMARK                         _______ _______ _______ _____ _____    ______ ____
ROOT
ATOM      1  C   UNL     1       1.893   7.473  21.067  0.00  0.00    +0.000 C 
ENDROOT
BRANCH   1   2
ATOM      2  C   UNL     1       1.895   6.203  20.208  0.00  0.00    +0.000 C 
BRANCH   2   3
ATOM      3  C   UNL     1       1.783   4.944  21.055  0.00  0.00    +0.000 C 
BRANCH   3   4
ATOM      4  C   UNL     1       0.871   3.934  20.363  0.00  0.00    +0.000 C 
BRANCH   4   5
ATOM      5  C   UNL     1       1.356   2.507  20.583  0.00  0.00    +0.000 C 
BRANCH   5   6
ATOM      6  C   UNL     1       2.083   1.998  19.345  0.00  0.00    +0.000 C 
BRANCH   6   9
ATOM      7  O   UNL     1       4.801   2.328  20.019  0.00  0.00    +0.000 OA
ATOM      8  C   UNL     1       4.292   3.065  19.192  0.00  0.00    +0.000 C 
ATOM      9  N   UNL     1       2.965   2.997  18.791  0.00  0.00    +0.000 N 
ATOM     10  H   UNL     1       2.667   3.488  17.965  0.00  0.00    +0.000 HD
BRANCH   8  11
ATOM     11  C   UNL     1       5.124   4.100  18.538  0.00  0.00    +0.000 A 
ATOM     12  C   UNL     1       5.795   5.015  19.325  0.00  0.00    +0.000 A 
ATOM     13  N   UNL     1       6.587   5.999  18.829  0.00  0.00    +0.000 NA
ATOM     14  C   UNL     1       6.683   6.077  17.480  0.00  0.00    +0.000 A 
ATOM     15 CL   UNL     1       7.718   7.347  16.953  0.00  0.00    +0.000 Cl
ATOM     16  C   UNL     1       6.021   5.220  16.604  0.00  0.00    +0.000 A 
ATOM     17 CL   UNL     1       6.126   5.351  14.888  0.00  0.00    +0.000 Cl
ATOM     18  C   UNL     1       5.228   4.210  17.143  0.00  0.00    +0.000 A 
ENDBRANCH   8  11
ENDBRANCH   6   9
ENDBRANCH   5   6
ENDBRANCH   4   5
ENDBRANCH   3   4
ENDBRANCH   2   3
ENDBRANCH   1   2
BRANCH   1  19
ATOM     19  C   UNL     1       1.604   8.745  20.254  0.00  0.00    +0.000 C 
BRANCH  19  20
ATOM     20  C   UNL     1       0.189   9.256  20.476  0.00  0.00    +0.000 C 
BRANCH  20  21
ATOM     21  N   UNL     1      -0.074  10.492  19.750  0.00  0.00    +0.000 N 
ATOM     22  H   UNL     1       0.490  10.594  18.920  0.00  0.00    +0.000 HD
BRANCH  21  23
ATOM     23  C   UNL     1      -1.350  11.091  19.683  0.00  0.00    +0.000 A 
ATOM     24  C   UNL     1      -1.885  11.901  20.720  0.00  0.00    +0.000 A 
ATOM     25  C   UNL     1      -3.080  12.590  20.477  0.00  0.00    +0.000 A 
ATOM     26  N   UNL     1      -3.789  12.462  19.335  0.00  0.00    +0.000 NA
ATOM     27  C   UNL     1      -3.340  11.650  18.377  0.00  0.00    +0.000 A 
ATOM     28  C   UNL     1      -4.139  11.515  17.249  0.00  0.00    +0.000 A 
ATOM     29  C   UNL     1      -3.796  10.678  16.190  0.00  0.00    +0.000 A 
ATOM     30  C   UNL     1      -2.612   9.964  16.252  0.00  0.00    +0.000 A 
ATOM     31  C   UNL     1      -1.786  10.096  17.372  0.00  0.00    +0.000 A 
ATOM     32  C   UNL     1      -2.123  10.936  18.473  0.00  0.00    +0.000 A 
ATOM     33  C   UNL     1      -3.720  13.492  21.504  0.00  0.00    +0.000 C 
ATOM     34  C   UNL     1      -2.815  13.903  22.658  0.00  0.00    +0.000 C 
ATOM     35  C   UNL     1      -2.060  12.698  23.162  0.00  0.00    +0.000 C 
ATOM     36  C   UNL     1      -1.206  12.119  22.049  0.00  0.00    +0.000 C 
ENDBRANCH  21  23
ENDBRANCH  20  21
ENDBRANCH  19  20
ENDBRANCH   1  19
TORSDOF 11
ENDMDL
MODEL 8
REMARK VINA RESULT:      -7.8      1.190      3.370
REMARK  Name = 
REMARK  11 active torsions:
REMARK  status: ('A' for Active; 'I' for Inactive)
REMARK    1  A    between atoms: C_2  and  C_27
REMARK    2  A    between atoms: N_3  and  C_4
REMARK    3  A    between atoms: C_4  and  C_5
REMARK    4  A    between atoms: C_5  and  C_6
REMARK    5  A    between atoms: C_6  and  C_7
REMARK    6  A    between atoms: C_7  and  C_8
REMARK    7  A    between atoms: C_8  and  C_9
REMARK    8  A    between atoms: C_9  and  C_10
REMARK    9  A    between atoms: C_10  and  C_11
REMARK   10  A    between atoms: C_11  and  N_12
REMARK   11  A    between atoms: N_12  and  C_13
REMARK                            x       y       z     vdW  Elec       q    Type
REMARK                         _______ _______ _______ _____ _____    ______ ____
ROOT
ATOM      1  C   UNL     1       1.704   8.367  17.640  0.00  0.00    +0.000 C 
ENDROOT
BRANCH   1   2
ATOM      2  C   UNL     1       3.196   8.060  17.820  0.00  0.00    +0.000 C 
BRANCH   2   3
ATOM      3  C   UNL     1       3.430   6.971  18.856  0.00  0.00    +0.000 C 
BRANCH   3   4
ATOM      4  C   UNL     1       2.388   5.867  18.690  0.00  0.00    +0.000 C 
BRANCH   4   5
ATOM      5  C   UNL     1       2.655   4.705  19.639  0.00  0.00    +0.000 C 
BRANCH   5   6
ATOM      6  C   UNL     1       3.068   3.467  18.854  0.00  0.00    +0.000 C 
BRANCH   6   9
ATOM      7  O   UNL     1       5.831   4.025  18.773  0.00  0.00    +0.000 OA
ATOM      8  C   UNL     1       5.180   4.057  17.742  0.00  0.00    +0.000 C 
ATOM      9  N   UNL     1       3.817   3.806  17.668  0.00  0.00    +0.000 N 
ATOM     10  H   UNL     1       3.387   3.644  16.773  0.00  0.00    +0.000 HD
BRANCH   8  11
ATOM     11  C   UNL     1       5.864   4.360  16.465  0.00  0.00    +0.000 A 
ATOM     12  C   UNL     1       6.901   5.272  16.462  0.00  0.00    +0.000 A 
ATOM     13  N   UNL     1       7.598   5.617  15.349  0.00  0.00    +0.000 NA
ATOM     14  C   UNL     1       7.211   5.037  14.188  0.00  0.00    +0.000 A 
ATOM     15 CL   UNL     1       8.161   5.531  12.842  0.00  0.00    +0.000 Cl
ATOM     16  C   UNL     1       6.158   4.131  14.086  0.00  0.00    +0.000 A 
ATOM     17 CL   UNL     1       5.654   3.426  12.596  0.00  0.00    +0.000 Cl
ATOM     18  C   UNL     1       5.472   3.784  15.248  0.00  0.00    +0.000 A 
ENDBRANCH   8  11
ENDBRANCH   6   9
ENDBRANCH   5   6
ENDBRANCH   4   5
ENDBRANCH   3   4
ENDBRANCH   2   3
ENDBRANCH   1   2
BRANCH   1  19
ATOM     19  C   UNL     1       1.302   9.736  18.212  0.00  0.00    +0.000 C 
BRANCH  19  20
ATOM     20  C   UNL     1      -0.195   9.983  18.107  0.00  0.00    +0.000 C 
BRANCH  20  21
ATOM     21  N   UNL     1      -0.523  11.402  18.105  0.00  0.00    +0.000 N 
ATOM     22  H   UNL     1      -0.364  11.847  17.213  0.00  0.00    +0.000 HD
BRANCH  21  23
ATOM     23  C   UNL     1      -1.576  11.951  18.868  0.00  0.00    +0.000 A 
ATOM     24  C   UNL     1      -2.942  11.843  18.499  0.00  0.00    +0.000 A 
ATOM     25  C   UNL     1      -3.915  12.267  19.415  0.00  0.00    +0.000 A 
ATOM     26  N   UNL     1      -3.615  12.843  20.599  0.00  0.00    +0.000 NA
ATOM     27  C   UNL     1      -2.335  13.018  20.933  0.00  0.00    +0.000 A 
ATOM     28  C   UNL     1      -2.089  13.668  22.135  0.00  0.00    +0.000 A 
ATOM     29  C   UNL     1      -0.797  13.936  22.585  0.00  0.00    +0.000 A 
ATOM     30  C   UNL     1       0.281  13.532  21.817  0.00  0.00    +0.000 A 
ATOM     31  C   UNL     1       0.055  12.864  20.610  0.00  0.00    +0.000 A 
ATOM     32  C   UNL     1      -1.258  12.591  20.123  0.00  0.00    +0.000 A 
ATOM     33  C   UNL     1      -5.394  12.175  19.129  0.00  0.00    +0.000 C 
ATOM     34  C   UNL     1      -5.774  11.265  17.969  0.00  0.00    +0.000 C 
ATOM     35  C   UNL     1      -4.852  11.522  16.803  0.00  0.00    +0.000 C 
ATOM     36  C   UNL     1      -3.417  11.235  17.202  0.00  0.00    +0.000 C 
ENDBRANCH  21  23
ENDBRANCH  20  21
ENDBRANCH  19  20
ENDBRANCH   1  19
TORSDOF 11
ENDMDL
MODEL 9
REMARK VINA RESULT:      -7.7      1.523      3.707
REMARK  Name = 
REMARK  11 active torsions:
REMARK  status: ('A' for Active; 'I' for Inactive)
REMARK    1  A    between atoms: C_2  and  C_27
REMARK    2  A    between atoms: N_3  and  C_4
REMARK    3  A    between atoms: C_4  and  C_5
REMARK    4  A    between atoms: C_5  and  C_6
REMARK    5  A    between atoms: C_6  and  C_7
REMARK    6  A    between atoms: C_7  and  C_8
REMARK    7  A    between atoms: C_8  and  C_9
REMARK    8  A    between atoms: C_9  and  C_10
REMARK    9  A    between atoms: C_10  and  C_11
REMARK   10  A    between atoms: C_11  and  N_12
REMARK   11  A    between atoms: N_12  and  C_13
REMARK                            x       y       z     vdW  Elec       q    Type
REMARK                         _______ _______ _______ _____ _____    ______ ____
ROOT
ATOM      1  C   UNL     1       2.530   7.707  18.957  0.00  0.00    +0.000 C 
ENDROOT
BRANCH   1   2
ATOM      2  C   UNL     1       1.825   6.362  19.176  0.00  0.00    +0.000 C 
BRANCH   2   3
ATOM      3  C   UNL     1       1.584   6.082  20.651  0.00  0.00    +0.000 C 
BRANCH   3   4
ATOM      4  C   UNL     1       2.226   4.752  21.037  0.00  0.00    +0.000 C 
BRANCH   4   5
ATOM      5  C   UNL     1       1.263   3.590  20.827  0.00  0.00    +0.000 C 
BRANCH   5   6
ATOM      6  C   UNL     1       1.935   2.486  20.020  0.00  0.00    +0.000 C 
BRANCH   6   9
ATOM      7  O   UNL     1       1.972   3.217  17.296  0.00  0.00    +0.000 OA
ATOM      8  C   UNL     1       2.992   3.309  17.958  0.00  0.00    +0.000 C 
ATOM      9  N   UNL     1       3.089   2.971  19.301  0.00  0.00    +0.000 N 
ATOM     10  H   UNL     1       3.890   3.265  19.833  0.00  0.00    +0.000 HD
BRANCH   8  11
ATOM     11  C   UNL     1       4.221   3.831  17.321  0.00  0.00    +0.000 A 
ATOM     12  C   UNL     1       4.446   3.567  15.984  0.00  0.00    +0.000 A 
ATOM     13  N   UNL     1       5.537   4.003  15.303  0.00  0.00    +0.000 NA
ATOM     14  C   UNL     1       6.449   4.711  16.009  0.00  0.00    +0.000 A 
ATOM     15 CL   UNL     1       7.785   5.226  15.055  0.00  0.00    +0.000 Cl
ATOM     16  C   UNL     1       6.326   5.001  17.367  0.00  0.00    +0.000 A 
ATOM     17 CL   UNL     1       7.512   5.875  18.262  0.00  0.00    +0.000 Cl
ATOM     18  C   UNL     1       5.188   4.555  18.035  0.00  0.00    +0.000 A 
ENDBRANCH   8  11
ENDBRANCH   6   9
ENDBRANCH   5   6
ENDBRANCH   4   5
ENDBRANCH   3   4
ENDBRANCH   2   3
ENDBRANCH   1   2
BRANCH   1  19
ATOM     19  C   UNL     1       1.846   8.573  17.887  0.00  0.00    +0.000 C 
BRANCH  19  20
ATOM     20  C   UNL     1       1.266   9.851  18.472  0.00  0.00    +0.000 C 
BRANCH  20  21
ATOM     21  N   UNL     1       0.002   9.622  19.160  0.00  0.00    +0.000 N 
ATOM     22  H   UNL     1       0.105   9.104  20.020  0.00  0.00    +0.000 HD
BRANCH  21  23
ATOM     23  C   UNL     1      -1.064  10.546  19.143  0.00  0.00    +0.000 A 
ATOM     24  C   UNL     1      -1.979  10.659  18.063  0.00  0.00    +0.000 A 
ATOM     25  C   UNL     1      -3.102  11.481  18.225  0.00  0.00    +0.000 A 
ATOM     26  N   UNL     1      -3.318  12.231  19.327  0.00  0.00    +0.000 NA
ATOM     27  C   UNL     1      -2.433  12.193  20.324  0.00  0.00    +0.000 A 
ATOM     28  C   UNL     1      -2.678  13.028  21.406  0.00  0.00    +0.000 A 
ATOM     29  C   UNL     1      -1.816  13.102  22.499  0.00  0.00    +0.000 A 
ATOM     30  C   UNL     1      -0.682  12.310  22.517  0.00  0.00    +0.000 A 
ATOM     31  C   UNL     1      -0.424  11.451  21.444  0.00  0.00    +0.000 A 
ATOM     32  C   UNL     1      -1.284  11.368  20.310  0.00  0.00    +0.000 A 
ATOM     33  C   UNL     1      -4.145  11.651  17.147  0.00  0.00    +0.000 C 
ATOM     34  C   UNL     1      -4.108  10.608  16.039  0.00  0.00    +0.000 C 
ATOM     35  C   UNL     1      -2.682  10.386  15.602  0.00  0.00    +0.000 C 
ATOM     36  C   UNL     1      -1.851   9.891  16.771  0.00  0.00    +0.000 C 
ENDBRANCH  21  23
ENDBRANCH  20  21
ENDBRANCH  19  20
ENDBRANCH   1  19
TORSDOF 11
ENDMDL
