MODEL 1
REMARK VINA RESULT:      -7.5      0.000      0.000
REMARK  Name = 
REMARK  6 active torsions:
REMARK  status: ('A' for Active; 'I' for Inactive)
REMARK    1  A    between atoms: C_1  and  O_2
REMARK    2  A    between atoms: O_2  and  C_3
REMARK    3  A    between atoms: C_8  and  C_9
REMARK    4  A    between atoms: C_11  and  C_12
REMARK    5  A    between atoms: C_12  and  C_13
REMARK    6  A    between atoms: C_13  and  N_14
REMARK                            x       y       z     vdW  Elec       q    Type
REMARK                         _______ _______ _______ _____ _____    ______ ____
ROOT
ATOM      1  C   UNL     1       3.904   3.745  17.911  0.00  0.00    +0.000 A 
ATOM      2  N   UNL     1       3.245   4.636  18.636  0.00  0.00    +0.000 NA
ATOM      3  C   UNL     1       2.255   4.026  19.392  0.00  0.00    +0.000 A 
ATOM      4  C   UNL     1       2.164   2.660  19.215  0.00  0.00    +0.000 A 
ATOM      5  S   UNL     1       3.275   2.144  18.024  0.00  0.00    +0.000 S 
ENDROOT
BRANCH   1  11
ATOM      6  C   UNL     1       6.325   4.453  17.476  0.00  0.00    +0.000 A 
ATOM      7  C   UNL     1       7.328   4.787  16.548  0.00  0.00    +0.000 A 
ATOM      8  C   UNL     1       7.054   4.818  15.182  0.00  0.00    +0.000 A 
ATOM      9  C   UNL     1       5.785   4.494  14.724  0.00  0.00    +0.000 A 
ATOM     10  C   UNL     1       4.789   4.127  15.635  0.00  0.00    +0.000 A 
ATOM     11  C   UNL     1       5.039   4.089  17.023  0.00  0.00    +0.000 A 
BRANCH   6  13
ATOM     12  C   UNL     1       7.238   5.602  19.339  0.00  0.00    +0.000 C 
ATOM     13  O   UNL     1       6.571   4.454  18.826  0.00  0.00    +0.000 OA
ENDBRANCH   6  13
ENDBRANCH   1  11
BRANCH   3  14
ATOM     14  C   UNL     1       1.438   4.833  20.350  0.00  0.00    +0.000 C 
BRANCH  14  15
ATOM     15  C   UNL     1       2.172   6.038  20.938  0.00  0.00    +0.000 C 
BRANCH  15  16
ATOM     16  N   UNL     1       1.878   7.259  20.199  0.00  0.00    +0.000 N 
ATOM     17  C   UNL     1       1.379   8.375  20.823  0.00  0.00    +0.000 C 
ATOM     18  O   UNL     1       1.157   8.395  22.032  0.00  0.00    +0.000 OA
ATOM     19  N   UNL     1       1.157   9.459  19.985  0.00  0.00    +0.000 N 
ATOM     20  C   UNL     1       0.720  10.726  20.574  0.00  0.00    +0.000 C 
ATOM     21  C   UNL     1      -0.649  11.144  20.037  0.00  0.00    +0.000 C 
ATOM     22  C   UNL     1      -0.668  11.150  18.509  0.00  0.00    +0.000 C 
ATOM     23  C   UNL     1      -0.192   9.809  17.957  0.00  0.00    +0.000 C 
ATOM     24  C   UNL     1       1.178   9.439  18.522  0.00  0.00    +0.000 C 
ATOM     25  H   UNL     1       2.468   7.433  19.404  0.00  0.00    +0.000 HD
ENDBRANCH  15  16
ENDBRANCH  14  15
ENDBRANCH   3  14
TORSDOF 5
ENDMDL
MODEL 2
REMARK VINA RESULT:      -7.2      5.085      7.334
REMARK  Name = 
REMARK  6 active torsions:
REMARK  status: ('A' for Active; 'I' for Inactive)
REMARK    1  A    between atoms: C_1  and  O_2
REMARK    2  A    between atoms: O_2  and  C_3
REMARK    3  A    between atoms: C_8  and  C_9
REMARK    4  A    between atoms: C_11  and  C_12
REMARK    5  A    between atoms: C_12  and  C_13
REMARK    6  A    between atoms: C_13  and  N_14
REMARK                            x       y       z     vdW  Elec       q    Type
REMARK                         _______ _______ _______ _____ _____    ______ ____
ROOT
ATOM      1  C   UNL     1       5.331   5.016  17.717  0.00  0.00    +0.000 A 
ATOM      2  N   UNL     1       6.041   5.864  18.446  0.00  0.00    +0.000 NA
ATOM      3  C   UNL     1       7.197   6.244  17.780  0.00  0.00    +0.000 A 
ATOM      4  C   UNL     1       7.358   5.658  16.540  0.00  0.00    +0.000 A 
ATOM      5  S   UNL     1       6.091   4.552  16.241  0.00  0.00    +0.000 S 
ENDROOT
BRANCH   1  11
ATOM      6  C   UNL     1       3.883   3.384  19.055  0.00  0.00    +0.000 A 
ATOM      7  C   UNL     1       2.599   2.909  19.379  0.00  0.00    +0.000 A 
ATOM      8  C   UNL     1       1.466   3.448  18.773  0.00  0.00    +0.000 A 
ATOM      9  C   UNL     1       1.597   4.479  17.855  0.00  0.00    +0.000 A 
ATOM     10  C   UNL     1       2.866   4.982  17.550  0.00  0.00    +0.000 A 
ATOM     11  C   UNL     1       4.029   4.456  18.148  0.00  0.00    +0.000 A 
BRANCH   6  13
ATOM     12  C   UNL     1       4.796   1.790  20.555  0.00  0.00    +0.000 C 
ATOM     13  O   UNL     1       5.010   2.839  19.617  0.00  0.00    +0.000 OA
ENDBRANCH   6  13
ENDBRANCH   1  11
BRANCH   3  14
ATOM     14  C   UNL     1       8.111   7.261  18.384  0.00  0.00    +0.000 C 
BRANCH  14  15
ATOM     15  C   UNL     1       7.897   8.683  17.865  0.00  0.00    +0.000 C 
BRANCH  15  16
ATOM     16  N   UNL     1       8.744   9.642  18.563  0.00  0.00    +0.000 N 
ATOM     17  C   UNL     1       8.738  10.975  18.238  0.00  0.00    +0.000 C 
ATOM     18  O   UNL     1       8.020  11.420  17.346  0.00  0.00    +0.000 OA
ATOM     19  N   UNL     1       9.593  11.762  18.997  0.00  0.00    +0.000 N 
ATOM     20  C   UNL     1       9.584  13.211  18.793  0.00  0.00    +0.000 C 
ATOM     21  C   UNL     1      10.949  13.714  18.323  0.00  0.00    +0.000 C 
ATOM     22  C   UNL     1      12.066  13.242  19.255  0.00  0.00    +0.000 C 
ATOM     23  C   UNL     1      12.015  11.728  19.436  0.00  0.00    +0.000 C 
ATOM     24  C   UNL     1      10.633  11.278  19.907  0.00  0.00    +0.000 C 
ATOM     25  H   UNL     1       8.929   9.430  19.528  0.00  0.00    +0.000 HD
ENDBRANCH  15  16
ENDBRANCH  14  15
ENDBRANCH   3  14
TORSDOF 5
ENDMDL
MODEL 3
REMARK VINA RESULT:      -7.1      1.015      1.451
REMARK  Name = 
REMARK  6 active torsions:
REMARK  status: ('A' for Active; 'I' for Inactive)
REMARK    1  A    between atoms: C_1  and  O_2
REMARK    2  A    between atoms: O_2  and  C_3
REMARK    3  A    between atoms: C_8  and  C_9
REMARK    4  A    between atoms: C_11  and  C_12
REMARK    5  A    between atoms: C_12  and  C_13
REMARK    6  A    between atoms: C_13  and  N_14
REMARK                            x       y       z     vdW  Elec       q    Type
REMARK                         _______ _______ _______ _____ _____    ______ ____
ROOT
ATOM      1  C   UNL     1       3.993   3.730  18.043  0.00  0.00    +0.000 A 
ATOM      2  N   UNL     1       3.269   4.650  18.662  0.00  0.00    +0.000 NA
ATOM      3  C   UNL     1       2.319   4.063  19.485  0.00  0.00    +0.000 A 
ATOM      4  C   UNL     1       2.324   2.683  19.466  0.00  0.00    +0.000 A 
ATOM      5  S   UNL     1       3.476   2.112  18.341  0.00  0.00    +0.000 S 
ENDROOT
BRANCH   1  11
ATOM      6  C   UNL     1       6.372   4.521  17.529  0.00  0.00    +0.000 A 
ATOM      7  C   UNL     1       7.355   4.819  16.567  0.00  0.00    +0.000 A 
ATOM      8  C   UNL     1       7.078   4.706  15.206  0.00  0.00    +0.000 A 
ATOM      9  C   UNL     1       5.828   4.274  14.789  0.00  0.00    +0.000 A 
ATOM     10  C   UNL     1       4.854   3.942  15.736  0.00  0.00    +0.000 A 
ATOM     11  C   UNL     1       5.107   4.048  17.120  0.00  0.00    +0.000 A 
BRANCH   6  13
ATOM     12  C   UNL     1       7.593   5.638  19.228  0.00  0.00    +0.000 C 
ATOM     13  O   UNL     1       6.619   4.663  18.871  0.00  0.00    +0.000 OA
ENDBRANCH   6  13
ENDBRANCH   1  11
BRANCH   3  14
ATOM     14  C   UNL     1       1.441   4.916  20.344  0.00  0.00    +0.000 C 
BRANCH  14  15
ATOM     15  C   UNL     1       2.165   6.083  21.015  0.00  0.00    +0.000 C 
BRANCH  15  16
ATOM     16  N   UNL     1       1.455   7.340  20.816  0.00  0.00    +0.000 N 
ATOM     17  C   UNL     1       1.689   8.133  19.720  0.00  0.00    +0.000 C 
ATOM     18  O   UNL     1       2.507   7.818  18.858  0.00  0.00    +0.000 OA
ATOM     19  N   UNL     1       0.930   9.293  19.669  0.00  0.00    +0.000 N 
ATOM     20  C   UNL     1       1.037  10.152  18.489  0.00  0.00    +0.000 C 
ATOM     21  C   UNL     1       1.550  11.544  18.861  0.00  0.00    +0.000 C 
ATOM     22  C   UNL     1       0.718  12.161  19.985  0.00  0.00    +0.000 C 
ATOM     23  C   UNL     1       0.636  11.215  21.179  0.00  0.00    +0.000 C 
ATOM     24  C   UNL     1       0.116   9.842  20.755  0.00  0.00    +0.000 C 
ATOM     25  H   UNL     1       0.518   7.368  21.180  0.00  0.00    +0.000 HD
ENDBRANCH  15  16
ENDBRANCH  14  15
ENDBRANCH   3  14
TORSDOF 5
ENDMDL
MODEL 4
REMARK VINA RESULT:      -6.9      0.919      1.045
REMARK  Name = 
REMARK  6 active torsions:
REMARK  status: ('A' for Active; 'I' for Inactive)
REMARK    1  A    between atoms: C_1  and  O_2
REMARK    2  A    between atoms: O_2  and  C_3
REMARK    3  A    between atoms: C_8  and  C_9
REMARK    4  A    between atoms: C_11  and  C_12
REMARK    5  A    between atoms: C_12  and  C_13
REMARK    6  A    between atoms: C_13  and  N_14
REMARK                            x       y       z     vdW  Elec       q    Type
REMARK                         _______ _______ _______ _____ _____    ______ ____
ROOT
ATOM      1  C   UNL     1       3.712   4.385  18.095  0.00  0.00    +0.000 A 
ATOM      2  N   UNL     1       3.239   5.409  18.791  0.00  0.00    +0.000 NA
ATOM      3  C   UNL     1       2.136   5.030  19.542  0.00  0.00    +0.000 A 
ATOM      4  C   UNL     1       1.771   3.707  19.390  0.00  0.00    +0.000 A 
ATOM      5  S   UNL     1       2.768   2.949  18.229  0.00  0.00    +0.000 S 
ENDROOT
BRANCH   1  11
ATOM      6  C   UNL     1       6.228   4.617  17.687  0.00  0.00    +0.000 A 
ATOM      7  C   UNL     1       7.290   4.715  16.770  0.00  0.00    +0.000 A 
ATOM      8  C   UNL     1       7.047   4.726  15.398  0.00  0.00    +0.000 A 
ATOM      9  C   UNL     1       5.748   4.616  14.924  0.00  0.00    +0.000 A 
ATOM     10  C   UNL     1       4.688   4.484  15.827  0.00  0.00    +0.000 A 
ATOM     11  C   UNL     1       4.905   4.471  17.220  0.00  0.00    +0.000 A 
BRANCH   6  13
ATOM     12  C   UNL     1       7.376   5.616  19.506  0.00  0.00    +0.000 C 
ATOM     13  O   UNL     1       6.449   4.642  19.041  0.00  0.00    +0.000 OA
ENDBRANCH   6  13
ENDBRANCH   1  11
BRANCH   3  14
ATOM     14  C   UNL     1       1.489   6.008  20.470  0.00  0.00    +0.000 C 
BRANCH  14  15
ATOM     15  C   UNL     1       2.173   7.373  20.518  0.00  0.00    +0.000 C 
BRANCH  15  16
ATOM     16  N   UNL     1       1.474   8.354  19.698  0.00  0.00    +0.000 N 
ATOM     17  C   UNL     1       0.992   9.523  20.230  0.00  0.00    +0.000 C 
ATOM     18  O   UNL     1       1.128   9.796  21.420  0.00  0.00    +0.000 OA
ATOM     19  N   UNL     1       0.357  10.357  19.320  0.00  0.00    +0.000 N 
ATOM     20  C   UNL     1      -0.103  11.671  19.772  0.00  0.00    +0.000 C 
ATOM     21  C   UNL     1      -1.619  11.807  19.629  0.00  0.00    +0.000 C 
ATOM     22  C   UNL     1      -2.078  11.461  18.213  0.00  0.00    +0.000 C 
ATOM     23  C   UNL     1      -1.558  10.087  17.798  0.00  0.00    +0.000 C 
ATOM     24  C   UNL     1      -0.041  10.004  17.956  0.00  0.00    +0.000 C 
ATOM     25  H   UNL     1       1.772   8.403  18.739  0.00  0.00    +0.000 HD
ENDBRANCH  15  16
ENDBRANCH  14  15
ENDBRANCH   3  14
TORSDOF 5
ENDMDL
MODEL 5
REMARK VINA RESULT:      -6.9      1.456      2.126
REMARK  Name = 
REMARK  6 active torsions:
REMARK  status: ('A' for Active; 'I' for Inactive)
REMARK    1  A    between atoms: C_1  and  O_2
REMARK    2  A    between atoms: O_2  and  C_3
REMARK    3  A    between atoms: C_8  and  C_9
REMARK    4  A    between atoms: C_11  and  C_12
REMARK    5  A    between atoms: C_12  and  C_13
REMARK    6  A    between atoms: C_13  and  N_14
REMARK                            x       y       z     vdW  Elec       q    Type
REMARK                         _______ _______ _______ _____ _____    ______ ____
ROOT
ATOM      1  C   UNL     1       3.833   4.547  18.867  0.00  0.00    +0.000 A 
ATOM      2  N   UNL     1       3.142   5.656  19.088  0.00  0.00    +0.000 NA
ATOM      3  C   UNL     1       2.228   5.474  20.116  0.00  0.00    +0.000 A 
ATOM      4  C   UNL     1       2.227   4.204  20.659  0.00  0.00    +0.000 A 
ATOM      5  S   UNL     1       3.323   3.201  19.817  0.00  0.00    +0.000 S 
ENDROOT
BRANCH   1  11
ATOM      6  C   UNL     1       6.270   4.697  18.099  0.00  0.00    +0.000 A 
ATOM      7  C   UNL     1       7.206   4.590  17.055  0.00  0.00    +0.000 A 
ATOM      8  C   UNL     1       6.796   4.286  15.759  0.00  0.00    +0.000 A 
ATOM      9  C   UNL     1       5.453   4.062  15.492  0.00  0.00    +0.000 A 
ATOM     10  C   UNL     1       4.517   4.132  16.530  0.00  0.00    +0.000 A 
ATOM     11  C   UNL     1       4.905   4.439  17.851  0.00  0.00    +0.000 A 
BRANCH   6  13
ATOM     12  C   UNL     1       7.885   5.736  19.490  0.00  0.00    +0.000 C 
ATOM     13  O   UNL     1       6.654   5.031  19.373  0.00  0.00    +0.000 OA
ENDBRANCH   6  13
ENDBRANCH   1  11
BRANCH   3  14
ATOM     14  C   UNL     1       1.394   6.621  20.590  0.00  0.00    +0.000 C 
BRANCH  14  15
ATOM     15  C   UNL     1       1.965   7.996  20.244  0.00  0.00    +0.000 C 
BRANCH  15  16
ATOM     16  N   UNL     1       0.956   9.041  20.359  0.00  0.00    +0.000 N 
ATOM     17  C   UNL     1       0.518   9.742  19.264  0.00  0.00    +0.000 C 
ATOM     18  O   UNL     1       0.957   9.520  18.137  0.00  0.00    +0.000 OA
ATOM     19  N   UNL     1      -0.449  10.699  19.535  0.00  0.00    +0.000 N 
ATOM     20  C   UNL     1      -1.050  11.428  18.417  0.00  0.00    +0.000 C 
ATOM     21  C   UNL     1      -0.781  12.930  18.527  0.00  0.00    +0.000 C 
ATOM     22  C   UNL     1      -1.197  13.470  19.894  0.00  0.00    +0.000 C 
ATOM     23  C   UNL     1      -0.548  12.663  21.015  0.00  0.00    +0.000 C 
ATOM     24  C   UNL     1      -0.848  11.173  20.861  0.00  0.00    +0.000 C 
ATOM     25  H   UNL     1       0.277   8.905  21.088  0.00  0.00    +0.000 HD
ENDBRANCH  15  16
ENDBRANCH  14  15
ENDBRANCH   3  14
TORSDOF 5
ENDMDL
MODEL 6
REMARK VINA RESULT:      -6.8      5.215      7.489
REMARK  Name = 
REMARK  6 active torsions:
REMARK  status: ('A' for Active; 'I' for Inactive)
REMARK    1  A    between atoms: C_1  and  O_2
REMARK    2  A    between atoms: O_2  and  C_3
REMARK    3  A    between atoms: C_8  and  C_9
REMARK    4  A    between atoms: C_11  and  C_12
REMARK    5  A    between atoms: C_12  and  C_13
REMARK    6  A    between atoms: C_13  and  N_14
REMARK                            x       y       z     vdW  Elec       q    Type
REMARK                         _______ _______ _______ _____ _____    ______ ____
ROOT
ATOM      1  C   UNL     1       5.486   5.092  18.055  0.00  0.00    +0.000 A 
ATOM      2  N   UNL     1       6.256   5.971  18.679  0.00  0.00    +0.000 NA
ATOM      3  C   UNL     1       7.250   6.446  17.837  0.00  0.00    +0.000 A 
ATOM      4  C   UNL     1       7.230   5.900  16.568  0.00  0.00    +0.000 A 
ATOM      5  S   UNL     1       6.005   4.715  16.455  0.00  0.00    +0.000 S 
ENDROOT
BRANCH   1  11
ATOM      6  C   UNL     1       3.001   4.934  18.648  0.00  0.00    +0.000 A 
ATOM      7  C   UNL     1       1.967   4.241  19.303  0.00  0.00    +0.000 A 
ATOM      8  C   UNL     1       2.235   3.088  20.038  0.00  0.00    +0.000 A 
ATOM      9  C   UNL     1       3.531   2.601  20.111  0.00  0.00    +0.000 A 
ATOM     10  C   UNL     1       4.562   3.262  19.436  0.00  0.00    +0.000 A 
ATOM     11  C   UNL     1       4.319   4.431  18.685  0.00  0.00    +0.000 A 
BRANCH   6  13
ATOM     12  C   UNL     1       2.516   7.254  18.734  0.00  0.00    +0.000 C 
ATOM     13  O   UNL     1       2.757   6.090  17.951  0.00  0.00    +0.000 OA
ENDBRANCH   6  13
ENDBRANCH   1  11
BRANCH   3  14
ATOM     14  C   UNL     1       8.187   7.511  18.308  0.00  0.00    +0.000 C 
BRANCH  14  15
ATOM     15  C   UNL     1       7.751   8.932  17.952  0.00  0.00    +0.000 C 
BRANCH  15  16
ATOM     16  N   UNL     1       8.883   9.849  17.923  0.00  0.00    +0.000 N 
ATOM     17  C   UNL     1       9.379  10.415  19.071  0.00  0.00    +0.000 C 
ATOM     18  O   UNL     1       8.892  10.174  20.173  0.00  0.00    +0.000 OA
ATOM     19  N   UNL     1      10.463  11.261  18.881  0.00  0.00    +0.000 N 
ATOM     20  C   UNL     1      11.123  11.833  20.055  0.00  0.00    +0.000 C 
ATOM     21  C   UNL     1      11.043  13.360  20.046  0.00  0.00    +0.000 C 
ATOM     22  C   UNL     1      11.553  13.936  18.725  0.00  0.00    +0.000 C 
ATOM     23  C   UNL     1      10.835  13.293  17.543  0.00  0.00    +0.000 C 
ATOM     24  C   UNL     1      10.947  11.770  17.596  0.00  0.00    +0.000 C 
ATOM     25  H   UNL     1       9.557   9.679  17.197  0.00  0.00    +0.000 HD
ENDBRANCH  15  16
ENDBRANCH  14  15
ENDBRANCH   3  14
TORSDOF 5
ENDMDL
MODEL 7
REMARK VINA RESULT:      -6.8      2.513      3.431
REMARK  Name = 
REMARK  6 active torsions:
REMARK  status: ('A' for Active; 'I' for Inactive)
REMARK    1  A    between atoms: C_1  and  O_2
REMARK    2  A    between atoms: O_2  and  C_3
REMARK    3  A    between atoms: C_8  and  C_9
REMARK    4  A    between atoms: C_11  and  C_12
REMARK    5  A    between atoms: C_12  and  C_13
REMARK    6  A    between atoms: C_13  and  N_14
REMARK                            x       y       z     vdW  Elec       q    Type
REMARK                         _______ _______ _______ _____ _____    ______ ____
ROOT
ATOM      1  C   UNL     1       3.962   6.260  17.746  0.00  0.00    +0.000 A 
ATOM      2  N   UNL     1       3.603   7.475  17.359  0.00  0.00    +0.000 NA
ATOM      3  C   UNL     1       2.562   7.957  18.139  0.00  0.00    +0.000 A 
ATOM      4  C   UNL     1       2.128   7.081  19.113  0.00  0.00    +0.000 A 
ATOM      5  S   UNL     1       2.975   5.602  18.997  0.00  0.00    +0.000 S 
ENDROOT
BRANCH   1  11
ATOM      6  C   UNL     1       6.311   5.243  17.741  0.00  0.00    +0.000 A 
ATOM      7  C   UNL     1       7.305   4.526  17.052  0.00  0.00    +0.000 A 
ATOM      8  C   UNL     1       7.100   4.106  15.739  0.00  0.00    +0.000 A 
ATOM      9  C   UNL     1       5.894   4.375  15.107  0.00  0.00    +0.000 A 
ATOM     10  C   UNL     1       4.886   5.057  15.795  0.00  0.00    +0.000 A 
ATOM     11  C   UNL     1       5.067   5.495  17.124  0.00  0.00    +0.000 A 
BRANCH   6  13
ATOM     12  C   UNL     1       7.865   5.736  19.464  0.00  0.00    +0.000 C 
ATOM     13  O   UNL     1       6.513   5.695  19.021  0.00  0.00    +0.000 OA
ENDBRANCH   6  13
ENDBRANCH   1  11
BRANCH   3  14
ATOM     14  C   UNL     1       2.050   9.346  17.930  0.00  0.00    +0.000 C 
BRANCH  14  15
ATOM     15  C   UNL     1       0.967   9.770  18.922  0.00  0.00    +0.000 C 
BRANCH  15  16
ATOM     16  N   UNL     1      -0.183  10.355  18.244  0.00  0.00    +0.000 N 
ATOM     17  C   UNL     1      -1.214  10.931  18.943  0.00  0.00    +0.000 C 
ATOM     18  O   UNL     1      -1.214  10.980  20.171  0.00  0.00    +0.000 OA
ATOM     19  N   UNL     1      -2.232  11.449  18.155  0.00  0.00    +0.000 N 
ATOM     20  C   UNL     1      -3.326  12.171  18.805  0.00  0.00    +0.000 C 
ATOM     21  C   UNL     1      -4.669  11.484  18.557  0.00  0.00    +0.000 C 
ATOM     22  C   UNL     1      -4.904  11.246  17.066  0.00  0.00    +0.000 C 
ATOM     23  C   UNL     1      -3.726  10.500  16.445  0.00  0.00    +0.000 C 
ATOM     24  C   UNL     1      -2.412  11.229  16.719  0.00  0.00    +0.000 C 
ATOM     25  H   UNL     1       0.008  10.756  17.342  0.00  0.00    +0.000 HD
ENDBRANCH  15  16
ENDBRANCH  14  15
ENDBRANCH   3  14
TORSDOF 5
ENDMDL
MODEL 8
REMARK VINA RESULT:      -6.7      4.250     10.465
REMARK  Name = 
REMARK  6 active torsions:
REMARK  status: ('A' for Active; 'I' for Inactive)
REMARK    1  A    between atoms: C_1  and  O_2
REMARK    2  A    between atoms: O_2  and  C_3
REMARK    3  A    between atoms: C_8  and  C_9
REMARK    4  A    between atoms: C_11  and  C_12
REMARK    5  A    between atoms: C_12  and  C_13
REMARK    6  A    between atoms: C_13  and  N_14
REMARK                            x       y       z     vdW  Elec       q    Type
REMARK                         _______ _______ _______ _____ _____    ______ ____
ROOT
ATOM      1  C   UNL     1      -1.364  12.107  22.295  0.00  0.00    +0.000 A 
ATOM      2  N   UNL     1      -0.845  10.959  22.707  0.00  0.00    +0.000 NA
ATOM      3  C   UNL     1      -0.279  10.263  21.650  0.00  0.00    +0.000 A 
ATOM      4  C   UNL     1      -0.390  10.894  20.427  0.00  0.00    +0.000 A 
ATOM      5  S   UNL     1      -1.291  12.337  20.588  0.00  0.00    +0.000 S 
ENDROOT
BRANCH   1  11
ATOM      6  C   UNL     1      -3.404  13.162  23.424  0.00  0.00    +0.000 A 
ATOM      7  C   UNL     1      -3.922  14.147  24.284  0.00  0.00    +0.000 A 
ATOM      8  C   UNL     1      -3.083  15.087  24.878  0.00  0.00    +0.000 A 
ATOM      9  C   UNL     1      -1.718  15.044  24.640  0.00  0.00    +0.000 A 
ATOM     10  C   UNL     1      -1.187  14.048  23.813  0.00  0.00    +0.000 A 
ATOM     11  C   UNL     1      -2.013  13.084  23.199  0.00  0.00    +0.000 A 
BRANCH   6  13
ATOM     12  C   UNL     1      -5.031  12.756  21.746  0.00  0.00    +0.000 C 
ATOM     13  O   UNL     1      -4.222  12.252  22.804  0.00  0.00    +0.000 OA
ENDBRANCH   6  13
ENDBRANCH   1  11
BRANCH   3  14
ATOM     14  C   UNL     1       0.439   8.975  21.899  0.00  0.00    +0.000 C 
BRANCH  14  15
ATOM     15  C   UNL     1       1.390   8.560  20.777  0.00  0.00    +0.000 C 
BRANCH  15  16
ATOM     16  N   UNL     1       1.704   7.138  20.837  0.00  0.00    +0.000 N 
ATOM     17  C   UNL     1       2.341   6.498  19.804  0.00  0.00    +0.000 C 
ATOM     18  O   UNL     1       2.675   7.094  18.782  0.00  0.00    +0.000 OA
ATOM     19  N   UNL     1       2.575   5.146  20.014  0.00  0.00    +0.000 N 
ATOM     20  C   UNL     1       3.337   4.401  19.011  0.00  0.00    +0.000 C 
ATOM     21  C   UNL     1       2.503   3.269  18.410  0.00  0.00    +0.000 C 
ATOM     22  C   UNL     1       1.904   2.380  19.499  0.00  0.00    +0.000 C 
ATOM     23  C   UNL     1       1.134   3.216  20.516  0.00  0.00    +0.000 C 
ATOM     24  C   UNL     1       2.011   4.328  21.089  0.00  0.00    +0.000 C 
ATOM     25  H   UNL     1       1.897   6.779  21.756  0.00  0.00    +0.000 HD
ENDBRANCH  15  16
ENDBRANCH  14  15
ENDBRANCH   3  14
TORSDOF 5
ENDMDL
MODEL 9
REMARK VINA RESULT:      -6.7      5.220      7.538
REMARK  Name = 
REMARK  6 active torsions:
REMARK  status: ('A' for Active; 'I' for Inactive)
REMARK    1  A    between atoms: C_1  and  O_2
REMARK    2  A    between atoms: O_2  and  C_3
REMARK    3  A    between atoms: C_8  and  C_9
REMARK    4  A    between atoms: C_11  and  C_12
REMARK    5  A    between atoms: C_12  and  C_13
REMARK    6  A    between atoms: C_13  and  N_14
REMARK                            x       y       z     vdW  Elec       q    Type
REMARK                         _______ _______ _______ _____ _____    ______ ____
ROOT
ATOM      1  C   UNL     1       5.200   5.475  18.362  0.00  0.00    +0.000 A 
ATOM      2  N   UNL     1       6.146   6.294  18.798  0.00  0.00    +0.000 NA
ATOM      3  C   UNL     1       7.072   6.558  17.799  0.00  0.00    +0.000 A 
ATOM      4  C   UNL     1       6.821   5.913  16.605  0.00  0.00    +0.000 A 
ATOM      5  S   UNL     1       5.457   4.896  16.759  0.00  0.00    +0.000 S 
ENDROOT
BRANCH   1  11
ATOM      6  C   UNL     1       3.954   3.765  19.803  0.00  0.00    +0.000 A 
ATOM      7  C   UNL     1       2.808   3.434  20.549  0.00  0.00    +0.000 A 
ATOM      8  C   UNL     1       1.741   4.325  20.648  0.00  0.00    +0.000 A 
ATOM      9  C   UNL     1       1.812   5.561  20.024  0.00  0.00    +0.000 A 
ATOM     10  C   UNL     1       2.960   5.914  19.308  0.00  0.00    +0.000 A 
ATOM     11  C   UNL     1       4.055   5.033  19.191  0.00  0.00    +0.000 A 
BRANCH   6  13
ATOM     12  C   UNL     1       4.876   1.657  20.376  0.00  0.00    +0.000 C 
ATOM     13  O   UNL     1       4.997   2.884  19.666  0.00  0.00    +0.000 OA
ENDBRANCH   6  13
ENDBRANCH   1  11
BRANCH   3  14
ATOM     14  C   UNL     1       8.184   7.526  18.045  0.00  0.00    +0.000 C 
BRANCH  14  15
ATOM     15  C   UNL     1       7.761   8.994  17.996  0.00  0.00    +0.000 C 
BRANCH  15  16
ATOM     16  N   UNL     1       8.914   9.885  17.959  0.00  0.00    +0.000 N 
ATOM     17  C   UNL     1       9.426  10.444  19.103  0.00  0.00    +0.000 C 
ATOM     18  O   UNL     1       8.937  10.220  20.208  0.00  0.00    +0.000 OA
ATOM     19  N   UNL     1      10.529  11.264  18.905  0.00  0.00    +0.000 N 
ATOM     20  C   UNL     1      11.206  11.826  20.074  0.00  0.00    +0.000 C 
ATOM     21  C   UNL     1      11.162  13.355  20.058  0.00  0.00    +0.000 C 
ATOM     22  C   UNL     1      11.680  13.912  18.733  0.00  0.00    +0.000 C 
ATOM     23  C   UNL     1      10.944  13.280  17.555  0.00  0.00    +0.000 C 
ATOM     24  C   UNL     1      11.020  11.755  17.616  0.00  0.00    +0.000 C 
ATOM     25  H   UNL     1       9.581   9.695  17.231  0.00  0.00    +0.000 HD
ENDBRANCH  15  16
ENDBRANCH  14  15
ENDBRANCH   3  14
TORSDOF 5
ENDMDL
