MODEL 1
REMARK VINA RESULT:      -9.5      0.000      0.000
REMARK  Name = 
REMARK  8 active torsions:
REMARK  status: ('A' for Active; 'I' for Inactive)
REMARK    1  A    between atoms: C_1  and  C_2
REMARK    2  A    between atoms: C_4  and  N_5
REMARK    3  A    between atoms: N_5  and  N_6
REMARK    4  A    between atoms: C_7  and  C_9
REMARK    5  A    between atoms: C_9  and  C_10
REMARK    6  A    between atoms: C_9  and  C_16
REMARK    7  A    between atoms: C_25  and  C_26
REMARK    8  A    between atoms: C_27  and  C_28
REMARK                            x       y       z     vdW  Elec       q    Type
REMARK                         _______ _______ _______ _____ _____    ______ ____
ROOT
ATOM      1  N   UNL     1       1.718   8.421  17.629  0.00  0.00    +0.000 N 
ATOM      2  C   UNL     1       2.253   7.577  18.600  0.00  0.00    +0.000 C 
ATOM      3  O   UNL     1       2.331   7.927  19.782  0.00  0.00    +0.000 OA
ATOM      4  H   UNL     1       2.028   8.297  16.670  0.00  0.00    +0.000 HD
ENDROOT
BRANCH   1   5
ATOM      5  N   UNL     1       1.605   9.774  18.031  0.00  0.00    +0.000 N 
ATOM      6  H   UNL     1       2.264   9.973  18.798  0.00  0.00    +0.000 HD
BRANCH   5  10
ATOM      7  C   UNL     1      -3.304  10.026  17.245  0.00  0.00    +0.000 C 
ATOM      8  C   UNL     1      -2.064  10.398  17.999  0.00  0.00    +0.000 A 
ATOM      9  C   UNL     1      -0.841   9.828  17.686  0.00  0.00    +0.000 A 
ATOM     10  C   UNL     1       0.302  10.256  18.364  0.00  0.00    +0.000 A 
ATOM     11  C   UNL     1       0.171  11.305  19.323  0.00  0.00    +0.000 A 
ATOM     12  C   UNL     1       1.274  11.882  19.993  0.00  0.00    +0.000 A 
ATOM     13  C   UNL     1       1.115  12.926  20.901  0.00  0.00    +0.000 A 
ATOM     14  C   UNL     1      -0.154  13.426  21.187  0.00  0.00    +0.000 A 
ATOM     15  C   UNL     1      -0.277  14.571  22.154  0.00  0.00    +0.000 C 
ATOM     16  C   UNL     1      -1.274  12.846  20.549  0.00  0.00    +0.000 A 
ATOM     17  C   UNL     1      -2.680  13.315  20.858  0.00  0.00    +0.000 C 
ATOM     18  C   UNL     1      -1.121  11.813  19.599  0.00  0.00    +0.000 A 
ATOM     19  N   UNL     1      -2.204  11.349  18.951  0.00  0.00    +0.000 NA
ENDBRANCH   5  10
ENDBRANCH   1   5
BRANCH   2  20
ATOM     20  C   UNL     1       2.767   6.210  18.122  0.00  0.00    +0.000 C 
BRANCH  20  21
ATOM     21  C   UNL     1       4.298   6.154  18.101  0.00  0.00    +0.000 A 
ATOM     22  C   UNL     1       5.062   6.882  17.172  0.00  0.00    +0.000 A 
ATOM     23  C   UNL     1       6.457   6.876  17.240  0.00  0.00    +0.000 A 
ATOM     24  C   UNL     1       7.107   6.134  18.222  0.00  0.00    +0.000 A 
ATOM     25  C   UNL     1       6.366   5.380  19.129  0.00  0.00    +0.000 A 
ATOM     26  C   UNL     1       4.971   5.384  19.065  0.00  0.00    +0.000 A 
ENDBRANCH  20  21
BRANCH  20  27
ATOM     27  C   UNL     1       2.103   4.980  18.759  0.00  0.00    +0.000 A 
ATOM     28  C   UNL     1       1.737   4.912  20.111  0.00  0.00    +0.000 A 
ATOM     29  C   UNL     1       1.147   3.757  20.636  0.00  0.00    +0.000 A 
ATOM     30  C   UNL     1       0.890   2.660  19.817  0.00  0.00    +0.000 A 
ATOM     31  C   UNL     1       1.202   2.721  18.463  0.00  0.00    +0.000 A 
ATOM     32  C   UNL     1       1.791   3.873  17.938  0.00  0.00    +0.000 A 
ENDBRANCH  20  27
ENDBRANCH   2  20
TORSDOF 5
ENDMDL
MODEL 2
REMARK VINA RESULT:      -9.4      0.773      1.458
REMARK  Name = 
REMARK  8 active torsions:
REMARK  status: ('A' for Active; 'I' for Inactive)
REMARK    1  A    between atoms: C_1  and  C_2
REMARK    2  A    between atoms: C_4  and  N_5
REMARK    3  A    between atoms: N_5  and  N_6
REMARK    4  A    between atoms: C_7  and  C_9
REMARK    5  A    between atoms: C_9  and  C_10
REMARK    6  A    between atoms: C_9  and  C_16
REMARK    7  A    between atoms: C_25  and  C_26
REMARK    8  A    between atoms: C_27  and  C_28
REMARK                            x       y       z     vdW  Elec       q    Type
REMARK                         _______ _______ _______ _____ _____    ______ ____
ROOT
ATOM      1  N   UNL     1       1.846   8.228  17.883  0.00  0.00    +0.000 N 
ATOM      2  C   UNL     1       2.441   7.268  18.699  0.00  0.00    +0.000 C 
ATOM      3  O   UNL     1       2.444   7.383  19.929  0.00  0.00    +0.000 OA
ATOM      4  H   UNL     1       2.197   8.328  16.935  0.00  0.00    +0.000 HD
ENDROOT
BRANCH   1   5
ATOM      5  N   UNL     1       1.572   9.456  18.533  0.00  0.00    +0.000 N 
ATOM      6  H   UNL     1       1.924   9.431  19.502  0.00  0.00    +0.000 HD
BRANCH   5  10
ATOM      7  C   UNL     1      -2.861   9.943  16.322  0.00  0.00    +0.000 C 
ATOM      8  C   UNL     1      -1.917  10.181  17.461  0.00  0.00    +0.000 A 
ATOM      9  C   UNL     1      -0.650   9.621  17.466  0.00  0.00    +0.000 A 
ATOM     10  C   UNL     1       0.225   9.928  18.510  0.00  0.00    +0.000 A 
ATOM     11  C   UNL     1      -0.207  10.850  19.510  0.00  0.00    +0.000 A 
ATOM     12  C   UNL     1       0.629  11.307  20.555  0.00  0.00    +0.000 A 
ATOM     13  C   UNL     1       0.186  12.231  21.497  0.00  0.00    +0.000 A 
ATOM     14  C   UNL     1      -1.115  12.727  21.443  0.00  0.00    +0.000 A 
ATOM     15  C   UNL     1      -1.544  13.743  22.466  0.00  0.00    +0.000 C 
ATOM     16  C   UNL     1      -1.979  12.263  20.424  0.00  0.00    +0.000 A 
ATOM     17  C   UNL     1      -3.417  12.729  20.345  0.00  0.00    +0.000 C 
ATOM     18  C   UNL     1      -1.528  11.355  19.441  0.00  0.00    +0.000 A 
ATOM     19  N   UNL     1      -2.354  11.007  18.438  0.00  0.00    +0.000 NA
ENDBRANCH   5  10
ENDBRANCH   1   5
BRANCH   2  20
ATOM     20  C   UNL     1       3.115   6.082  17.992  0.00  0.00    +0.000 C 
BRANCH  20  21
ATOM     21  C   UNL     1       4.639   6.122  18.145  0.00  0.00    +0.000 A 
ATOM     22  C   UNL     1       5.305   5.464  19.193  0.00  0.00    +0.000 A 
ATOM     23  C   UNL     1       6.701   5.449  19.250  0.00  0.00    +0.000 A 
ATOM     24  C   UNL     1       7.449   6.103  18.274  0.00  0.00    +0.000 A 
ATOM     25  C   UNL     1       6.804   6.789  17.249  0.00  0.00    +0.000 A 
ATOM     26  C   UNL     1       5.409   6.806  17.187  0.00  0.00    +0.000 A 
ENDBRANCH  20  21
BRANCH  20  27
ATOM     27  C   UNL     1       2.496   4.700  18.252  0.00  0.00    +0.000 A 
ATOM     28  C   UNL     1       2.789   3.564  17.484  0.00  0.00    +0.000 A 
ATOM     29  C   UNL     1       2.181   2.335  17.764  0.00  0.00    +0.000 A 
ATOM     30  C   UNL     1       1.290   2.212  18.827  0.00  0.00    +0.000 A 
ATOM     31  C   UNL     1       1.018   3.315  19.631  0.00  0.00    +0.000 A 
ATOM     32  C   UNL     1       1.624   4.542  19.353  0.00  0.00    +0.000 A 
ENDBRANCH  20  27
ENDBRANCH   2  20
TORSDOF 5
ENDMDL
MODEL 3
REMARK VINA RESULT:      -9.3      1.477      4.438
REMARK  Name = 
REMARK  8 active torsions:
REMARK  status: ('A' for Active; 'I' for Inactive)
REMARK    1  A    between atoms: C_1  and  C_2
REMARK    2  A    between atoms: C_4  and  N_5
REMARK    3  A    between atoms: N_5  and  N_6
REMARK    4  A    between atoms: C_7  and  C_9
REMARK    5  A    between atoms: C_9  and  C_10
REMARK    6  A    between atoms: C_9  and  C_16
REMARK    7  A    between atoms: C_25  and  C_26
REMARK    8  A    between atoms: C_27  and  C_28
REMARK                            x       y       z     vdW  Elec       q    Type
REMARK                         _______ _______ _______ _____ _____    ______ ____
ROOT
ATOM      1  N   UNL     1       1.928   8.381  18.841  0.00  0.00    +0.000 N 
ATOM      2  C   UNL     1       2.817   7.685  18.024  0.00  0.00    +0.000 C 
ATOM      3  O   UNL     1       3.018   8.030  16.854  0.00  0.00    +0.000 OA
ATOM      4  H   UNL     1       1.487   7.872  19.602  0.00  0.00    +0.000 HD
ENDROOT
BRANCH   1   5
ATOM      5  N   UNL     1       1.057   9.253  18.145  0.00  0.00    +0.000 N 
ATOM      6  H   UNL     1       1.594   9.845  17.494  0.00  0.00    +0.000 HD
BRANCH   5  10
ATOM      7  C   UNL     1      -0.311  11.368  22.438  0.00  0.00    +0.000 C 
ATOM      8  C   UNL     1      -0.513  11.079  20.982  0.00  0.00    +0.000 A 
ATOM      9  C   UNL     1       0.430  10.368  20.258  0.00  0.00    +0.000 A 
ATOM     10  C   UNL     1       0.169  10.056  18.922  0.00  0.00    +0.000 A 
ATOM     11  C   UNL     1      -1.087  10.443  18.367  0.00  0.00    +0.000 A 
ATOM     12  C   UNL     1      -1.495  10.095  17.060  0.00  0.00    +0.000 A 
ATOM     13  C   UNL     1      -2.741  10.461  16.558  0.00  0.00    +0.000 A 
ATOM     14  C   UNL     1      -3.626  11.205  17.338  0.00  0.00    +0.000 A 
ATOM     15  C   UNL     1      -4.972  11.557  16.767  0.00  0.00    +0.000 C 
ATOM     16  C   UNL     1      -3.228  11.589  18.639  0.00  0.00    +0.000 A 
ATOM     17  C   UNL     1      -4.127  12.438  19.513  0.00  0.00    +0.000 C 
ATOM     18  C   UNL     1      -1.983  11.190  19.171  0.00  0.00    +0.000 A 
ATOM     19  N   UNL     1      -1.680  11.502  20.444  0.00  0.00    +0.000 NA
ENDBRANCH   5  10
ENDBRANCH   1   5
BRANCH   2  20
ATOM     20  C   UNL     1       3.506   6.456  18.638  0.00  0.00    +0.000 C 
BRANCH  20  21
ATOM     21  C   UNL     1       2.499   5.355  18.984  0.00  0.00    +0.000 A 
ATOM     22  C   UNL     1       1.957   4.500  18.007  0.00  0.00    +0.000 A 
ATOM     23  C   UNL     1       1.111   3.451  18.372  0.00  0.00    +0.000 A 
ATOM     24  C   UNL     1       0.780   3.251  19.710  0.00  0.00    +0.000 A 
ATOM     25  C   UNL     1       1.279   4.110  20.686  0.00  0.00    +0.000 A 
ATOM     26  C   UNL     1       2.127   5.159  20.326  0.00  0.00    +0.000 A 
ENDBRANCH  20  21
BRANCH  20  27
ATOM     27  C   UNL     1       4.761   5.952  17.910  0.00  0.00    +0.000 A 
ATOM     28  C   UNL     1       4.895   5.948  16.514  0.00  0.00    +0.000 A 
ATOM     29  C   UNL     1       6.060   5.463  15.909  0.00  0.00    +0.000 A 
ATOM     30  C   UNL     1       7.119   4.997  16.685  0.00  0.00    +0.000 A 
ATOM     31  C   UNL     1       7.026   5.034  18.072  0.00  0.00    +0.000 A 
ATOM     32  C   UNL     1       5.864   5.517  18.677  0.00  0.00    +0.000 A 
ENDBRANCH  20  27
ENDBRANCH   2  20
TORSDOF 5
ENDMDL
MODEL 4
REMARK VINA RESULT:      -9.3      2.014      2.488
REMARK  Name = 
REMARK  8 active torsions:
REMARK  status: ('A' for Active; 'I' for Inactive)
REMARK    1  A    between atoms: C_1  and  C_2
REMARK    2  A    between atoms: C_4  and  N_5
REMARK    3  A    between atoms: N_5  and  N_6
REMARK    4  A    between atoms: C_7  and  C_9
REMARK    5  A    between atoms: C_9  and  C_10
REMARK    6  A    between atoms: C_9  and  C_16
REMARK    7  A    between atoms: C_25  and  C_26
REMARK    8  A    between atoms: C_27  and  C_28
REMARK                            x       y       z     vdW  Elec       q    Type
REMARK                         _______ _______ _______ _____ _____    ______ ____
ROOT
ATOM      1  N   UNL     1       1.869   7.528  18.642  0.00  0.00    +0.000 N 
ATOM      2  C   UNL     1       2.999   7.057  17.977  0.00  0.00    +0.000 C 
ATOM      3  O   UNL     1       3.823   7.834  17.482  0.00  0.00    +0.000 OA
ATOM      4  H   UNL     1       1.050   6.927  18.668  0.00  0.00    +0.000 HD
ENDROOT
BRANCH   1   5
ATOM      5  N   UNL     1       1.580   8.893  18.405  0.00  0.00    +0.000 N 
ATOM      6  H   UNL     1       2.345   9.331  17.872  0.00  0.00    +0.000 HD
BRANCH   5  10
ATOM      7  C   UNL     1      -0.449   9.492  22.911  0.00  0.00    +0.000 C 
ATOM      8  C   UNL     1       0.264  10.013  21.701  0.00  0.00    +0.000 A 
ATOM      9  C   UNL     1       0.646   9.164  20.676  0.00  0.00    +0.000 A 
ATOM     10  C   UNL     1       1.241   9.701  19.533  0.00  0.00    +0.000 A 
ATOM     11  C   UNL     1       1.388  11.117  19.446  0.00  0.00    +0.000 A 
ATOM     12  C   UNL     1       1.885  11.774  18.296  0.00  0.00    +0.000 A 
ATOM     13  C   UNL     1       1.987  13.160  18.231  0.00  0.00    +0.000 A 
ATOM     14  C   UNL     1       1.610  13.949  19.317  0.00  0.00    +0.000 A 
ATOM     15  C   UNL     1       1.712  15.444  19.194  0.00  0.00    +0.000 C 
ATOM     16  C   UNL     1       1.136  13.313  20.488  0.00  0.00    +0.000 A 
ATOM     17  C   UNL     1       0.759  14.115  21.715  0.00  0.00    +0.000 C 
ATOM     18  C   UNL     1       0.993  11.910  20.550  0.00  0.00    +0.000 A 
ATOM     19  N   UNL     1       0.456  11.352  21.650  0.00  0.00    +0.000 NA
ENDBRANCH   5  10
ENDBRANCH   1   5
BRANCH   2  20
ATOM     20  C   UNL     1       3.152   5.532  17.865  0.00  0.00    +0.000 C 
BRANCH  20  21
ATOM     21  C   UNL     1       4.600   5.126  17.574  0.00  0.00    +0.000 A 
ATOM     22  C   UNL     1       4.991   4.578  16.340  0.00  0.00    +0.000 A 
ATOM     23  C   UNL     1       6.335   4.302  16.079  0.00  0.00    +0.000 A 
ATOM     24  C   UNL     1       7.303   4.554  17.049  0.00  0.00    +0.000 A 
ATOM     25  C   UNL     1       6.927   5.064  18.289  0.00  0.00    +0.000 A 
ATOM     26  C   UNL     1       5.585   5.342  18.554  0.00  0.00    +0.000 A 
ENDBRANCH  20  21
BRANCH  20  27
ATOM     27  C   UNL     1       2.478   4.704  18.970  0.00  0.00    +0.000 A 
ATOM     28  C   UNL     1       2.789   4.834  20.331  0.00  0.00    +0.000 A 
ATOM     29  C   UNL     1       2.149   4.040  21.290  0.00  0.00    +0.000 A 
ATOM     30  C   UNL     1       1.173   3.122  20.911  0.00  0.00    +0.000 A 
ATOM     31  C   UNL     1       0.816   3.008  19.572  0.00  0.00    +0.000 A 
ATOM     32  C   UNL     1       1.454   3.799  18.614  0.00  0.00    +0.000 A 
ENDBRANCH  20  27
ENDBRANCH   2  20
TORSDOF 5
ENDMDL
MODEL 5
REMARK VINA RESULT:      -9.1      1.982      4.164
REMARK  Name = 
REMARK  8 active torsions:
REMARK  status: ('A' for Active; 'I' for Inactive)
REMARK    1  A    between atoms: C_1  and  C_2
REMARK    2  A    between atoms: C_4  and  N_5
REMARK    3  A    between atoms: N_5  and  N_6
REMARK    4  A    between atoms: C_7  and  C_9
REMARK    5  A    between atoms: C_9  and  C_10
REMARK    6  A    between atoms: C_9  and  C_16
REMARK    7  A    between atoms: C_25  and  C_26
REMARK    8  A    between atoms: C_27  and  C_28
REMARK                            x       y       z     vdW  Elec       q    Type
REMARK                         _______ _______ _______ _____ _____    ______ ____
ROOT
ATOM      1  N   UNL     1       2.130   7.928  19.623  0.00  0.00    +0.000 N 
ATOM      2  C   UNL     1       2.923   7.326  18.649  0.00  0.00    +0.000 C 
ATOM      3  O   UNL     1       3.081   7.845  17.539  0.00  0.00    +0.000 OA
ATOM      4  H   UNL     1       1.699   7.328  20.321  0.00  0.00    +0.000 HD
ENDROOT
BRANCH   1   5
ATOM      5  N   UNL     1       1.281   8.950  19.133  0.00  0.00    +0.000 N 
ATOM      6  H   UNL     1       1.667   9.346  18.263  0.00  0.00    +0.000 HD
BRANCH   5  10
ATOM      7  C   UNL     1      -1.112  10.639  23.158  0.00  0.00    +0.000 C 
ATOM      8  C   UNL     1      -0.226  10.835  21.966  0.00  0.00    +0.000 A 
ATOM      9  C   UNL     1       0.159   9.763  21.178  0.00  0.00    +0.000 A 
ATOM     10  C   UNL     1       0.923   9.999  20.034  0.00  0.00    +0.000 A 
ATOM     11  C   UNL     1       1.237  11.348  19.693  0.00  0.00    +0.000 A 
ATOM     12  C   UNL     1       1.919  11.708  18.508  0.00  0.00    +0.000 A 
ATOM     13  C   UNL     1       2.183  13.037  18.189  0.00  0.00    +0.000 A 
ATOM     14  C   UNL     1       1.790  14.062  19.048  0.00  0.00    +0.000 A 
ATOM     15  C   UNL     1       2.072  15.485  18.653  0.00  0.00    +0.000 C 
ATOM     16  C   UNL     1       1.131  13.724  20.254  0.00  0.00    +0.000 A 
ATOM     17  C   UNL     1       0.725  14.791  21.248  0.00  0.00    +0.000 C 
ATOM     18  C   UNL     1       0.825  12.382  20.568  0.00  0.00    +0.000 A 
ATOM     19  N   UNL     1       0.120  12.112  21.681  0.00  0.00    +0.000 NA
ENDBRANCH   5  10
ENDBRANCH   1   5
BRANCH   2  20
ATOM     20  C   UNL     1       3.563   5.977  19.014  0.00  0.00    +0.000 C 
BRANCH  20  21
ATOM     21  C   UNL     1       2.507   4.886  19.220  0.00  0.00    +0.000 A 
ATOM     22  C   UNL     1       1.903   4.215  18.142  0.00  0.00    +0.000 A 
ATOM     23  C   UNL     1       1.010   3.165  18.370  0.00  0.00    +0.000 A 
ATOM     24  C   UNL     1       0.696   2.782  19.671  0.00  0.00    +0.000 A 
ATOM     25  C   UNL     1       1.259   3.460  20.750  0.00  0.00    +0.000 A 
ATOM     26  C   UNL     1       2.152   4.510  20.527  0.00  0.00    +0.000 A 
ENDBRANCH  20  21
BRANCH  20  27
ATOM     27  C   UNL     1       4.756   5.541  18.150  0.00  0.00    +0.000 A 
ATOM     28  C   UNL     1       4.670   5.321  16.768  0.00  0.00    +0.000 A 
ATOM     29  C   UNL     1       5.791   4.911  16.038  0.00  0.00    +0.000 A 
ATOM     30  C   UNL     1       7.021   4.736  16.668  0.00  0.00    +0.000 A 
ATOM     31  C   UNL     1       7.140   4.992  18.030  0.00  0.00    +0.000 A 
ATOM     32  C   UNL     1       6.022   5.401  18.760  0.00  0.00    +0.000 A 
ENDBRANCH  20  27
ENDBRANCH   2  20
TORSDOF 5
ENDMDL
MODEL 6
REMARK VINA RESULT:      -9.1      1.979      2.653
REMARK  Name = 
REMARK  8 active torsions:
REMARK  status: ('A' for Active; 'I' for Inactive)
REMARK    1  A    between atoms: C_1  and  C_2
REMARK    2  A    between atoms: C_4  and  N_5
REMARK    3  A    between atoms: N_5  and  N_6
REMARK    4  A    between atoms: C_7  and  C_9
REMARK    5  A    between atoms: C_9  and  C_10
REMARK    6  A    between atoms: C_9  and  C_16
REMARK    7  A    between atoms: C_25  and  C_26
REMARK    8  A    between atoms: C_27  and  C_28
REMARK                            x       y       z     vdW  Elec       q    Type
REMARK                         _______ _______ _______ _____ _____    ______ ____
ROOT
ATOM      1  N   UNL     1       1.894   7.654  18.738  0.00  0.00    +0.000 N 
ATOM      2  C   UNL     1       2.978   7.231  17.971  0.00  0.00    +0.000 C 
ATOM      3  O   UNL     1       3.712   8.042  17.395  0.00  0.00    +0.000 OA
ATOM      4  H   UNL     1       1.112   7.014  18.845  0.00  0.00    +0.000 HD
ENDROOT
BRANCH   1   5
ATOM      5  N   UNL     1       1.517   9.001  18.522  0.00  0.00    +0.000 N 
ATOM      6  H   UNL     1       2.234   9.485  17.961  0.00  0.00    +0.000 HD
BRANCH   5  10
ATOM      7  C   UNL     1      -0.344   9.461  23.116  0.00  0.00    +0.000 C 
ATOM      8  C   UNL     1       0.281  10.029  21.878  0.00  0.00    +0.000 A 
ATOM      9  C   UNL     1       0.670   9.207  20.833  0.00  0.00    +0.000 A 
ATOM     10  C   UNL     1       1.179   9.783  19.668  0.00  0.00    +0.000 A 
ATOM     11  C   UNL     1       1.233  11.206  19.581  0.00  0.00    +0.000 A 
ATOM     12  C   UNL     1       1.638  11.895  18.415  0.00  0.00    +0.000 A 
ATOM     13  C   UNL     1       1.650  13.286  18.352  0.00  0.00    +0.000 A 
ATOM     14  C   UNL     1       1.273  14.047  19.458  0.00  0.00    +0.000 A 
ATOM     15  C   UNL     1       1.277  15.546  19.338  0.00  0.00    +0.000 C 
ATOM     16  C   UNL     1       0.892  13.379  20.645  0.00  0.00    +0.000 A 
ATOM     17  C   UNL     1       0.520  14.153  21.891  0.00  0.00    +0.000 C 
ATOM     18  C   UNL     1       0.840  11.970  20.706  0.00  0.00    +0.000 A 
ATOM     19  N   UNL     1       0.388  11.376  21.826  0.00  0.00    +0.000 NA
ENDBRANCH   5  10
ENDBRANCH   1   5
BRANCH   2  20
ATOM     20  C   UNL     1       3.193   5.714  17.854  0.00  0.00    +0.000 C 
BRANCH  20  21
ATOM     21  C   UNL     1       4.673   5.364  17.663  0.00  0.00    +0.000 A 
ATOM     22  C   UNL     1       5.631   5.585  18.669  0.00  0.00    +0.000 A 
ATOM     23  C   UNL     1       6.953   5.172  18.493  0.00  0.00    +0.000 A 
ATOM     24  C   UNL     1       7.341   4.550  17.309  0.00  0.00    +0.000 A 
ATOM     25  C   UNL     1       6.412   4.356  16.289  0.00  0.00    +0.000 A 
ATOM     26  C   UNL     1       5.089   4.766  16.461  0.00  0.00    +0.000 A 
ENDBRANCH  20  21
BRANCH  20  27
ATOM     27  C   UNL     1       2.474   4.848  18.899  0.00  0.00    +0.000 A 
ATOM     28  C   UNL     1       1.505   3.888  18.573  0.00  0.00    +0.000 A 
ATOM     29  C   UNL     1       0.875   3.139  19.572  0.00  0.00    +0.000 A 
ATOM     30  C   UNL     1       1.216   3.317  20.911  0.00  0.00    +0.000 A 
ATOM     31  C   UNL     1       2.206   4.231  21.254  0.00  0.00    +0.000 A 
ATOM     32  C   UNL     1       2.836   4.979  20.258  0.00  0.00    +0.000 A 
ENDBRANCH  20  27
ENDBRANCH   2  20
TORSDOF 5
ENDMDL
MODEL 7
REMARK VINA RESULT:      -9.0      1.415      2.919
REMARK  Name = 
REMARK  8 active torsions:
REMARK  status: ('A' for Active; 'I' for Inactive)
REMARK    1  A    between atoms: C_1  and  C_2
REMARK    2  A    between atoms: C_4  and  N_5
REMARK    3  A    between atoms: N_5  and  N_6
REMARK    4  A    between atoms: C_7  and  C_9
REMARK    5  A    between atoms: C_9  and  C_10
REMARK    6  A    between atoms: C_9  and  C_16
REMARK    7  A    between atoms: C_25  and  C_26
REMARK    8  A    between atoms: C_27  and  C_28
REMARK                            x       y       z     vdW  Elec       q    Type
REMARK                         _______ _______ _______ _____ _____    ______ ____
ROOT
ATOM      1  N   UNL     1       1.286   7.974  17.750  0.00  0.00    +0.000 N 
ATOM      2  C   UNL     1       2.649   7.720  17.887  0.00  0.00    +0.000 C 
ATOM      3  O   UNL     1       3.459   8.638  18.059  0.00  0.00    +0.000 OA
ATOM      4  H   UNL     1       0.731   7.304  17.224  0.00  0.00    +0.000 HD
ENDROOT
BRANCH   1   5
ATOM      5  N   UNL     1       0.969   9.327  17.483  0.00  0.00    +0.000 N 
ATOM      6  H   UNL     1       1.827   9.859  17.276  0.00  0.00    +0.000 HD
BRANCH   5  10
ATOM      7  C   UNL     1       0.074  10.831  22.143  0.00  0.00    +0.000 C 
ATOM      8  C   UNL     1      -0.275  10.752  20.688  0.00  0.00    +0.000 A 
ATOM      9  C   UNL     1       0.576  10.141  19.782  0.00  0.00    +0.000 A 
ATOM     10  C   UNL     1       0.179  10.022  18.449  0.00  0.00    +0.000 A 
ATOM     11  C   UNL     1      -1.116  10.495  18.081  0.00  0.00    +0.000 A 
ATOM     12  C   UNL     1      -1.657  10.338  16.784  0.00  0.00    +0.000 A 
ATOM     13  C   UNL     1      -2.937  10.783  16.465  0.00  0.00    +0.000 A 
ATOM     14  C   UNL     1      -3.724  11.418  17.424  0.00  0.00    +0.000 A 
ATOM     15  C   UNL     1      -5.110  11.860  17.044  0.00  0.00    +0.000 C 
ATOM     16  C   UNL     1      -3.192  11.612  18.720  0.00  0.00    +0.000 A 
ATOM     17  C   UNL     1      -3.982  12.339  19.788  0.00  0.00    +0.000 C 
ATOM     18  C   UNL     1      -1.911  11.130  19.065  0.00  0.00    +0.000 A 
ATOM     19  N   UNL     1      -1.478  11.258  20.332  0.00  0.00    +0.000 NA
ENDBRANCH   5  10
ENDBRANCH   1   5
BRANCH   2  20
ATOM     20  C   UNL     1       3.095   6.253  17.784  0.00  0.00    +0.000 C 
BRANCH  20  21
ATOM     21  C   UNL     1       4.616   6.112  17.905  0.00  0.00    +0.000 A 
ATOM     22  C   UNL     1       5.231   5.606  19.063  0.00  0.00    +0.000 A 
ATOM     23  C   UNL     1       6.613   5.409  19.105  0.00  0.00    +0.000 A 
ATOM     24  C   UNL     1       7.400   5.728  18.001  0.00  0.00    +0.000 A 
ATOM     25  C   UNL     1       6.810   6.264  16.859  0.00  0.00    +0.000 A 
ATOM     26  C   UNL     1       5.428   6.462  16.813  0.00  0.00    +0.000 A 
ENDBRANCH  20  21
BRANCH  20  27
ATOM     27  C   UNL     1       2.302   5.247  18.631  0.00  0.00    +0.000 A 
ATOM     28  C   UNL     1       2.019   5.435  19.991  0.00  0.00    +0.000 A 
ATOM     29  C   UNL     1       1.302   4.474  20.713  0.00  0.00    +0.000 A 
ATOM     30  C   UNL     1       0.836   3.321  20.085  0.00  0.00    +0.000 A 
ATOM     31  C   UNL     1       1.066   3.134  18.727  0.00  0.00    +0.000 A 
ATOM     32  C   UNL     1       1.781   4.092  18.005  0.00  0.00    +0.000 A 
ENDBRANCH  20  27
ENDBRANCH   2  20
TORSDOF 5
ENDMDL
MODEL 8
REMARK VINA RESULT:      -9.0      1.908      2.372
REMARK  Name = 
REMARK  8 active torsions:
REMARK  status: ('A' for Active; 'I' for Inactive)
REMARK    1  A    between atoms: C_1  and  C_2
REMARK    2  A    between atoms: C_4  and  N_5
REMARK    3  A    between atoms: N_5  and  N_6
REMARK    4  A    between atoms: C_7  and  C_9
REMARK    5  A    between atoms: C_9  and  C_10
REMARK    6  A    between atoms: C_9  and  C_16
REMARK    7  A    between atoms: C_25  and  C_26
REMARK    8  A    between atoms: C_27  and  C_28
REMARK                            x       y       z     vdW  Elec       q    Type
REMARK                         _______ _______ _______ _____ _____    ______ ____
ROOT
ATOM      1  N   UNL     1       1.906   7.996  18.857  0.00  0.00    +0.000 N 
ATOM      2  C   UNL     1       2.792   7.646  17.840  0.00  0.00    +0.000 C 
ATOM      3  O   UNL     1       3.126   8.459  16.971  0.00  0.00    +0.000 OA
ATOM      4  H   UNL     1       1.354   7.255  19.280  0.00  0.00    +0.000 HD
ENDROOT
BRANCH   1   5
ATOM      5  N   UNL     1       1.186   9.191  18.616  0.00  0.00    +0.000 N 
ATOM      6  H   UNL     1       1.623   9.721  17.848  0.00  0.00    +0.000 HD
BRANCH   5  10
ATOM      7  C   UNL     1      -0.748  10.090  23.114  0.00  0.00    +0.000 C 
ATOM      8  C   UNL     1       0.015  10.508  21.894  0.00  0.00    +0.000 A 
ATOM      9  C   UNL     1       0.296   9.603  20.883  0.00  0.00    +0.000 A 
ATOM     10  C   UNL     1       0.944  10.050  19.731  0.00  0.00    +0.000 A 
ATOM     11  C   UNL     1       1.249  11.440  19.618  0.00  0.00    +0.000 A 
ATOM     12  C   UNL     1       1.813  12.017  18.458  0.00  0.00    +0.000 A 
ATOM     13  C   UNL     1       2.070  13.382  18.368  0.00  0.00    +0.000 A 
ATOM     14  C   UNL     1       1.787  14.226  19.441  0.00  0.00    +0.000 A 
ATOM     15  C   UNL     1       2.057  15.698  19.292  0.00  0.00    +0.000 C 
ATOM     16  C   UNL     1       1.249  13.667  20.623  0.00  0.00    +0.000 A 
ATOM     17  C   UNL     1       0.968  14.527  21.836  0.00  0.00    +0.000 C 
ATOM     18  C   UNL     1       0.949  12.290  20.710  0.00  0.00    +0.000 A 
ATOM     19  N   UNL     1       0.356  11.815  21.820  0.00  0.00    +0.000 NA
ENDBRANCH   5  10
ENDBRANCH   1   5
BRANCH   2  20
ATOM     20  C   UNL     1       3.306   6.198  17.838  0.00  0.00    +0.000 C 
BRANCH  20  21
ATOM     21  C   UNL     1       4.824   6.133  18.030  0.00  0.00    +0.000 A 
ATOM     22  C   UNL     1       5.716   6.829  17.195  0.00  0.00    +0.000 A 
ATOM     23  C   UNL     1       7.088   6.818  17.455  0.00  0.00    +0.000 A 
ATOM     24  C   UNL     1       7.590   6.101  18.538  0.00  0.00    +0.000 A 
ATOM     25  C   UNL     1       6.724   5.378  19.354  0.00  0.00    +0.000 A 
ATOM     26  C   UNL     1       5.351   5.387  19.099  0.00  0.00    +0.000 A 
ENDBRANCH  20  21
BRANCH  20  27
ATOM     27  C   UNL     1       2.521   5.203  18.706  0.00  0.00    +0.000 A 
ATOM     28  C   UNL     1       2.392   5.324  20.097  0.00  0.00    +0.000 A 
ATOM     29  C   UNL     1       1.674   4.377  20.836  0.00  0.00    +0.000 A 
ATOM     30  C   UNL     1       1.053   3.306  20.197  0.00  0.00    +0.000 A 
ATOM     31  C   UNL     1       1.129   3.189  18.814  0.00  0.00    +0.000 A 
ATOM     32  C   UNL     1       1.845   4.134  18.075  0.00  0.00    +0.000 A 
ENDBRANCH  20  27
ENDBRANCH   2  20
TORSDOF 5
ENDMDL
MODEL 9
REMARK VINA RESULT:      -9.0      2.068      8.031
REMARK  Name = 
REMARK  8 active torsions:
REMARK  status: ('A' for Active; 'I' for Inactive)
REMARK    1  A    between atoms: C_1  and  C_2
REMARK    2  A    between atoms: C_4  and  N_5
REMARK    3  A    between atoms: N_5  and  N_6
REMARK    4  A    between atoms: C_7  and  C_9
REMARK    5  A    between atoms: C_9  and  C_10
REMARK    6  A    between atoms: C_9  and  C_16
REMARK    7  A    between atoms: C_25  and  C_26
REMARK    8  A    between atoms: C_27  and  C_28
REMARK                            x       y       z     vdW  Elec       q    Type
REMARK                         _______ _______ _______ _____ _____    ______ ____
ROOT
ATOM      1  N   UNL     1       1.477   8.453  17.882  0.00  0.00    +0.000 N 
ATOM      2  C   UNL     1       0.949   9.636  18.394  0.00  0.00    +0.000 C 
ATOM      3  O   UNL     1       1.608  10.681  18.407  0.00  0.00    +0.000 OA
ATOM      4  H   UNL     1       1.110   7.576  18.240  0.00  0.00    +0.000 HD
ENDROOT
BRANCH   1   5
ATOM      5  N   UNL     1       2.883   8.468  17.713  0.00  0.00    +0.000 N 
ATOM      6  H   UNL     1       3.133   9.001  16.868  0.00  0.00    +0.000 HD
BRANCH   5  10
ATOM      7  C   UNL     1       5.924   5.119  15.637  0.00  0.00    +0.000 C 
ATOM      8  C   UNL     1       5.018   5.581  16.737  0.00  0.00    +0.000 A 
ATOM      9  C   UNL     1       4.459   6.848  16.716  0.00  0.00    +0.000 A 
ATOM     10  C   UNL     1       3.561   7.212  17.722  0.00  0.00    +0.000 A 
ATOM     11  C   UNL     1       3.216   6.240  18.709  0.00  0.00    +0.000 A 
ATOM     12  C   UNL     1       2.247   6.468  19.712  0.00  0.00    +0.000 A 
ATOM     13  C   UNL     1       1.911   5.488  20.642  0.00  0.00    +0.000 A 
ATOM     14  C   UNL     1       2.540   4.244  20.618  0.00  0.00    +0.000 A 
ATOM     15  C   UNL     1       2.128   3.206  21.625  0.00  0.00    +0.000 C 
ATOM     16  C   UNL     1       3.534   4.004  19.641  0.00  0.00    +0.000 A 
ATOM     17  C   UNL     1       4.286   2.691  19.597  0.00  0.00    +0.000 C 
ATOM     18  C   UNL     1       3.855   4.977  18.670  0.00  0.00    +0.000 A 
ATOM     19  N   UNL     1       4.742   4.676  17.705  0.00  0.00    +0.000 NA
ENDBRANCH   5  10
ENDBRANCH   1   5
BRANCH   2  20
ATOM     20  C   UNL     1      -0.476   9.567  18.967  0.00  0.00    +0.000 C 
BRANCH  20  21
ATOM     21  C   UNL     1      -0.519  10.005  20.435  0.00  0.00    +0.000 A 
ATOM     22  C   UNL     1      -0.782  11.333  20.813  0.00  0.00    +0.000 A 
ATOM     23  C   UNL     1      -0.902  11.677  22.161  0.00  0.00    +0.000 A 
ATOM     24  C   UNL     1      -0.745  10.707  23.148  0.00  0.00    +0.000 A 
ATOM     25  C   UNL     1      -0.449   9.394  22.791  0.00  0.00    +0.000 A 
ATOM     26  C   UNL     1      -0.330   9.045  21.444  0.00  0.00    +0.000 A 
ENDBRANCH  20  21
BRANCH  20  27
ATOM     27  C   UNL     1      -1.583  10.181  18.096  0.00  0.00    +0.000 A 
ATOM     28  C   UNL     1      -2.476  11.159  18.557  0.00  0.00    +0.000 A 
ATOM     29  C   UNL     1      -3.472  11.671  17.718  0.00  0.00    +0.000 A 
ATOM     30  C   UNL     1      -3.580  11.234  16.400  0.00  0.00    +0.000 A 
ATOM     31  C   UNL     1      -2.678  10.298  15.908  0.00  0.00    +0.000 A 
ATOM     32  C   UNL     1      -1.682   9.786  16.743  0.00  0.00    +0.000 A 
ENDBRANCH  20  27
ENDBRANCH   2  20
TORSDOF 5
ENDMDL
