MODEL 1
REMARK VINA RESULT:      -8.5      0.000      0.000
REMARK  Name = 
REMARK  8 active torsions:
REMARK  status: ('A' for Active; 'I' for Inactive)
REMARK    1  A    between atoms: C_2  and  C_3
REMARK    2  A    between atoms: C_6  and  C_7
REMARK    3  A    between atoms: N_9  and  C_10
REMARK    4  A    between atoms: C_10  and  C_11
REMARK    5  A    between atoms: C_11  and  C_12
REMARK    6  A    between atoms: C_14  and  C_15
REMARK    7  A    between atoms: C_22  and  O_23
REMARK    8  A    between atoms: O_23  and  C_24
REMARK                            x       y       z     vdW  Elec       q    Type
REMARK                         _______ _______ _______ _____ _____    ______ ____
ROOT
ATOM      1  C   UNL     1       0.594   9.989  19.962  0.00  0.00    +0.000 A 
ATOM      2  C   UNL     1       0.117   9.787  21.372  0.00  0.00    +0.000 A 
ATOM      3  O   UNL     1      -0.647  10.572  21.926  0.00  0.00    +0.000 OA
ATOM      4  C   UNL     1       0.586   8.590  22.100  0.00  0.00    +0.000 A 
ATOM      5  C   UNL     1       1.355   7.725  21.436  0.00  0.00    +0.000 A 
ATOM      6  N   UNL     1       1.761   7.873  20.123  0.00  0.00    +0.000 N 
ATOM      7  N   UNL     1       2.560   6.879  19.600  0.00  0.00    +0.000 NA
ATOM      8  C   UNL     1       2.998   7.070  18.399  0.00  0.00    +0.000 A 
ATOM      9  C   UNL     1       2.723   8.221  17.530  0.00  0.00    +0.000 A 
ATOM     10  C   UNL     1       1.938   9.166  18.061  0.00  0.00    +0.000 A 
ATOM     11  C   UNL     1       1.391   9.037  19.412  0.00  0.00    +0.000 A 
ENDROOT
BRANCH   1  17
ATOM     12  C   UNL     1      -0.987  11.328  18.535  0.00  0.00    +0.000 A 
ATOM     13  C   UNL     1      -1.361  12.560  17.984  0.00  0.00    +0.000 A 
ATOM     14  C   UNL     1      -0.540  13.681  18.134  0.00  0.00    +0.000 A 
ATOM     15  C   UNL     1       0.677  13.586  18.819  0.00  0.00    +0.000 A 
ATOM     16  C   UNL     1       1.054  12.363  19.387  0.00  0.00    +0.000 A 
ATOM     17  C   UNL     1       0.217  11.238  19.265  0.00  0.00    +0.000 A 
BRANCH  15  18
ATOM     18  C   UNL     1       1.489  14.824  18.982  0.00  0.00    +0.000 C 
ATOM     19  O   UNL     1       2.633  14.742  19.416  0.00  0.00    +0.000 OA
ATOM     20  N   UNL     1       0.891  16.017  18.635  0.00  0.00    +0.000 N 
ATOM     21  H   UNL     1      -0.082  16.041  18.362  0.00  0.00    +0.000 HD
BRANCH  20  22
ATOM     22  C   UNL     1       1.612  17.276  18.698  0.00  0.00    +0.000 C 
BRANCH  22  23
ATOM     23  C   UNL     1       1.472  18.086  17.409  0.00  0.00    +0.000 C 
ATOM     24  C   UNL     1       0.034  18.157  16.917  0.00  0.00    +0.000 C 
ENDBRANCH  22  23
ENDBRANCH  20  22
ENDBRANCH  15  18
BRANCH  12  26
ATOM     25  C   UNL     1      -2.262   9.764  17.104  0.00  0.00    +0.000 C 
ATOM     26  C   UNL     1      -1.854  10.164  18.313  0.00  0.00    +0.000 C 
ENDBRANCH  12  26
ENDBRANCH   1  17
BRANCH   8  27
ATOM     27  O   UNL     1       3.846   6.202  17.725  0.00  0.00    +0.000 OA
BRANCH  27  28
ATOM     28  C   UNL     1       3.715   4.810  17.914  0.00  0.00    +0.000 A 
ATOM     29  C   UNL     1       2.727   4.075  17.258  0.00  0.00    +0.000 A 
ATOM     30  C   UNL     1       2.577   2.719  17.544  0.00  0.00    +0.000 A 
ATOM     31  C   UNL     1       3.396   2.122  18.500  0.00  0.00    +0.000 A 
ATOM     32  F   UNL     1       3.232   0.824  18.783  0.00  0.00    +0.000 F 
ATOM     33  C   UNL     1       4.368   2.852  19.174  0.00  0.00    +0.000 A 
ATOM     34  C   UNL     1       4.522   4.202  18.878  0.00  0.00    +0.000 A 
ATOM     35  F   UNL     1       5.443   4.916  19.544  0.00  0.00    +0.000 F 
ENDBRANCH  27  28
ENDBRANCH   8  27
TORSDOF 7
ENDMDL
MODEL 2
REMARK VINA RESULT:      -8.5      4.297      9.707
REMARK  Name = 
REMARK  8 active torsions:
REMARK  status: ('A' for Active; 'I' for Inactive)
REMARK    1  A    between atoms: C_2  and  C_3
REMARK    2  A    between atoms: C_6  and  C_7
REMARK    3  A    between atoms: N_9  and  C_10
REMARK    4  A    between atoms: C_10  and  C_11
REMARK    5  A    between atoms: C_11  and  C_12
REMARK    6  A    between atoms: C_14  and  C_15
REMARK    7  A    between atoms: C_22  and  O_23
REMARK    8  A    between atoms: O_23  and  C_24
REMARK                            x       y       z     vdW  Elec       q    Type
REMARK                         _______ _______ _______ _____ _____    ______ ____
ROOT
ATOM      1  C   UNL     1       4.021   4.770  17.781  0.00  0.00    +0.000 A 
ATOM      2  C   UNL     1       3.509   3.487  18.373  0.00  0.00    +0.000 A 
ATOM      3  O   UNL     1       4.076   2.412  18.198  0.00  0.00    +0.000 OA
ATOM      4  C   UNL     1       2.285   3.541  19.198  0.00  0.00    +0.000 A 
ATOM      5  C   UNL     1       1.743   4.739  19.422  0.00  0.00    +0.000 A 
ATOM      6  N   UNL     1       2.232   5.934  18.927  0.00  0.00    +0.000 N 
ATOM      7  N   UNL     1       1.539   7.078  19.259  0.00  0.00    +0.000 NA
ATOM      8  C   UNL     1       1.958   8.177  18.722  0.00  0.00    +0.000 A 
ATOM      9  C   UNL     1       3.100   8.337  17.813  0.00  0.00    +0.000 A 
ATOM     10  C   UNL     1       3.759   7.211  17.515  0.00  0.00    +0.000 A 
ATOM     11  C   UNL     1       3.361   5.920  18.077  0.00  0.00    +0.000 A 
ENDROOT
BRANCH   1  17
ATOM     12  C   UNL     1       6.496   4.881  17.347  0.00  0.00    +0.000 A 
ATOM     13  C   UNL     1       7.573   4.704  16.471  0.00  0.00    +0.000 A 
ATOM     14  C   UNL     1       7.348   4.387  15.128  0.00  0.00    +0.000 A 
ATOM     15  C   UNL     1       6.044   4.259  14.636  0.00  0.00    +0.000 A 
ATOM     16  C   UNL     1       4.960   4.418  15.507  0.00  0.00    +0.000 A 
ATOM     17  C   UNL     1       5.181   4.709  16.867  0.00  0.00    +0.000 A 
BRANCH  15  18
ATOM     18  C   UNL     1       5.868   3.878  13.206  0.00  0.00    +0.000 C 
ATOM     19  O   UNL     1       6.834   3.910  12.450  0.00  0.00    +0.000 OA
ATOM     20  N   UNL     1       4.601   3.512  12.806  0.00  0.00    +0.000 N 
ATOM     21  H   UNL     1       3.822   3.583  13.445  0.00  0.00    +0.000 HD
BRANCH  20  22
ATOM     22  C   UNL     1       4.331   3.066  11.451  0.00  0.00    +0.000 C 
BRANCH  22  23
ATOM     23  C   UNL     1       3.660   4.151  10.609  0.00  0.00    +0.000 C 
ATOM     24  C   UNL     1       2.795   3.576   9.496  0.00  0.00    +0.000 C 
ENDBRANCH  22  23
ENDBRANCH  20  22
ENDBRANCH  15  18
BRANCH  12  26
ATOM     25  C   UNL     1       7.882   5.906  19.122  0.00  0.00    +0.000 C 
ATOM     26  C   UNL     1       6.775   5.261  18.738  0.00  0.00    +0.000 C 
ENDBRANCH  12  26
ENDBRANCH   1  17
BRANCH   8  27
ATOM     27  O   UNL     1       1.364   9.418  18.905  0.00  0.00    +0.000 OA
BRANCH  27  28
ATOM     28  C   UNL     1       0.780   9.735  20.150  0.00  0.00    +0.000 A 
ATOM     29  C   UNL     1       1.028   8.967  21.289  0.00  0.00    +0.000 A 
ATOM     30  C   UNL     1       0.360   9.264  22.475  0.00  0.00    +0.000 A 
ATOM     31  C   UNL     1      -0.566  10.305  22.502  0.00  0.00    +0.000 A 
ATOM     32  F   UNL     1      -1.218  10.570  23.641  0.00  0.00    +0.000 F 
ATOM     33  C   UNL     1      -0.834  11.061  21.367  0.00  0.00    +0.000 A 
ATOM     34  C   UNL     1      -0.157  10.768  20.188  0.00  0.00    +0.000 A 
ATOM     35  F   UNL     1      -0.432  11.481  19.084  0.00  0.00    +0.000 F 
ENDBRANCH  27  28
ENDBRANCH   8  27
TORSDOF 7
ENDMDL
MODEL 3
REMARK VINA RESULT:      -8.4      4.247      9.735
REMARK  Name = 
REMARK  8 active torsions:
REMARK  status: ('A' for Active; 'I' for Inactive)
REMARK    1  A    between atoms: C_2  and  C_3
REMARK    2  A    between atoms: C_6  and  C_7
REMARK    3  A    between atoms: N_9  and  C_10
REMARK    4  A    between atoms: C_10  and  C_11
REMARK    5  A    between atoms: C_11  and  C_12
REMARK    6  A    between atoms: C_14  and  C_15
REMARK    7  A    between atoms: C_22  and  O_23
REMARK    8  A    between atoms: O_23  and  C_24
REMARK                            x       y       z     vdW  Elec       q    Type
REMARK                         _______ _______ _______ _____ _____    ______ ____
ROOT
ATOM      1  C   UNL     1       3.938   4.880  17.569  0.00  0.00    +0.000 A 
ATOM      2  C   UNL     1       3.305   3.602  18.039  0.00  0.00    +0.000 A 
ATOM      3  O   UNL     1       3.802   2.501  17.814  0.00  0.00    +0.000 OA
ATOM      4  C   UNL     1       2.046   3.690  18.807  0.00  0.00    +0.000 A 
ATOM      5  C   UNL     1       1.581   4.907  19.093  0.00  0.00    +0.000 A 
ATOM      6  N   UNL     1       2.180   6.093  18.710  0.00  0.00    +0.000 N 
ATOM      7  N   UNL     1       1.554   7.261  19.092  0.00  0.00    +0.000 NA
ATOM      8  C   UNL     1       2.079   8.359  18.658  0.00  0.00    +0.000 A 
ATOM      9  C   UNL     1       3.276   8.496  17.818  0.00  0.00    +0.000 A 
ATOM     10  C   UNL     1       3.867   7.347  17.470  0.00  0.00    +0.000 A 
ATOM     11  C   UNL     1       3.348   6.053  17.916  0.00  0.00    +0.000 A 
ENDROOT
BRANCH   1  17
ATOM     12  C   UNL     1       6.433   4.945  17.249  0.00  0.00    +0.000 A 
ATOM     13  C   UNL     1       7.545   4.746  16.423  0.00  0.00    +0.000 A 
ATOM     14  C   UNL     1       7.376   4.429  15.072  0.00  0.00    +0.000 A 
ATOM     15  C   UNL     1       6.094   4.324  14.520  0.00  0.00    +0.000 A 
ATOM     16  C   UNL     1       4.974   4.505  15.341  0.00  0.00    +0.000 A 
ATOM     17  C   UNL     1       5.138   4.795  16.709  0.00  0.00    +0.000 A 
BRANCH  15  18
ATOM     18  C   UNL     1       5.977   3.943  13.085  0.00  0.00    +0.000 C 
ATOM     19  O   UNL     1       6.941   4.090  12.341  0.00  0.00    +0.000 OA
ATOM     20  N   UNL     1       4.763   3.442  12.666  0.00  0.00    +0.000 N 
ATOM     21  H   UNL     1       3.974   3.419  13.297  0.00  0.00    +0.000 HD
BRANCH  20  22
ATOM     22  C   UNL     1       4.558   2.985  11.303  0.00  0.00    +0.000 C 
BRANCH  22  23
ATOM     23  C   UNL     1       3.121   3.202  10.831  0.00  0.00    +0.000 C 
ATOM     24  C   UNL     1       3.028   4.191   9.679  0.00  0.00    +0.000 C 
ENDBRANCH  22  23
ENDBRANCH  20  22
ENDBRANCH  15  18
BRANCH  12  26
ATOM     25  C   UNL     1       7.813   5.806  19.112  0.00  0.00    +0.000 C 
ATOM     26  C   UNL     1       6.654   5.324  18.650  0.00  0.00    +0.000 C 
ENDBRANCH  12  26
ENDBRANCH   1  17
BRANCH   8  27
ATOM     27  O   UNL     1       1.566   9.625  18.903  0.00  0.00    +0.000 OA
BRANCH  27  28
ATOM     28  C   UNL     1       0.208   9.894  18.631  0.00  0.00    +0.000 A 
ATOM     29  C   UNL     1      -0.388   9.496  17.433  0.00  0.00    +0.000 A 
ATOM     30  C   UNL     1      -1.706   9.861  17.169  0.00  0.00    +0.000 A 
ATOM     31  C   UNL     1      -2.403  10.640  18.090  0.00  0.00    +0.000 A 
ATOM     32  F   UNL     1      -3.663  11.003  17.819  0.00  0.00    +0.000 F 
ATOM     33  C   UNL     1      -1.810  11.058  19.276  0.00  0.00    +0.000 A 
ATOM     34  C   UNL     1      -0.498  10.683  19.540  0.00  0.00    +0.000 A 
ATOM     35  F   UNL     1       0.086  11.104  20.673  0.00  0.00    +0.000 F 
ENDBRANCH  27  28
ENDBRANCH   8  27
TORSDOF 7
ENDMDL
MODEL 4
REMARK VINA RESULT:      -8.4      1.154      1.487
REMARK  Name = 
REMARK  8 active torsions:
REMARK  status: ('A' for Active; 'I' for Inactive)
REMARK    1  A    between atoms: C_2  and  C_3
REMARK    2  A    between atoms: C_6  and  C_7
REMARK    3  A    between atoms: N_9  and  C_10
REMARK    4  A    between atoms: C_10  and  C_11
REMARK    5  A    between atoms: C_11  and  C_12
REMARK    6  A    between atoms: C_14  and  C_15
REMARK    7  A    between atoms: C_22  and  O_23
REMARK    8  A    between atoms: O_23  and  C_24
REMARK                            x       y       z     vdW  Elec       q    Type
REMARK                         _______ _______ _______ _____ _____    ______ ____
ROOT
ATOM      1  C   UNL     1       0.719  10.280  20.089  0.00  0.00    +0.000 A 
ATOM      2  C   UNL     1       0.292  10.095  21.517  0.00  0.00    +0.000 A 
ATOM      3  O   UNL     1      -0.375  10.933  22.117  0.00  0.00    +0.000 OA
ATOM      4  C   UNL     1       0.689   8.850  22.207  0.00  0.00    +0.000 A 
ATOM      5  C   UNL     1       1.350   7.934  21.497  0.00  0.00    +0.000 A 
ATOM      6  N   UNL     1       1.706   8.069  20.168  0.00  0.00    +0.000 N 
ATOM      7  N   UNL     1       2.392   7.020  19.594  0.00  0.00    +0.000 NA
ATOM      8  C   UNL     1       2.790   7.193  18.377  0.00  0.00    +0.000 A 
ATOM      9  C   UNL     1       2.575   8.378  17.537  0.00  0.00    +0.000 A 
ATOM     10  C   UNL     1       1.899   9.377  18.116  0.00  0.00    +0.000 A 
ATOM     11  C   UNL     1       1.406   9.272  19.490  0.00  0.00    +0.000 A 
ENDROOT
BRANCH   1  17
ATOM     12  C   UNL     1      -0.761  11.741  18.674  0.00  0.00    +0.000 A 
ATOM     13  C   UNL     1      -1.063  13.006  18.158  0.00  0.00    +0.000 A 
ATOM     14  C   UNL     1      -0.191  14.080  18.363  0.00  0.00    +0.000 A 
ATOM     15  C   UNL     1       1.003  13.903  19.070  0.00  0.00    +0.000 A 
ATOM     16  C   UNL     1       1.307  12.645  19.605  0.00  0.00    +0.000 A 
ATOM     17  C   UNL     1       0.419  11.567  19.427  0.00  0.00    +0.000 A 
BRANCH  15  18
ATOM     18  C   UNL     1       1.870  15.094  19.292  0.00  0.00    +0.000 C 
ATOM     19  O   UNL     1       1.799  15.703  20.355  0.00  0.00    +0.000 OA
ATOM     20  N   UNL     1       2.715  15.456  18.265  0.00  0.00    +0.000 N 
ATOM     21  H   UNL     1       2.676  14.974  17.378  0.00  0.00    +0.000 HD
BRANCH  20  22
ATOM     22  C   UNL     1       3.644  16.563  18.398  0.00  0.00    +0.000 C 
BRANCH  22  23
ATOM     23  C   UNL     1       5.093  16.090  18.515  0.00  0.00    +0.000 C 
ATOM     24  C   UNL     1       5.298  14.692  17.950  0.00  0.00    +0.000 C 
ENDBRANCH  22  23
ENDBRANCH  20  22
ENDBRANCH  15  18
BRANCH  12  26
ATOM     25  C   UNL     1      -1.754  10.010  17.212  0.00  0.00    +0.000 C 
ATOM     26  C   UNL     1      -1.679  10.629  18.395  0.00  0.00    +0.000 C 
ENDBRANCH  12  26
ENDBRANCH   1  17
BRANCH   8  27
ATOM     27  O   UNL     1       3.528   6.267  17.652  0.00  0.00    +0.000 OA
BRANCH  27  28
ATOM     28  C   UNL     1       3.369   4.890  17.912  0.00  0.00    +0.000 A 
ATOM     29  C   UNL     1       2.209   4.207  17.544  0.00  0.00    +0.000 A 
ATOM     30  C   UNL     1       2.057   2.868  17.901  0.00  0.00    +0.000 A 
ATOM     31  C   UNL     1       3.053   2.237  18.644  0.00  0.00    +0.000 A 
ATOM     32  F   UNL     1       2.890   0.957  19.000  0.00  0.00    +0.000 F 
ATOM     33  C   UNL     1       4.202   2.916  19.033  0.00  0.00    +0.000 A 
ATOM     34  C   UNL     1       4.353   4.248  18.666  0.00  0.00    +0.000 A 
ATOM     35  F   UNL     1       5.450   4.913  19.061  0.00  0.00    +0.000 F 
ENDBRANCH  27  28
ENDBRANCH   8  27
TORSDOF 7
ENDMDL
MODEL 5
REMARK VINA RESULT:      -8.3      2.114      2.830
REMARK  Name = 
REMARK  8 active torsions:
REMARK  status: ('A' for Active; 'I' for Inactive)
REMARK    1  A    between atoms: C_2  and  C_3
REMARK    2  A    between atoms: C_6  and  C_7
REMARK    3  A    between atoms: N_9  and  C_10
REMARK    4  A    between atoms: C_10  and  C_11
REMARK    5  A    between atoms: C_11  and  C_12
REMARK    6  A    between atoms: C_14  and  C_15
REMARK    7  A    between atoms: C_22  and  O_23
REMARK    8  A    between atoms: O_23  and  C_24
REMARK                            x       y       z     vdW  Elec       q    Type
REMARK                         _______ _______ _______ _____ _____    ______ ____
ROOT
ATOM      1  C   UNL     1       0.836  10.404  20.151  0.00  0.00    +0.000 A 
ATOM      2  C   UNL     1       0.507  10.356  21.615  0.00  0.00    +0.000 A 
ATOM      3  O   UNL     1      -0.024  11.296  22.200  0.00  0.00    +0.000 OA
ATOM      4  C   UNL     1       0.833   9.123  22.362  0.00  0.00    +0.000 A 
ATOM      5  C   UNL     1       1.341   8.100  21.673  0.00  0.00    +0.000 A 
ATOM      6  N   UNL     1       1.602   8.112  20.315  0.00  0.00    +0.000 N 
ATOM      7  N   UNL     1       2.133   6.963  19.770  0.00  0.00    +0.000 NA
ATOM      8  C   UNL     1       2.449   7.015  18.518  0.00  0.00    +0.000 A 
ATOM      9  C   UNL     1       2.287   8.161  17.613  0.00  0.00    +0.000 A 
ATOM     10  C   UNL     1       1.761   9.260  18.167  0.00  0.00    +0.000 A 
ATOM     11  C   UNL     1       1.370   9.294  19.577  0.00  0.00    +0.000 A 
ENDROOT
BRANCH   1  17
ATOM     12  C   UNL     1      -0.654  11.995  18.895  0.00  0.00    +0.000 A 
ATOM     13  C   UNL     1      -0.852  13.252  18.311  0.00  0.00    +0.000 A 
ATOM     14  C   UNL     1       0.203  14.166  18.226  0.00  0.00    +0.000 A 
ATOM     15  C   UNL     1       1.475  13.832  18.705  0.00  0.00    +0.000 A 
ATOM     16  C   UNL     1       1.679  12.584  19.306  0.00  0.00    +0.000 A 
ATOM     17  C   UNL     1       0.614  11.671  19.421  0.00  0.00    +0.000 A 
BRANCH  15  18
ATOM     18  C   UNL     1       2.547  14.863  18.624  0.00  0.00    +0.000 C 
ATOM     19  O   UNL     1       2.478  15.863  19.331  0.00  0.00    +0.000 OA
ATOM     20  N   UNL     1       3.574  14.632  17.733  0.00  0.00    +0.000 N 
ATOM     21  H   UNL     1       3.543  13.835  17.112  0.00  0.00    +0.000 HD
BRANCH  20  22
ATOM     22  C   UNL     1       4.700  15.541  17.617  0.00  0.00    +0.000 C 
BRANCH  22  23
ATOM     23  C   UNL     1       6.027  14.863  17.955  0.00  0.00    +0.000 C 
ATOM     24  C   UNL     1       6.475  15.135  19.384  0.00  0.00    +0.000 C 
ENDBRANCH  22  23
ENDBRANCH  20  22
ENDBRANCH  15  18
BRANCH  12  26
ATOM     25  C   UNL     1      -2.098  10.253  17.895  0.00  0.00    +0.000 C 
ATOM     26  C   UNL     1      -1.775  11.047  18.922  0.00  0.00    +0.000 C 
ENDBRANCH  12  26
ENDBRANCH   1  17
BRANCH   8  27
ATOM     27  O   UNL     1       3.032   5.974  17.810  0.00  0.00    +0.000 OA
BRANCH  27  28
ATOM     28  C   UNL     1       4.404   5.696  17.981  0.00  0.00    +0.000 A 
ATOM     29  C   UNL     1       4.901   5.185  19.182  0.00  0.00    +0.000 A 
ATOM     30  C   UNL     1       6.275   5.011  19.337  0.00  0.00    +0.000 A 
ATOM     31  C   UNL     1       7.136   5.372  18.303  0.00  0.00    +0.000 A 
ATOM     32  F   UNL     1       8.456   5.220  18.468  0.00  0.00    +0.000 F 
ATOM     33  C   UNL     1       6.651   5.900  17.112  0.00  0.00    +0.000 A 
ATOM     34  C   UNL     1       5.279   6.064  16.958  0.00  0.00    +0.000 A 
ATOM     35  F   UNL     1       4.809   6.596  15.819  0.00  0.00    +0.000 F 
ENDBRANCH  27  28
ENDBRANCH   8  27
TORSDOF 7
ENDMDL
MODEL 6
REMARK VINA RESULT:      -8.2      1.801      2.297
REMARK  Name = 
REMARK  8 active torsions:
REMARK  status: ('A' for Active; 'I' for Inactive)
REMARK    1  A    between atoms: C_2  and  C_3
REMARK    2  A    between atoms: C_6  and  C_7
REMARK    3  A    between atoms: N_9  and  C_10
REMARK    4  A    between atoms: C_10  and  C_11
REMARK    5  A    between atoms: C_11  and  C_12
REMARK    6  A    between atoms: C_14  and  C_15
REMARK    7  A    between atoms: C_22  and  O_23
REMARK    8  A    between atoms: O_23  and  C_24
REMARK                            x       y       z     vdW  Elec       q    Type
REMARK                         _______ _______ _______ _____ _____    ______ ____
ROOT
ATOM      1  C   UNL     1       0.838  10.528  20.236  0.00  0.00    +0.000 A 
ATOM      2  C   UNL     1       0.460  10.350  21.679  0.00  0.00    +0.000 A 
ATOM      3  O   UNL     1      -0.097  11.233  22.325  0.00  0.00    +0.000 OA
ATOM      4  C   UNL     1       0.767   9.058  22.325  0.00  0.00    +0.000 A 
ATOM      5  C   UNL     1       1.305   8.101  21.567  0.00  0.00    +0.000 A 
ATOM      6  N   UNL     1       1.612   8.233  20.225  0.00  0.00    +0.000 N 
ATOM      7  N   UNL     1       2.168   7.137  19.600  0.00  0.00    +0.000 NA
ATOM      8  C   UNL     1       2.525   7.301  18.369  0.00  0.00    +0.000 A 
ATOM      9  C   UNL     1       2.387   8.521  17.563  0.00  0.00    +0.000 A 
ATOM     10  C   UNL     1       1.836   9.565  18.192  0.00  0.00    +0.000 A 
ATOM     11  C   UNL     1       1.397   9.474  19.586  0.00  0.00    +0.000 A 
ENDROOT
BRANCH   1  17
ATOM     12  C   UNL     1      -0.580  12.175  18.970  0.00  0.00    +0.000 A 
ATOM     13  C   UNL     1      -0.777  13.476  18.493  0.00  0.00    +0.000 A 
ATOM     14  C   UNL     1       0.227  14.439  18.629  0.00  0.00    +0.000 A 
ATOM     15  C   UNL     1       1.450  14.113  19.227  0.00  0.00    +0.000 A 
ATOM     16  C   UNL     1       1.651  12.819  19.722  0.00  0.00    +0.000 A 
ATOM     17  C   UNL     1       0.633  11.854  19.614  0.00  0.00    +0.000 A 
BRANCH  15  18
ATOM     18  C   UNL     1       2.465  15.193  19.381  0.00  0.00    +0.000 C 
ATOM     19  O   UNL     1       2.097  16.361  19.456  0.00  0.00    +0.000 OA
ATOM     20  N   UNL     1       3.788  14.808  19.425  0.00  0.00    +0.000 N 
ATOM     21  H   UNL     1       4.045  13.843  19.275  0.00  0.00    +0.000 HD
BRANCH  20  22
ATOM     22  C   UNL     1       4.854  15.773  19.633  0.00  0.00    +0.000 C 
BRANCH  22  23
ATOM     23  C   UNL     1       6.226  15.201  19.278  0.00  0.00    +0.000 C 
ATOM     24  C   UNL     1       6.301  14.708  17.840  0.00  0.00    +0.000 C 
ENDBRANCH  22  23
ENDBRANCH  20  22
ENDBRANCH  15  18
BRANCH  12  26
ATOM     25  C   UNL     1      -2.584  11.289  17.820  0.00  0.00    +0.000 C 
ATOM     26  C   UNL     1      -1.641  11.181  18.763  0.00  0.00    +0.000 C 
ENDBRANCH  12  26
ENDBRANCH   1  17
BRANCH   8  27
ATOM     27  O   UNL     1       3.138   6.327  17.592  0.00  0.00    +0.000 OA
BRANCH  27  28
ATOM     28  C   UNL     1       3.151   4.988  18.034  0.00  0.00    +0.000 A 
ATOM     29  C   UNL     1       4.282   4.426  18.628  0.00  0.00    +0.000 A 
ATOM     30  C   UNL     1       4.280   3.074  18.967  0.00  0.00    +0.000 A 
ATOM     31  C   UNL     1       3.160   2.296  18.684  0.00  0.00    +0.000 A 
ATOM     32  F   UNL     1       3.174   0.993  18.995  0.00  0.00    +0.000 F 
ATOM     33  C   UNL     1       2.037   2.842  18.075  0.00  0.00    +0.000 A 
ATOM     34  C   UNL     1       2.039   4.194  17.748  0.00  0.00    +0.000 A 
ATOM     35  F   UNL     1       0.966   4.719  17.137  0.00  0.00    +0.000 F 
ENDBRANCH  27  28
ENDBRANCH   8  27
TORSDOF 7
ENDMDL
MODEL 7
REMARK VINA RESULT:      -8.1      4.189      9.862
REMARK  Name = 
REMARK  8 active torsions:
REMARK  status: ('A' for Active; 'I' for Inactive)
REMARK    1  A    between atoms: C_2  and  C_3
REMARK    2  A    between atoms: C_6  and  C_7
REMARK    3  A    between atoms: N_9  and  C_10
REMARK    4  A    between atoms: C_10  and  C_11
REMARK    5  A    between atoms: C_11  and  C_12
REMARK    6  A    between atoms: C_14  and  C_15
REMARK    7  A    between atoms: C_22  and  O_23
REMARK    8  A    between atoms: O_23  and  C_24
REMARK                            x       y       z     vdW  Elec       q    Type
REMARK                         _______ _______ _______ _____ _____    ______ ____
ROOT
ATOM      1  C   UNL     1       3.977   5.243  18.460  0.00  0.00    +0.000 A 
ATOM      2  C   UNL     1       3.509   4.084  19.293  0.00  0.00    +0.000 A 
ATOM      3  O   UNL     1       4.083   2.999  19.290  0.00  0.00    +0.000 OA
ATOM      4  C   UNL     1       2.318   4.276  20.146  0.00  0.00    +0.000 A 
ATOM      5  C   UNL     1       1.768   5.491  20.175  0.00  0.00    +0.000 A 
ATOM      6  N   UNL     1       2.218   6.581  19.453  0.00  0.00    +0.000 N 
ATOM      7  N   UNL     1       1.523   7.761  19.603  0.00  0.00    +0.000 NA
ATOM      8  C   UNL     1       1.903   8.748  18.861  0.00  0.00    +0.000 A 
ATOM      9  C   UNL     1       3.005   8.751  17.890  0.00  0.00    +0.000 A 
ATOM     10  C   UNL     1       3.668   7.595  17.772  0.00  0.00    +0.000 A 
ATOM     11  C   UNL     1       3.312   6.423  18.572  0.00  0.00    +0.000 A 
ENDROOT
BRANCH   1  17
ATOM     12  C   UNL     1       6.438   5.078  17.967  0.00  0.00    +0.000 A 
ATOM     13  C   UNL     1       7.467   4.758  17.074  0.00  0.00    +0.000 A 
ATOM     14  C   UNL     1       7.175   4.416  15.750  0.00  0.00    +0.000 A 
ATOM     15  C   UNL     1       5.852   4.408  15.293  0.00  0.00    +0.000 A 
ATOM     16  C   UNL     1       4.814   4.711  16.181  0.00  0.00    +0.000 A 
ATOM     17  C   UNL     1       5.100   5.027  17.523  0.00  0.00    +0.000 A 
BRANCH  15  18
ATOM     18  C   UNL     1       5.600   3.995  13.884  0.00  0.00    +0.000 C 
ATOM     19  O   UNL     1       4.462   4.058  13.431  0.00  0.00    +0.000 OA
ATOM     20  N   UNL     1       6.684   3.550  13.157  0.00  0.00    +0.000 N 
ATOM     21  H   UNL     1       7.585   3.437  13.599  0.00  0.00    +0.000 HD
BRANCH  20  22
ATOM     22  C   UNL     1       6.561   3.180  11.758  0.00  0.00    +0.000 C 
BRANCH  22  23
ATOM     23  C   UNL     1       5.614   1.998  11.555  0.00  0.00    +0.000 C 
ATOM     24  C   UNL     1       6.336   0.744  11.084  0.00  0.00    +0.000 C 
ENDBRANCH  22  23
ENDBRANCH  20  22
ENDBRANCH  15  18
BRANCH  12  26
ATOM     25  C   UNL     1       8.051   5.603  19.768  0.00  0.00    +0.000 C 
ATOM     26  C   UNL     1       6.791   5.478  19.335  0.00  0.00    +0.000 C 
ENDBRANCH  12  26
ENDBRANCH   1  17
BRANCH   8  27
ATOM     27  O   UNL     1       1.299   9.998  18.844  0.00  0.00    +0.000 OA
BRANCH  27  28
ATOM     28  C   UNL     1      -0.068  10.107  18.512  0.00  0.00    +0.000 A 
ATOM     29  C   UNL     1      -0.589   9.511  17.362  0.00  0.00    +0.000 A 
ATOM     30  C   UNL     1      -1.925   9.721  17.026  0.00  0.00    +0.000 A 
ATOM     31  C   UNL     1      -2.715  10.543  17.826  0.00  0.00    +0.000 A 
ATOM     32  F   UNL     1      -3.993  10.755  17.484  0.00  0.00    +0.000 F 
ATOM     33  C   UNL     1      -2.199  11.157  18.961  0.00  0.00    +0.000 A 
ATOM     34  C   UNL     1      -0.868  10.937  19.298  0.00  0.00    +0.000 A 
ATOM     35  F   UNL     1      -0.360  11.548  20.380  0.00  0.00    +0.000 F 
ENDBRANCH  27  28
ENDBRANCH   8  27
TORSDOF 7
ENDMDL
MODEL 8
REMARK VINA RESULT:      -8.0      1.365      1.899
REMARK  Name = 
REMARK  8 active torsions:
REMARK  status: ('A' for Active; 'I' for Inactive)
REMARK    1  A    between atoms: C_2  and  C_3
REMARK    2  A    between atoms: C_6  and  C_7
REMARK    3  A    between atoms: N_9  and  C_10
REMARK    4  A    between atoms: C_10  and  C_11
REMARK    5  A    between atoms: C_11  and  C_12
REMARK    6  A    between atoms: C_14  and  C_15
REMARK    7  A    between atoms: C_22  and  O_23
REMARK    8  A    between atoms: O_23  and  C_24
REMARK                            x       y       z     vdW  Elec       q    Type
REMARK                         _______ _______ _______ _____ _____    ______ ____
ROOT
ATOM      1  C   UNL     1       0.815  10.415  20.179  0.00  0.00    +0.000 A 
ATOM      2  C   UNL     1       0.485  10.282  21.638  0.00  0.00    +0.000 A 
ATOM      3  O   UNL     1      -0.104  11.161  22.261  0.00  0.00    +0.000 OA
ATOM      4  C   UNL     1       0.881   9.039  22.331  0.00  0.00    +0.000 A 
ATOM      5  C   UNL     1       1.452   8.080  21.600  0.00  0.00    +0.000 A 
ATOM      6  N   UNL     1       1.717   8.168  20.246  0.00  0.00    +0.000 N 
ATOM      7  N   UNL     1       2.318   7.078  19.654  0.00  0.00    +0.000 NA
ATOM      8  C   UNL     1       2.634   7.205  18.407  0.00  0.00    +0.000 A 
ATOM      9  C   UNL     1       2.406   8.378  17.553  0.00  0.00    +0.000 A 
ATOM     10  C   UNL     1       1.814   9.418  18.152  0.00  0.00    +0.000 A 
ATOM     11  C   UNL     1       1.416   9.366  19.559  0.00  0.00    +0.000 A 
ENDROOT
BRANCH   1  17
ATOM     12  C   UNL     1      -0.701  11.899  18.827  0.00  0.00    +0.000 A 
ATOM     13  C   UNL     1      -0.990  13.163  18.300  0.00  0.00    +0.000 A 
ATOM     14  C   UNL     1      -0.068  14.208  18.420  0.00  0.00    +0.000 A 
ATOM     15  C   UNL     1       1.163  14.001  19.053  0.00  0.00    +0.000 A 
ATOM     16  C   UNL     1       1.456  12.745  19.598  0.00  0.00    +0.000 A 
ATOM     17  C   UNL     1       0.520  11.698  19.505  0.00  0.00    +0.000 A 
BRANCH  15  18
ATOM     18  C   UNL     1       2.086  15.163  19.188  0.00  0.00    +0.000 C 
ATOM     19  O   UNL     1       3.191  15.121  18.655  0.00  0.00    +0.000 OA
ATOM     20  N   UNL     1       1.638  16.237  19.926  0.00  0.00    +0.000 N 
ATOM     21  H   UNL     1       0.756  16.190  20.414  0.00  0.00    +0.000 HD
BRANCH  20  22
ATOM     22  C   UNL     1       2.433  17.444  20.071  0.00  0.00    +0.000 C 
BRANCH  22  23
ATOM     23  C   UNL     1       3.202  17.473  21.391  0.00  0.00    +0.000 C 
ATOM     24  C   UNL     1       4.673  17.123  21.218  0.00  0.00    +0.000 C 
ENDBRANCH  22  23
ENDBRANCH  20  22
ENDBRANCH  15  18
BRANCH  12  26
ATOM     25  C   UNL     1      -2.114  10.419  17.437  0.00  0.00    +0.000 C 
ATOM     26  C   UNL     1      -1.675  10.817  18.636  0.00  0.00    +0.000 C 
ENDBRANCH  12  26
ENDBRANCH   1  17
BRANCH   8  27
ATOM     27  O   UNL     1       3.280   6.233  17.657  0.00  0.00    +0.000 OA
BRANCH  27  28
ATOM     28  C   UNL     1       3.233   4.885  18.071  0.00  0.00    +0.000 A 
ATOM     29  C   UNL     1       4.337   4.263  18.657  0.00  0.00    +0.000 A 
ATOM     30  C   UNL     1       4.274   2.906  18.967  0.00  0.00    +0.000 A 
ATOM     31  C   UNL     1       3.123   2.183  18.665  0.00  0.00    +0.000 A 
ATOM     32  F   UNL     1       3.079   0.875  18.949  0.00  0.00    +0.000 F 
ATOM     33  C   UNL     1       2.027   2.790  18.063  0.00  0.00    +0.000 A 
ATOM     34  C   UNL     1       2.090   4.146  17.764  0.00  0.00    +0.000 A 
ATOM     35  F   UNL     1       1.043   4.730  17.160  0.00  0.00    +0.000 F 
ENDBRANCH  27  28
ENDBRANCH   8  27
TORSDOF 7
ENDMDL
MODEL 9
REMARK VINA RESULT:      -8.0      4.297      9.952
REMARK  Name = 
REMARK  8 active torsions:
REMARK  status: ('A' for Active; 'I' for Inactive)
REMARK    1  A    between atoms: C_2  and  C_3
REMARK    2  A    between atoms: C_6  and  C_7
REMARK    3  A    between atoms: N_9  and  C_10
REMARK    4  A    between atoms: C_10  and  C_11
REMARK    5  A    between atoms: C_11  and  C_12
REMARK    6  A    between atoms: C_14  and  C_15
REMARK    7  A    between atoms: C_22  and  O_23
REMARK    8  A    between atoms: O_23  and  C_24
REMARK                            x       y       z     vdW  Elec       q    Type
REMARK                         _______ _______ _______ _____ _____    ______ ____
ROOT
ATOM      1  C   UNL     1       3.996   4.794  17.875  0.00  0.00    +0.000 A 
ATOM      2  C   UNL     1       3.431   3.500  18.386  0.00  0.00    +0.000 A 
ATOM      3  O   UNL     1       4.008   2.426  18.238  0.00  0.00    +0.000 OA
ATOM      4  C   UNL     1       2.137   3.538  19.098  0.00  0.00    +0.000 A 
ATOM      5  C   UNL     1       1.580   4.733  19.302  0.00  0.00    +0.000 A 
ATOM      6  N   UNL     1       2.113   5.937  18.882  0.00  0.00    +0.000 N 
ATOM      7  N   UNL     1       1.396   7.076  19.178  0.00  0.00    +0.000 NA
ATOM      8  C   UNL     1       1.864   8.186  18.708  0.00  0.00    +0.000 A 
ATOM      9  C   UNL     1       3.084   8.363  17.910  0.00  0.00    +0.000 A 
ATOM     10  C   UNL     1       3.765   7.242  17.646  0.00  0.00    +0.000 A 
ATOM     11  C   UNL     1       3.314   5.939  18.138  0.00  0.00    +0.000 A 
ENDROOT
BRANCH   1  17
ATOM     12  C   UNL     1       6.503   4.850  17.676  0.00  0.00    +0.000 A 
ATOM     13  C   UNL     1       7.652   4.691  16.892  0.00  0.00    +0.000 A 
ATOM     14  C   UNL     1       7.544   4.462  15.517  0.00  0.00    +0.000 A 
ATOM     15  C   UNL     1       6.288   4.407  14.901  0.00  0.00    +0.000 A 
ATOM     16  C   UNL     1       5.132   4.549  15.678  0.00  0.00    +0.000 A 
ATOM     17  C   UNL     1       5.234   4.750  17.068  0.00  0.00    +0.000 A 
BRANCH  15  18
ATOM     18  C   UNL     1       6.236   4.119  13.441  0.00  0.00    +0.000 C 
ATOM     19  O   UNL     1       7.093   4.592  12.701  0.00  0.00    +0.000 OA
ATOM     20  N   UNL     1       5.200   3.327  12.994  0.00  0.00    +0.000 N 
ATOM     21  H   UNL     1       4.472   3.031  13.629  0.00  0.00    +0.000 HD
BRANCH  20  22
ATOM     22  C   UNL     1       5.088   2.935  11.600  0.00  0.00    +0.000 C 
BRANCH  22  23
ATOM     23  C   UNL     1       5.707   1.564  11.335  0.00  0.00    +0.000 C 
ATOM     24  C   UNL     1       7.170   1.652  10.924  0.00  0.00    +0.000 C 
ENDBRANCH  22  23
ENDBRANCH  20  22
ENDBRANCH  15  18
BRANCH  12  26
ATOM     25  C   UNL     1       7.710   5.791  19.620  0.00  0.00    +0.000 C 
ATOM     26  C   UNL     1       6.662   5.136  19.108  0.00  0.00    +0.000 C 
ENDBRANCH  12  26
ENDBRANCH   1  17
BRANCH   8  27
ATOM     27  O   UNL     1       1.258   9.424  18.867  0.00  0.00    +0.000 OA
BRANCH  27  28
ATOM     28  C   UNL     1       0.724   9.784  20.122  0.00  0.00    +0.000 A 
ATOM     29  C   UNL     1       1.065   9.093  21.285  0.00  0.00    +0.000 A 
ATOM     30  C   UNL     1       0.444   9.425  22.488  0.00  0.00    +0.000 A 
ATOM     31  C   UNL     1      -0.526  10.424  22.509  0.00  0.00    +0.000 A 
ATOM     32  F   UNL     1      -1.131  10.723  23.666  0.00  0.00    +0.000 F 
ATOM     33  C   UNL     1      -0.887  11.104  21.352  0.00  0.00    +0.000 A 
ATOM     34  C   UNL     1      -0.258  10.776  20.156  0.00  0.00    +0.000 A 
ATOM     35  F   UNL     1      -0.621  11.414  19.032  0.00  0.00    +0.000 F 
ENDBRANCH  27  28
ENDBRANCH   8  27
TORSDOF 7
ENDMDL
