MODEL 1
REMARK VINA RESULT:      -8.6      0.000      0.000
REMARK  Name = 
REMARK  7 active torsions:
REMARK  status: ('A' for Active; 'I' for Inactive)
REMARK    1  A    between atoms: C_1  and  C_2
REMARK    2  A    between atoms: N_4  and  C_5
REMARK    3  A    between atoms: C_5  and  C_6
REMARK    4  A    between atoms: C_6  and  C_7
REMARK    5  A    between atoms: N_17  and  C_18
REMARK    6  A    between atoms: C_21  and  C_22
REMARK    7  A    between atoms: C_25  and  C_26
REMARK                            x       y       z     vdW  Elec       q    Type
REMARK                         _______ _______ _______ _____ _____    ______ ____
ROOT
ATOM      1  C   UNL     1       4.868   3.688  17.173  0.00  0.00    +0.000 A 
ATOM      2  N   UNL     1       3.915   2.807  17.212  0.00  0.00    +0.000 NA
ATOM      3  C   UNL     1       2.875   2.973  18.131  0.00  0.00    +0.000 A 
ATOM      4  C   UNL     1       1.794   2.090  18.098  0.00  0.00    +0.000 A 
ATOM      5  C   UNL     1       0.690   2.278  18.936  0.00  0.00    +0.000 A 
ATOM      6  C   UNL     1       0.664   3.353  19.824  0.00  0.00    +0.000 A 
ATOM      7  C   UNL     1       1.750   4.222  19.888  0.00  0.00    +0.000 A 
ATOM      8  C   UNL     1       2.850   4.021  19.045  0.00  0.00    +0.000 A 
ATOM      9  C   UNL     1       3.991   4.944  19.058  0.00  0.00    +0.000 A 
ATOM     10  O   UNL     1       4.021   5.816  19.929  0.00  0.00    +0.000 OA
ATOM     11  N   UNL     1       4.937   4.773  18.039  0.00  0.00    +0.000 N 
ENDROOT
BRANCH  11  12
ATOM     12  C   UNL     1       5.921   5.794  17.911  0.00  0.00    +0.000 A 
ATOM     13  C   UNL     1       7.142   5.683  18.589  0.00  0.00    +0.000 A 
ATOM     14  C   UNL     1       8.040   6.751  18.610  0.00  0.00    +0.000 A 
ATOM     15  C   UNL     1       7.717   7.955  17.976  0.00  0.00    +0.000 A 
ATOM     16  C   UNL     1       8.612   9.151  18.105  0.00  0.00    +0.000 C 
ATOM     17  C   UNL     1       6.523   8.047  17.251  0.00  0.00    +0.000 A 
ATOM     18  C   UNL     1       5.631   6.972  17.214  0.00  0.00    +0.000 A 
ENDBRANCH  11  12
BRANCH   1  19
ATOM     19  C   UNL     1       5.945   3.515  16.103  0.00  0.00    +0.000 C 
BRANCH  19  20
ATOM     20  C   UNL     1       5.517   4.096  14.752  0.00  0.00    +0.000 C 
BRANCH  20  24
ATOM     21  C   UNL     1       8.570   5.498  12.810  0.00  0.00    +0.000 C 
ATOM     22  C   UNL     1       7.586   5.206  13.919  0.00  0.00    +0.000 C 
ATOM     23  O   UNL     1       7.779   5.772  14.999  0.00  0.00    +0.000 OA
ATOM     24  N   UNL     1       6.505   4.341  13.677  0.00  0.00    +0.000 N 
ATOM     25  C   UNL     1       6.262   3.773  12.413  0.00  0.00    +0.000 C 
ATOM     26  C   UNL     1       5.052   2.877  12.216  0.00  0.00    +0.000 C 
ATOM     27  O   UNL     1       6.988   3.932  11.428  0.00  0.00    +0.000 OA
ENDBRANCH  20  24
ENDBRANCH  19  20
ENDBRANCH   1  19
TORSDOF 4
ENDMDL
MODEL 2
REMARK VINA RESULT:      -7.9      2.745      6.000
REMARK  Name = 
REMARK  7 active torsions:
REMARK  status: ('A' for Active; 'I' for Inactive)
REMARK    1  A    between atoms: C_1  and  C_2
REMARK    2  A    between atoms: N_4  and  C_5
REMARK    3  A    between atoms: C_5  and  C_6
REMARK    4  A    between atoms: C_6  and  C_7
REMARK    5  A    between atoms: N_17  and  C_18
REMARK    6  A    between atoms: C_21  and  C_22
REMARK    7  A    between atoms: C_25  and  C_26
REMARK                            x       y       z     vdW  Elec       q    Type
REMARK                         _______ _______ _______ _____ _____    ______ ____
ROOT
ATOM      1  C   UNL     1       4.262   5.383  18.799  0.00  0.00    +0.000 A 
ATOM      2  N   UNL     1       3.512   5.901  19.725  0.00  0.00    +0.000 NA
ATOM      3  C   UNL     1       2.799   7.071  19.445  0.00  0.00    +0.000 A 
ATOM      4  C   UNL     1       1.907   7.565  20.399  0.00  0.00    +0.000 A 
ATOM      5  C   UNL     1       1.106   8.676  20.121  0.00  0.00    +0.000 A 
ATOM      6  C   UNL     1       1.198   9.311  18.883  0.00  0.00    +0.000 A 
ATOM      7  C   UNL     1       2.107   8.846  17.935  0.00  0.00    +0.000 A 
ATOM      8  C   UNL     1       2.905   7.733  18.227  0.00  0.00    +0.000 A 
ATOM      9  C   UNL     1       3.841   7.193  17.234  0.00  0.00    +0.000 A 
ATOM     10  O   UNL     1       4.011   7.829  16.192  0.00  0.00    +0.000 OA
ATOM     11  N   UNL     1       4.435   5.963  17.548  0.00  0.00    +0.000 N 
ENDROOT
BRANCH  11  12
ATOM     12  C   UNL     1       5.165   5.328  16.503  0.00  0.00    +0.000 A 
ATOM     13  C   UNL     1       6.491   5.697  16.248  0.00  0.00    +0.000 A 
ATOM     14  C   UNL     1       7.158   5.209  15.123  0.00  0.00    +0.000 A 
ATOM     15  C   UNL     1       6.498   4.365  14.225  0.00  0.00    +0.000 A 
ATOM     16  C   UNL     1       7.158   3.943  12.946  0.00  0.00    +0.000 C 
ATOM     17  C   UNL     1       5.192   3.951  14.510  0.00  0.00    +0.000 A 
ATOM     18  C   UNL     1       4.529   4.425  15.645  0.00  0.00    +0.000 A 
ENDBRANCH  11  12
BRANCH   1  19
ATOM     19  C   UNL     1       4.962   4.063  19.116  0.00  0.00    +0.000 C 
BRANCH  19  20
ATOM     20  C   UNL     1       4.007   2.868  19.040  0.00  0.00    +0.000 C 
BRANCH  20  24
ATOM     21  C   UNL     1       1.377   2.441  21.859  0.00  0.00    +0.000 C 
ATOM     22  C   UNL     1       2.695   2.489  21.122  0.00  0.00    +0.000 C 
ATOM     23  O   UNL     1       3.702   2.164  21.759  0.00  0.00    +0.000 OA
ATOM     24  N   UNL     1       2.720   2.868  19.770  0.00  0.00    +0.000 N 
ATOM     25  C   UNL     1       1.549   3.155  19.045  0.00  0.00    +0.000 C 
ATOM     26  C   UNL     1       1.650   3.522  17.575  0.00  0.00    +0.000 C 
ATOM     27  O   UNL     1       0.414   3.152  19.528  0.00  0.00    +0.000 OA
ENDBRANCH  20  24
ENDBRANCH  19  20
ENDBRANCH   1  19
TORSDOF 4
ENDMDL
MODEL 3
REMARK VINA RESULT:      -7.7      3.052      4.530
REMARK  Name = 
REMARK  7 active torsions:
REMARK  status: ('A' for Active; 'I' for Inactive)
REMARK    1  A    between atoms: C_1  and  C_2
REMARK    2  A    between atoms: N_4  and  C_5
REMARK    3  A    between atoms: C_5  and  C_6
REMARK    4  A    between atoms: C_6  and  C_7
REMARK    5  A    between atoms: N_17  and  C_18
REMARK    6  A    between atoms: C_21  and  C_22
REMARK    7  A    between atoms: C_25  and  C_26
REMARK                            x       y       z     vdW  Elec       q    Type
REMARK                         _______ _______ _______ _____ _____    ______ ____
ROOT
ATOM      1  C   UNL     1       3.645   6.103  18.117  0.00  0.00    +0.000 A 
ATOM      2  N   UNL     1       4.053   4.894  17.879  0.00  0.00    +0.000 NA
ATOM      3  C   UNL     1       3.386   3.822  18.479  0.00  0.00    +0.000 A 
ATOM      4  C   UNL     1       3.751   2.518  18.136  0.00  0.00    +0.000 A 
ATOM      5  C   UNL     1       3.046   1.422  18.641  0.00  0.00    +0.000 A 
ATOM      6  C   UNL     1       1.969   1.622  19.504  0.00  0.00    +0.000 A 
ATOM      7  C   UNL     1       1.615   2.916  19.878  0.00  0.00    +0.000 A 
ATOM      8  C   UNL     1       2.331   4.005  19.367  0.00  0.00    +0.000 A 
ATOM      9  C   UNL     1       1.956   5.383  19.708  0.00  0.00    +0.000 A 
ATOM     10  O   UNL     1       1.089   5.552  20.566  0.00  0.00    +0.000 OA
ATOM     11  N   UNL     1       2.600   6.396  18.985  0.00  0.00    +0.000 N 
ENDROOT
BRANCH  11  12
ATOM     12  C   UNL     1       2.086   7.714  19.148  0.00  0.00    +0.000 A 
ATOM     13  C   UNL     1       1.769   8.191  20.426  0.00  0.00    +0.000 A 
ATOM     14  C   UNL     1       1.107   9.409  20.583  0.00  0.00    +0.000 A 
ATOM     15  C   UNL     1       0.730  10.156  19.462  0.00  0.00    +0.000 A 
ATOM     16  C   UNL     1      -0.099  11.396  19.611  0.00  0.00    +0.000 C 
ATOM     17  C   UNL     1       1.097   9.707  18.188  0.00  0.00    +0.000 A 
ATOM     18  C   UNL     1       1.776   8.495  18.030  0.00  0.00    +0.000 A 
ENDBRANCH  11  12
BRANCH   1  19
ATOM     19  C   UNL     1       4.349   7.242  17.382  0.00  0.00    +0.000 C 
BRANCH  19  20
ATOM     20  C   UNL     1       5.875   7.117  17.447  0.00  0.00    +0.000 C 
BRANCH  20  24
ATOM     21  C   UNL     1       6.941   4.420  14.870  0.00  0.00    +0.000 C 
ATOM     22  C   UNL     1       6.262   5.615  15.499  0.00  0.00    +0.000 C 
ATOM     23  O   UNL     1       5.433   6.212  14.807  0.00  0.00    +0.000 OA
ATOM     24  N   UNL     1       6.577   5.975  16.820  0.00  0.00    +0.000 N 
ATOM     25  C   UNL     1       7.467   5.229  17.614  0.00  0.00    +0.000 C 
ATOM     26  C   UNL     1       7.730   5.658  19.047  0.00  0.00    +0.000 C 
ATOM     27  O   UNL     1       8.084   4.236  17.221  0.00  0.00    +0.000 OA
ENDBRANCH  20  24
ENDBRANCH  19  20
ENDBRANCH   1  19
TORSDOF 4
ENDMDL
MODEL 4
REMARK VINA RESULT:      -7.3      2.850      6.449
REMARK  Name = 
REMARK  7 active torsions:
REMARK  status: ('A' for Active; 'I' for Inactive)
REMARK    1  A    between atoms: C_1  and  C_2
REMARK    2  A    between atoms: N_4  and  C_5
REMARK    3  A    between atoms: C_5  and  C_6
REMARK    4  A    between atoms: C_6  and  C_7
REMARK    5  A    between atoms: N_17  and  C_18
REMARK    6  A    between atoms: C_21  and  C_22
REMARK    7  A    between atoms: C_25  and  C_26
REMARK                            x       y       z     vdW  Elec       q    Type
REMARK                         _______ _______ _______ _____ _____    ______ ____
ROOT
ATOM      1  C   UNL     1       2.802   4.794  17.487  0.00  0.00    +0.000 A 
ATOM      2  N   UNL     1       3.542   4.007  16.766  0.00  0.00    +0.000 NA
ATOM      3  C   UNL     1       4.795   4.457  16.339  0.00  0.00    +0.000 A 
ATOM      4  C   UNL     1       5.638   3.574  15.662  0.00  0.00    +0.000 A 
ATOM      5  C   UNL     1       6.934   3.955  15.302  0.00  0.00    +0.000 A 
ATOM      6  C   UNL     1       7.396   5.233  15.612  0.00  0.00    +0.000 A 
ATOM      7  C   UNL     1       6.554   6.134  16.260  0.00  0.00    +0.000 A 
ATOM      8  C   UNL     1       5.257   5.739  16.613  0.00  0.00    +0.000 A 
ATOM      9  C   UNL     1       4.361   6.651  17.334  0.00  0.00    +0.000 A 
ATOM     10  O   UNL     1       4.725   7.816  17.494  0.00  0.00    +0.000 OA
ATOM     11  N   UNL     1       3.170   6.092  17.818  0.00  0.00    +0.000 N 
ENDROOT
BRANCH  11  12
ATOM     12  C   UNL     1       2.405   6.903  18.704  0.00  0.00    +0.000 A 
ATOM     13  C   UNL     1       1.875   8.122  18.260  0.00  0.00    +0.000 A 
ATOM     14  C   UNL     1       1.274   9.002  19.160  0.00  0.00    +0.000 A 
ATOM     15  C   UNL     1       1.218   8.688  20.522  0.00  0.00    +0.000 A 
ATOM     16  C   UNL     1       0.698   9.682  21.516  0.00  0.00    +0.000 C 
ATOM     17  C   UNL     1       1.696   7.446  20.957  0.00  0.00    +0.000 A 
ATOM     18  C   UNL     1       2.282   6.555  20.053  0.00  0.00    +0.000 A 
ENDBRANCH  11  12
BRANCH   1  19
ATOM     19  C   UNL     1       1.475   4.238  18.000  0.00  0.00    +0.000 C 
BRANCH  19  20
ATOM     20  C   UNL     1       1.607   2.799  18.509  0.00  0.00    +0.000 C 
BRANCH  20  24
ATOM     21  C   UNL     1       4.735   1.307  20.254  0.00  0.00    +0.000 C 
ATOM     22  C   UNL     1       3.744   1.715  19.188  0.00  0.00    +0.000 C 
ATOM     23  O   UNL     1       3.992   1.360  18.032  0.00  0.00    +0.000 OA
ATOM     24  N   UNL     1       2.598   2.444  19.550  0.00  0.00    +0.000 N 
ATOM     25  C   UNL     1       2.299   2.766  20.886  0.00  0.00    +0.000 C 
ATOM     26  C   UNL     1       1.022   3.523  21.205  0.00  0.00    +0.000 C 
ATOM     27  O   UNL     1       3.024   2.491  21.846  0.00  0.00    +0.000 OA
ENDBRANCH  20  24
ENDBRANCH  19  20
ENDBRANCH   1  19
TORSDOF 4
ENDMDL
MODEL 5
REMARK VINA RESULT:      -7.2      3.381      6.059
REMARK  Name = 
REMARK  7 active torsions:
REMARK  status: ('A' for Active; 'I' for Inactive)
REMARK    1  A    between atoms: C_1  and  C_2
REMARK    2  A    between atoms: N_4  and  C_5
REMARK    3  A    between atoms: C_5  and  C_6
REMARK    4  A    between atoms: C_6  and  C_7
REMARK    5  A    between atoms: N_17  and  C_18
REMARK    6  A    between atoms: C_21  and  C_22
REMARK    7  A    between atoms: C_25  and  C_26
REMARK                            x       y       z     vdW  Elec       q    Type
REMARK                         _______ _______ _______ _____ _____    ______ ____
ROOT
ATOM      1  C   UNL     1       2.973   6.547  19.811  0.00  0.00    +0.000 A 
ATOM      2  N   UNL     1       2.204   7.112  20.692  0.00  0.00    +0.000 NA
ATOM      3  C   UNL     1       1.412   8.198  20.304  0.00  0.00    +0.000 A 
ATOM      4  C   UNL     1       0.502   8.734  21.217  0.00  0.00    +0.000 A 
ATOM      5  C   UNL     1      -0.373   9.756  20.839  0.00  0.00    +0.000 A 
ATOM      6  C   UNL     1      -0.339  10.258  19.538  0.00  0.00    +0.000 A 
ATOM      7  C   UNL     1       0.585   9.752  18.627  0.00  0.00    +0.000 A 
ATOM      8  C   UNL     1       1.458   8.730  19.020  0.00  0.00    +0.000 A 
ATOM      9  C   UNL     1       2.414   8.147  18.071  0.00  0.00    +0.000 A 
ATOM     10  O   UNL     1       2.528   8.676  16.965  0.00  0.00    +0.000 OA
ATOM     11  N   UNL     1       3.091   6.998  18.503  0.00  0.00    +0.000 N 
ENDROOT
BRANCH  11  12
ATOM     12  C   UNL     1       3.847   6.301  17.517  0.00  0.00    +0.000 A 
ATOM     13  C   UNL     1       3.474   5.008  17.131  0.00  0.00    +0.000 A 
ATOM     14  C   UNL     1       4.300   4.252  16.298  0.00  0.00    +0.000 A 
ATOM     15  C   UNL     1       5.523   4.770  15.861  0.00  0.00    +0.000 A 
ATOM     16  C   UNL     1       6.479   3.919  15.079  0.00  0.00    +0.000 C 
ATOM     17  C   UNL     1       5.870   6.083  16.201  0.00  0.00    +0.000 A 
ATOM     18  C   UNL     1       5.035   6.848  17.021  0.00  0.00    +0.000 A 
ENDBRANCH  11  12
BRANCH   1  19
ATOM     19  C   UNL     1       3.762   5.316  20.253  0.00  0.00    +0.000 C 
BRANCH  19  20
ATOM     20  C   UNL     1       2.848   4.149  20.641  0.00  0.00    +0.000 C 
BRANCH  20  24
ATOM     21  C   UNL     1       3.807   1.021  18.557  0.00  0.00    +0.000 C 
ATOM     22  C   UNL     1       3.904   2.224  19.466  0.00  0.00    +0.000 C 
ATOM     23  O   UNL     1       5.030   2.529  19.870  0.00  0.00    +0.000 OA
ATOM     24  N   UNL     1       2.741   2.944  19.790  0.00  0.00    +0.000 N 
ATOM     25  C   UNL     1       1.482   2.623  19.252  0.00  0.00    +0.000 C 
ATOM     26  C   UNL     1       0.275   3.470  19.617  0.00  0.00    +0.000 C 
ATOM     27  O   UNL     1       1.269   1.668  18.500  0.00  0.00    +0.000 OA
ENDBRANCH  20  24
ENDBRANCH  19  20
ENDBRANCH   1  19
TORSDOF 4
ENDMDL
MODEL 6
REMARK VINA RESULT:      -7.2      2.933      6.505
REMARK  Name = 
REMARK  7 active torsions:
REMARK  status: ('A' for Active; 'I' for Inactive)
REMARK    1  A    between atoms: C_1  and  C_2
REMARK    2  A    between atoms: N_4  and  C_5
REMARK    3  A    between atoms: C_5  and  C_6
REMARK    4  A    between atoms: C_6  and  C_7
REMARK    5  A    between atoms: N_17  and  C_18
REMARK    6  A    between atoms: C_21  and  C_22
REMARK    7  A    between atoms: C_25  and  C_26
REMARK                            x       y       z     vdW  Elec       q    Type
REMARK                         _______ _______ _______ _____ _____    ______ ____
ROOT
ATOM      1  C   UNL     1       2.802   5.100  17.325  0.00  0.00    +0.000 A 
ATOM      2  N   UNL     1       3.578   4.277  16.686  0.00  0.00    +0.000 NA
ATOM      3  C   UNL     1       4.896   4.658  16.416  0.00  0.00    +0.000 A 
ATOM      4  C   UNL     1       5.763   3.733  15.831  0.00  0.00    +0.000 A 
ATOM      5  C   UNL     1       7.112   4.042  15.633  0.00  0.00    +0.000 A 
ATOM      6  C   UNL     1       7.604   5.290  16.013  0.00  0.00    +0.000 A 
ATOM      7  C   UNL     1       6.742   6.233  16.568  0.00  0.00    +0.000 A 
ATOM      8  C   UNL     1       5.393   5.910  16.760  0.00  0.00    +0.000 A 
ATOM      9  C   UNL     1       4.469   6.866  17.382  0.00  0.00    +0.000 A 
ATOM     10  O   UNL     1       4.876   8.008  17.599  0.00  0.00    +0.000 OA
ATOM     11  N   UNL     1       3.200   6.373  17.714  0.00  0.00    +0.000 N 
ENDROOT
BRANCH  11  12
ATOM     12  C   UNL     1       2.381   7.221  18.514  0.00  0.00    +0.000 A 
ATOM     13  C   UNL     1       1.779   8.352  17.950  0.00  0.00    +0.000 A 
ATOM     14  C   UNL     1       1.120   9.280  18.757  0.00  0.00    +0.000 A 
ATOM     15  C   UNL     1       1.077   9.102  20.143  0.00  0.00    +0.000 A 
ATOM     16  C   UNL     1       0.490  10.158  21.032  0.00  0.00    +0.000 C 
ATOM     17  C   UNL     1       1.629   7.943  20.701  0.00  0.00    +0.000 A 
ATOM     18  C   UNL     1       2.274   7.004  19.892  0.00  0.00    +0.000 A 
ENDBRANCH  11  12
BRANCH   1  19
ATOM     19  C   UNL     1       1.395   4.617  17.669  0.00  0.00    +0.000 C 
BRANCH  19  20
ATOM     20  C   UNL     1       1.395   3.203  18.258  0.00  0.00    +0.000 C 
BRANCH  20  24
ATOM     21  C   UNL     1       2.243   3.263  22.043  0.00  0.00    +0.000 C 
ATOM     22  C   UNL     1       1.552   3.517  20.723  0.00  0.00    +0.000 C 
ATOM     23  O   UNL     1       0.578   4.276  20.741  0.00  0.00    +0.000 OA
ATOM     24  N   UNL     1       2.046   2.913  19.555  0.00  0.00    +0.000 N 
ATOM     25  C   UNL     1       3.206   2.117  19.550  0.00  0.00    +0.000 C 
ATOM     26  C   UNL     1       3.703   1.527  18.241  0.00  0.00    +0.000 C 
ATOM     27  O   UNL     1       3.860   1.834  20.557  0.00  0.00    +0.000 OA
ENDBRANCH  20  24
ENDBRANCH  19  20
ENDBRANCH   1  19
TORSDOF 4
ENDMDL
MODEL 7
REMARK VINA RESULT:      -7.1      2.720      5.896
REMARK  Name = 
REMARK  7 active torsions:
REMARK  status: ('A' for Active; 'I' for Inactive)
REMARK    1  A    between atoms: C_1  and  C_2
REMARK    2  A    between atoms: N_4  and  C_5
REMARK    3  A    between atoms: C_5  and  C_6
REMARK    4  A    between atoms: C_6  and  C_7
REMARK    5  A    between atoms: N_17  and  C_18
REMARK    6  A    between atoms: C_21  and  C_22
REMARK    7  A    between atoms: C_25  and  C_26
REMARK                            x       y       z     vdW  Elec       q    Type
REMARK                         _______ _______ _______ _____ _____    ______ ____
ROOT
ATOM      1  C   UNL     1       4.374   5.180  18.656  0.00  0.00    +0.000 A 
ATOM      2  N   UNL     1       3.635   5.658  19.611  0.00  0.00    +0.000 NA
ATOM      3  C   UNL     1       2.923   6.841  19.391  0.00  0.00    +0.000 A 
ATOM      4  C   UNL     1       2.042   7.295  20.374  0.00  0.00    +0.000 A 
ATOM      5  C   UNL     1       1.242   8.421  20.153  0.00  0.00    +0.000 A 
ATOM      6  C   UNL     1       1.324   9.109  18.943  0.00  0.00    +0.000 A 
ATOM      7  C   UNL     1       2.223   8.684  17.967  0.00  0.00    +0.000 A 
ATOM      8  C   UNL     1       3.019   7.557  18.202  0.00  0.00    +0.000 A 
ATOM      9  C   UNL     1       3.944   7.059  17.177  0.00  0.00    +0.000 A 
ATOM     10  O   UNL     1       4.107   7.739  16.163  0.00  0.00    +0.000 OA
ATOM     11  N   UNL     1       4.537   5.814  17.431  0.00  0.00    +0.000 N 
ENDROOT
BRANCH  11  12
ATOM     12  C   UNL     1       5.255   5.224  16.352  0.00  0.00    +0.000 A 
ATOM     13  C   UNL     1       6.608   5.531  16.156  0.00  0.00    +0.000 A 
ATOM     14  C   UNL     1       7.273   5.097  15.009  0.00  0.00    +0.000 A 
ATOM     15  C   UNL     1       6.588   4.372  14.029  0.00  0.00    +0.000 A 
ATOM     16  C   UNL     1       7.255   4.017  12.734  0.00  0.00    +0.000 C 
ATOM     17  C   UNL     1       5.252   4.017  14.250  0.00  0.00    +0.000 A 
ATOM     18  C   UNL     1       4.589   4.436  15.407  0.00  0.00    +0.000 A 
ENDBRANCH  11  12
BRANCH   1  19
ATOM     19  C   UNL     1       5.073   3.845  18.907  0.00  0.00    +0.000 C 
BRANCH  19  20
ATOM     20  C   UNL     1       4.147   2.650  18.658  0.00  0.00    +0.000 C 
BRANCH  20  24
ATOM     21  C   UNL     1       0.288   3.030  18.756  0.00  0.00    +0.000 C 
ATOM     22  C   UNL     1       1.712   2.980  18.254  0.00  0.00    +0.000 C 
ATOM     23  O   UNL     1       1.894   3.259  17.065  0.00  0.00    +0.000 OA
ATOM     24  N   UNL     1       2.749   2.650  19.143  0.00  0.00    +0.000 N 
ATOM     25  C   UNL     1       2.524   2.416  20.512  0.00  0.00    +0.000 C 
ATOM     26  C   UNL     1       3.699   2.101  21.420  0.00  0.00    +0.000 C 
ATOM     27  O   UNL     1       1.411   2.426  21.045  0.00  0.00    +0.000 OA
ENDBRANCH  20  24
ENDBRANCH  19  20
ENDBRANCH   1  19
TORSDOF 4
ENDMDL
MODEL 8
REMARK VINA RESULT:      -7.1      3.068      5.418
REMARK  Name = 
REMARK  7 active torsions:
REMARK  status: ('A' for Active; 'I' for Inactive)
REMARK    1  A    between atoms: C_1  and  C_2
REMARK    2  A    between atoms: N_4  and  C_5
REMARK    3  A    between atoms: C_5  and  C_6
REMARK    4  A    between atoms: C_6  and  C_7
REMARK    5  A    between atoms: N_17  and  C_18
REMARK    6  A    between atoms: C_21  and  C_22
REMARK    7  A    between atoms: C_25  and  C_26
REMARK                            x       y       z     vdW  Elec       q    Type
REMARK                         _______ _______ _______ _____ _____    ______ ____
ROOT
ATOM      1  C   UNL     1       2.932   7.288  18.130  0.00  0.00    +0.000 A 
ATOM      2  N   UNL     1       2.560   8.517  18.324  0.00  0.00    +0.000 NA
ATOM      3  C   UNL     1       1.776   8.821  19.441  0.00  0.00    +0.000 A 
ATOM      4  C   UNL     1       1.471  10.156  19.712  0.00  0.00    +0.000 A 
ATOM      5  C   UNL     1       0.770  10.508  20.870  0.00  0.00    +0.000 A 
ATOM      6  C   UNL     1       0.360   9.521  21.765  0.00  0.00    +0.000 A 
ATOM      7  C   UNL     1       0.631   8.183  21.489  0.00  0.00    +0.000 A 
ATOM      8  C   UNL     1       1.332   7.844  20.325  0.00  0.00    +0.000 A 
ATOM      9  C   UNL     1       1.671   6.447  20.028  0.00  0.00    +0.000 A 
ATOM     10  O   UNL     1       1.200   5.569  20.752  0.00  0.00    +0.000 OA
ATOM     11  N   UNL     1       2.546   6.238  18.953  0.00  0.00    +0.000 N 
ENDROOT
BRANCH  11  12
ATOM     12  C   UNL     1       3.053   4.916  18.798  0.00  0.00    +0.000 A 
ATOM     13  C   UNL     1       2.466   4.042  17.875  0.00  0.00    +0.000 A 
ATOM     14  C   UNL     1       2.839   2.698  17.836  0.00  0.00    +0.000 A 
ATOM     15  C   UNL     1       3.787   2.204  18.738  0.00  0.00    +0.000 A 
ATOM     16  C   UNL     1       4.097   0.738  18.796  0.00  0.00    +0.000 C 
ATOM     17  C   UNL     1       4.416   3.089  19.622  0.00  0.00    +0.000 A 
ATOM     18  C   UNL     1       4.055   4.440  19.650  0.00  0.00    +0.000 A 
ENDBRANCH  11  12
BRANCH   1  19
ATOM     19  C   UNL     1       3.853   7.010  16.943  0.00  0.00    +0.000 C 
BRANCH  19  20
ATOM     20  C   UNL     1       5.326   6.940  17.357  0.00  0.00    +0.000 C 
BRANCH  20  24
ATOM     21  C   UNL     1       6.992   4.539  14.805  0.00  0.00    +0.000 C 
ATOM     22  C   UNL     1       6.090   5.592  15.407  0.00  0.00    +0.000 C 
ATOM     23  O   UNL     1       5.234   6.083  14.666  0.00  0.00    +0.000 OA
ATOM     24  N   UNL     1       6.243   5.944  16.759  0.00  0.00    +0.000 N 
ATOM     25  C   UNL     1       7.174   5.311  17.603  0.00  0.00    +0.000 C 
ATOM     26  C   UNL     1       7.257   5.718  19.063  0.00  0.00    +0.000 C 
ATOM     27  O   UNL     1       7.966   4.440  17.235  0.00  0.00    +0.000 OA
ENDBRANCH  20  24
ENDBRANCH  19  20
ENDBRANCH   1  19
TORSDOF 4
ENDMDL
MODEL 9
REMARK VINA RESULT:      -6.9      0.744      1.653
REMARK  Name = 
REMARK  7 active torsions:
REMARK  status: ('A' for Active; 'I' for Inactive)
REMARK    1  A    between atoms: C_1  and  C_2
REMARK    2  A    between atoms: N_4  and  C_5
REMARK    3  A    between atoms: C_5  and  C_6
REMARK    4  A    between atoms: C_6  and  C_7
REMARK    5  A    between atoms: N_17  and  C_18
REMARK    6  A    between atoms: C_21  and  C_22
REMARK    7  A    between atoms: C_25  and  C_26
REMARK                            x       y       z     vdW  Elec       q    Type
REMARK                         _______ _______ _______ _____ _____    ______ ____
ROOT
ATOM      1  C   UNL     1       4.803   3.703  17.158  0.00  0.00    +0.000 A 
ATOM      2  N   UNL     1       3.851   2.822  17.200  0.00  0.00    +0.000 NA
ATOM      3  C   UNL     1       2.835   2.965  18.150  0.00  0.00    +0.000 A 
ATOM      4  C   UNL     1       1.752   2.084  18.123  0.00  0.00    +0.000 A 
ATOM      5  C   UNL     1       0.672   2.251  18.994  0.00  0.00    +0.000 A 
ATOM      6  C   UNL     1       0.670   3.303  19.910  0.00  0.00    +0.000 A 
ATOM      7  C   UNL     1       1.760   4.169  19.968  0.00  0.00    +0.000 A 
ATOM      8  C   UNL     1       2.836   3.988  19.091  0.00  0.00    +0.000 A 
ATOM      9  C   UNL     1       3.978   4.910  19.098  0.00  0.00    +0.000 A 
ATOM     10  O   UNL     1       4.033   5.759  19.989  0.00  0.00    +0.000 OA
ATOM     11  N   UNL     1       4.897   4.765  18.050  0.00  0.00    +0.000 N 
ENDROOT
BRANCH  11  12
ATOM     12  C   UNL     1       5.879   5.788  17.922  0.00  0.00    +0.000 A 
ATOM     13  C   UNL     1       7.114   5.662  18.570  0.00  0.00    +0.000 A 
ATOM     14  C   UNL     1       8.013   6.729  18.595  0.00  0.00    +0.000 A 
ATOM     15  C   UNL     1       7.678   7.946  17.993  0.00  0.00    +0.000 A 
ATOM     16  C   UNL     1       8.576   9.139  18.129  0.00  0.00    +0.000 C 
ATOM     17  C   UNL     1       6.468   8.054  17.297  0.00  0.00    +0.000 A 
ATOM     18  C   UNL     1       5.574   6.980  17.256  0.00  0.00    +0.000 A 
ENDBRANCH  11  12
BRANCH   1  19
ATOM     19  C   UNL     1       5.851   3.556  16.056  0.00  0.00    +0.000 C 
BRANCH  19  20
ATOM     20  C   UNL     1       5.403   4.203  14.741  0.00  0.00    +0.000 C 
BRANCH  20  24
ATOM     21  C   UNL     1       6.926   3.411  11.262  0.00  0.00    +0.000 C 
ATOM     22  C   UNL     1       5.994   3.422  12.452  0.00  0.00    +0.000 C 
ATOM     23  O   UNL     1       5.006   2.684  12.392  0.00  0.00    +0.000 OA
ATOM     24  N   UNL     1       6.293   4.233  13.559  0.00  0.00    +0.000 N 
ATOM     25  C   UNL     1       7.468   5.003  13.636  0.00  0.00    +0.000 C 
ATOM     26  C   UNL     1       7.744   5.826  14.882  0.00  0.00    +0.000 C 
ATOM     27  O   UNL     1       8.308   5.081  12.735  0.00  0.00    +0.000 OA
ENDBRANCH  20  24
ENDBRANCH  19  20
ENDBRANCH   1  19
TORSDOF 4
ENDMDL
