MODEL 1
REMARK VINA RESULT:      -7.5      0.000      0.000
REMARK  Name = 
REMARK  13 active torsions:
REMARK  status: ('A' for Active; 'I' for Inactive)
REMARK    1  A    between atoms: C_1  and  C_2
REMARK    2  A    between atoms: C_4  and  C_5
REMARK    3  A    between atoms: N_7  and  C_8
REMARK    4  A    between atoms: C_8  and  C_9
REMARK    5  A    between atoms: C_8  and  C_10
REMARK    6  A    between atoms: C_10  and  C_11
REMARK    7  A    between atoms: C_10  and  N_12
REMARK    8  A    between atoms: C_13  and  O_15
REMARK    9  A    between atoms: O_15  and  C_16
REMARK   10  A    between atoms: C_16  and  C_17
REMARK   11  A    between atoms: C_16  and  C_18
REMARK   12  A    between atoms: C_16  and  C_19
REMARK   13  A    between atoms: C_20  and  C_21
REMARK                            x       y       z     vdW  Elec       q    Type
REMARK                         _______ _______ _______ _____ _____    ______ ____
ROOT
ATOM      1  C   UNL     1       5.868   6.269  17.303  0.00  0.00    +0.000 C 
ATOM      2  C   UNL     1       4.596   7.070  17.617  0.00  0.00    +0.000 C 
ENDROOT
BRANCH   1   5
ATOM      3  C   UNL     1       6.842   4.866  15.472  0.00  0.00    +0.000 C 
ATOM      4  O   UNL     1       7.858   4.593  16.098  0.00  0.00    +0.000 OA
ATOM      5  N   UNL     1       5.820   5.629  15.988  0.00  0.00    +0.000 N 
ATOM      6  H   UNL     1       5.015   5.784  15.389  0.00  0.00    +0.000 HD
BRANCH   3  10
ATOM      7  C   UNL     1       5.332   2.418  11.426  0.00  0.00    +0.000 C 
ATOM      8  C   UNL     1       5.944   3.335  12.408  0.00  0.00    +0.000 A 
ATOM      9  N   UNL     1       5.697   3.477  13.697  0.00  0.00    +0.000 NA
ATOM     10  C   UNL     1       6.642   4.406  14.107  0.00  0.00    +0.000 A 
ATOM     11  C   UNL     1       7.378   4.823  13.017  0.00  0.00    +0.000 A 
ATOM     12  C   UNL     1       8.476   5.785  12.806  0.00  0.00    +0.000 C 
ATOM     13  O   UNL     1       6.937   4.137  11.922  0.00  0.00    +0.000 OA
ENDBRANCH   3  10
ENDBRANCH   1   5
BRANCH   1  14
ATOM     14  C   UNL     1       6.274   5.308  18.477  0.00  0.00    +0.000 C 
ATOM     15  C   UNL     1       7.400   5.811  19.377  0.00  0.00    +0.000 C 
BRANCH  14  16
ATOM     16  N   UNL     1       5.126   4.919  19.298  0.00  0.00    +0.000 N 
ATOM     17  C   UNL     1       4.318   3.882  18.932  0.00  0.00    +0.000 C 
ATOM     18  O   UNL     1       4.479   3.238  17.906  0.00  0.00    +0.000 OA
ATOM     19  H   UNL     1       4.928   5.375  20.178  0.00  0.00    +0.000 HD
BRANCH  17  20
ATOM     20  O   UNL     1       3.330   3.694  19.842  0.00  0.00    +0.000 OA
BRANCH  20  21
ATOM     21  C   UNL     1       2.009   4.229  19.548  0.00  0.00    +0.000 C 
ATOM     22  C   UNL     1       0.893   3.257  19.957  0.00  0.00    +0.000 C 
ATOM     23  C   UNL     1       1.859   5.503  20.398  0.00  0.00    +0.000 C 
ATOM     24  C   UNL     1       1.910   4.636  18.071  0.00  0.00    +0.000 C 
ENDBRANCH  20  21
ENDBRANCH  17  20
ENDBRANCH  14  16
ENDBRANCH   1  14
TORSDOF 6
ENDMDL
MODEL 2
REMARK VINA RESULT:      -7.1      0.921      1.511
REMARK  Name = 
REMARK  13 active torsions:
REMARK  status: ('A' for Active; 'I' for Inactive)
REMARK    1  A    between atoms: C_1  and  C_2
REMARK    2  A    between atoms: C_4  and  C_5
REMARK    3  A    between atoms: N_7  and  C_8
REMARK    4  A    between atoms: C_8  and  C_9
REMARK    5  A    between atoms: C_8  and  C_10
REMARK    6  A    between atoms: C_10  and  C_11
REMARK    7  A    between atoms: C_10  and  N_12
REMARK    8  A    between atoms: C_13  and  O_15
REMARK    9  A    between atoms: O_15  and  C_16
REMARK   10  A    between atoms: C_16  and  C_17
REMARK   11  A    between atoms: C_16  and  C_18
REMARK   12  A    between atoms: C_16  and  C_19
REMARK   13  A    between atoms: C_20  and  C_21
REMARK                            x       y       z     vdW  Elec       q    Type
REMARK                         _______ _______ _______ _____ _____    ______ ____
ROOT
ATOM      1  C   UNL     1       6.266   6.365  17.437  0.00  0.00    +0.000 C 
ATOM      2  C   UNL     1       7.198   7.585  17.433  0.00  0.00    +0.000 C 
ENDROOT
BRANCH   1   5
ATOM      3  C   UNL     1       6.986   4.817  15.605  0.00  0.00    +0.000 C 
ATOM      4  O   UNL     1       7.914   4.344  16.247  0.00  0.00    +0.000 OA
ATOM      5  N   UNL     1       6.122   5.761  16.112  0.00  0.00    +0.000 N 
ATOM      6  H   UNL     1       5.376   6.078  15.500  0.00  0.00    +0.000 HD
BRANCH   3  10
ATOM      7  C   UNL     1       5.291   2.573  11.514  0.00  0.00    +0.000 C 
ATOM      8  C   UNL     1       5.953   3.437  12.512  0.00  0.00    +0.000 A 
ATOM      9  N   UNL     1       5.754   3.526  13.814  0.00  0.00    +0.000 NA
ATOM     10  C   UNL     1       6.729   4.421  14.230  0.00  0.00    +0.000 A 
ATOM     11  C   UNL     1       7.434   4.874  13.132  0.00  0.00    +0.000 A 
ATOM     12  C   UNL     1       8.540   5.826  12.924  0.00  0.00    +0.000 C 
ATOM     13  O   UNL     1       6.943   4.243  12.026  0.00  0.00    +0.000 OA
ENDBRANCH   3  10
ENDBRANCH   1   5
BRANCH   1  14
ATOM     14  C   UNL     1       4.906   6.655  18.167  0.00  0.00    +0.000 C 
ATOM     15  C   UNL     1       3.720   6.952  17.251  0.00  0.00    +0.000 C 
BRANCH  14  16
ATOM     16  N   UNL     1       4.543   5.595  19.110  0.00  0.00    +0.000 N 
ATOM     17  C   UNL     1       4.113   4.378  18.668  0.00  0.00    +0.000 C 
ATOM     18  O   UNL     1       3.982   4.103  17.485  0.00  0.00    +0.000 OA
ATOM     19  H   UNL     1       4.645   5.719  20.107  0.00  0.00    +0.000 HD
BRANCH  17  20
ATOM     20  O   UNL     1       3.846   3.552  19.711  0.00  0.00    +0.000 OA
BRANCH  20  21
ATOM     21  C   UNL     1       2.454   3.257  20.019  0.00  0.00    +0.000 C 
ATOM     22  C   UNL     1       1.902   2.122  19.145  0.00  0.00    +0.000 C 
ATOM     23  C   UNL     1       2.426   2.782  21.482  0.00  0.00    +0.000 C 
ATOM     24  C   UNL     1       1.601   4.531  19.923  0.00  0.00    +0.000 C 
ENDBRANCH  20  21
ENDBRANCH  17  20
ENDBRANCH  14  16
ENDBRANCH   1  14
TORSDOF 6
ENDMDL
MODEL 3
REMARK VINA RESULT:      -7.1      1.087      1.810
REMARK  Name = 
REMARK  13 active torsions:
REMARK  status: ('A' for Active; 'I' for Inactive)
REMARK    1  A    between atoms: C_1  and  C_2
REMARK    2  A    between atoms: C_4  and  C_5
REMARK    3  A    between atoms: N_7  and  C_8
REMARK    4  A    between atoms: C_8  and  C_9
REMARK    5  A    between atoms: C_8  and  C_10
REMARK    6  A    between atoms: C_10  and  C_11
REMARK    7  A    between atoms: C_10  and  N_12
REMARK    8  A    between atoms: C_13  and  O_15
REMARK    9  A    between atoms: O_15  and  C_16
REMARK   10  A    between atoms: C_16  and  C_17
REMARK   11  A    between atoms: C_16  and  C_18
REMARK   12  A    between atoms: C_16  and  C_19
REMARK   13  A    between atoms: C_20  and  C_21
REMARK                            x       y       z     vdW  Elec       q    Type
REMARK                         _______ _______ _______ _____ _____    ______ ____
ROOT
ATOM      1  C   UNL     1       6.190   6.383  17.354  0.00  0.00    +0.000 C 
ATOM      2  C   UNL     1       6.987   7.695  17.327  0.00  0.00    +0.000 C 
ENDROOT
BRANCH   1   5
ATOM      3  C   UNL     1       6.995   4.853  15.543  0.00  0.00    +0.000 C 
ATOM      4  O   UNL     1       7.939   4.428  16.196  0.00  0.00    +0.000 OA
ATOM      5  N   UNL     1       6.085   5.761  16.033  0.00  0.00    +0.000 N 
ATOM      6  H   UNL     1       5.331   6.038  15.413  0.00  0.00    +0.000 HD
BRANCH   3  10
ATOM      7  C   UNL     1       5.405   2.522  11.457  0.00  0.00    +0.000 C 
ATOM      8  C   UNL     1       6.037   3.411  12.453  0.00  0.00    +0.000 A 
ATOM      9  N   UNL     1       5.814   3.516  13.751  0.00  0.00    +0.000 NA
ATOM     10  C   UNL     1       6.768   4.433  14.169  0.00  0.00    +0.000 A 
ATOM     11  C   UNL     1       7.484   4.881  13.077  0.00  0.00    +0.000 A 
ATOM     12  C   UNL     1       8.578   5.847  12.873  0.00  0.00    +0.000 C 
ATOM     13  O   UNL     1       7.021   4.226  11.972  0.00  0.00    +0.000 OA
ENDBRANCH   3  10
ENDBRANCH   1   5
BRANCH   1  14
ATOM     14  C   UNL     1       4.822   6.532  18.110  0.00  0.00    +0.000 C 
ATOM     15  C   UNL     1       3.767   7.376  17.398  0.00  0.00    +0.000 C 
BRANCH  14  16
ATOM     16  N   UNL     1       4.247   5.236  18.478  0.00  0.00    +0.000 N 
ATOM     17  C   UNL     1       3.281   5.142  19.437  0.00  0.00    +0.000 C 
ATOM     18  O   UNL     1       2.857   6.105  20.057  0.00  0.00    +0.000 OA
ATOM     19  H   UNL     1       4.515   4.386  18.001  0.00  0.00    +0.000 HD
BRANCH  17  20
ATOM     20  O   UNL     1       2.889   3.854  19.605  0.00  0.00    +0.000 OA
BRANCH  20  21
ATOM     21  C   UNL     1       2.025   3.259  18.597  0.00  0.00    +0.000 C 
ATOM     22  C   UNL     1       2.739   2.148  17.812  0.00  0.00    +0.000 C 
ATOM     23  C   UNL     1       0.851   2.618  19.357  0.00  0.00    +0.000 C 
ATOM     24  C   UNL     1       1.450   4.343  17.673  0.00  0.00    +0.000 C 
ENDBRANCH  20  21
ENDBRANCH  17  20
ENDBRANCH  14  16
ENDBRANCH   1  14
TORSDOF 6
ENDMDL
MODEL 4
REMARK VINA RESULT:      -7.1      1.024      1.370
REMARK  Name = 
REMARK  13 active torsions:
REMARK  status: ('A' for Active; 'I' for Inactive)
REMARK    1  A    between atoms: C_1  and  C_2
REMARK    2  A    between atoms: C_4  and  C_5
REMARK    3  A    between atoms: N_7  and  C_8
REMARK    4  A    between atoms: C_8  and  C_9
REMARK    5  A    between atoms: C_8  and  C_10
REMARK    6  A    between atoms: C_10  and  C_11
REMARK    7  A    between atoms: C_10  and  N_12
REMARK    8  A    between atoms: C_13  and  O_15
REMARK    9  A    between atoms: O_15  and  C_16
REMARK   10  A    between atoms: C_16  and  C_17
REMARK   11  A    between atoms: C_16  and  C_18
REMARK   12  A    between atoms: C_16  and  C_19
REMARK   13  A    between atoms: C_20  and  C_21
REMARK                            x       y       z     vdW  Elec       q    Type
REMARK                         _______ _______ _______ _____ _____    ______ ____
ROOT
ATOM      1  C   UNL     1       6.115   6.463  17.191  0.00  0.00    +0.000 C 
ATOM      2  C   UNL     1       4.917   7.378  17.480  0.00  0.00    +0.000 C 
ENDROOT
BRANCH   1   5
ATOM      3  C   UNL     1       6.938   4.891  15.425  0.00  0.00    +0.000 C 
ATOM      4  O   UNL     1       7.888   4.498  16.089  0.00  0.00    +0.000 OA
ATOM      5  N   UNL     1       6.017   5.801  15.890  0.00  0.00    +0.000 N 
ATOM      6  H   UNL     1       5.259   6.050  15.262  0.00  0.00    +0.000 HD
BRANCH   3  10
ATOM      7  C   UNL     1       5.374   2.423  11.412  0.00  0.00    +0.000 C 
ATOM      8  C   UNL     1       5.995   3.347  12.380  0.00  0.00    +0.000 A 
ATOM      9  N   UNL     1       5.772   3.489  13.674  0.00  0.00    +0.000 NA
ATOM     10  C   UNL     1       6.716   4.427  14.064  0.00  0.00    +0.000 A 
ATOM     11  C   UNL     1       7.427   4.850  12.959  0.00  0.00    +0.000 A 
ATOM     12  C   UNL     1       8.510   5.822  12.726  0.00  0.00    +0.000 C 
ATOM     13  O   UNL     1       6.971   4.158  11.875  0.00  0.00    +0.000 OA
ENDBRANCH   3  10
ENDBRANCH   1   5
BRANCH   1  14
ATOM     14  C   UNL     1       6.430   5.496  18.388  0.00  0.00    +0.000 C 
ATOM     15  C   UNL     1       7.568   5.937  19.306  0.00  0.00    +0.000 C 
BRANCH  14  16
ATOM     16  N   UNL     1       5.241   5.197  19.189  0.00  0.00    +0.000 N 
ATOM     17  C   UNL     1       4.327   4.274  18.773  0.00  0.00    +0.000 C 
ATOM     18  O   UNL     1       4.423   3.665  17.718  0.00  0.00    +0.000 OA
ATOM     19  H   UNL     1       5.090   5.630  20.089  0.00  0.00    +0.000 HD
BRANCH  17  20
ATOM     20  O   UNL     1       3.319   4.153  19.672  0.00  0.00    +0.000 OA
BRANCH  20  21
ATOM     21  C   UNL     1       2.990   2.823  20.165  0.00  0.00    +0.000 C 
ATOM     22  C   UNL     1       2.160   2.024  19.149  0.00  0.00    +0.000 C 
ATOM     23  C   UNL     1       4.328   2.090  20.361  0.00  0.00    +0.000 C 
ATOM     24  C   UNL     1       2.299   2.913  21.534  0.00  0.00    +0.000 C 
ENDBRANCH  20  21
ENDBRANCH  17  20
ENDBRANCH  14  16
ENDBRANCH   1  14
TORSDOF 6
ENDMDL
MODEL 5
REMARK VINA RESULT:      -7.0      1.025      1.788
REMARK  Name = 
REMARK  13 active torsions:
REMARK  status: ('A' for Active; 'I' for Inactive)
REMARK    1  A    between atoms: C_1  and  C_2
REMARK    2  A    between atoms: C_4  and  C_5
REMARK    3  A    between atoms: N_7  and  C_8
REMARK    4  A    between atoms: C_8  and  C_9
REMARK    5  A    between atoms: C_8  and  C_10
REMARK    6  A    between atoms: C_10  and  C_11
REMARK    7  A    between atoms: C_10  and  N_12
REMARK    8  A    between atoms: C_13  and  O_15
REMARK    9  A    between atoms: O_15  and  C_16
REMARK   10  A    between atoms: C_16  and  C_17
REMARK   11  A    between atoms: C_16  and  C_18
REMARK   12  A    between atoms: C_16  and  C_19
REMARK   13  A    between atoms: C_20  and  C_21
REMARK                            x       y       z     vdW  Elec       q    Type
REMARK                         _______ _______ _______ _____ _____    ______ ____
ROOT
ATOM      1  C   UNL     1       6.094   6.376  17.259  0.00  0.00    +0.000 C 
ATOM      2  C   UNL     1       6.894   7.686  17.231  0.00  0.00    +0.000 C 
ENDROOT
BRANCH   1   5
ATOM      3  C   UNL     1       6.936   4.833  15.475  0.00  0.00    +0.000 C 
ATOM      4  O   UNL     1       7.875   4.425  16.145  0.00  0.00    +0.000 OA
ATOM      5  N   UNL     1       6.012   5.737  15.944  0.00  0.00    +0.000 N 
ATOM      6  H   UNL     1       5.263   6.001  15.311  0.00  0.00    +0.000 HD
BRANCH   3  10
ATOM      7  C   UNL     1       5.430   2.435  11.397  0.00  0.00    +0.000 C 
ATOM      8  C   UNL     1       6.035   3.344  12.391  0.00  0.00    +0.000 A 
ATOM      9  N   UNL     1       5.798   3.458  13.685  0.00  0.00    +0.000 NA
ATOM     10  C   UNL     1       6.731   4.396  14.103  0.00  0.00    +0.000 A 
ATOM     11  C   UNL     1       7.449   4.846  13.014  0.00  0.00    +0.000 A 
ATOM     12  C   UNL     1       8.528   5.831  12.811  0.00  0.00    +0.000 C 
ATOM     13  O   UNL     1       7.010   4.173  11.911  0.00  0.00    +0.000 OA
ENDBRANCH   3  10
ENDBRANCH   1   5
BRANCH   1  14
ATOM     14  C   UNL     1       4.713   6.535  17.989  0.00  0.00    +0.000 C 
ATOM     15  C   UNL     1       3.811   7.643  17.451  0.00  0.00    +0.000 C 
BRANCH  14  16
ATOM     16  N   UNL     1       3.965   5.277  18.043  0.00  0.00    +0.000 N 
ATOM     17  C   UNL     1       4.347   4.267  18.877  0.00  0.00    +0.000 C 
ATOM     18  O   UNL     1       5.328   4.332  19.602  0.00  0.00    +0.000 OA
ATOM     19  H   UNL     1       3.123   5.140  17.500  0.00  0.00    +0.000 HD
BRANCH  17  20
ATOM     20  O   UNL     1       3.506   3.207  18.769  0.00  0.00    +0.000 OA
BRANCH  20  21
ATOM     21  C   UNL     1       2.375   3.128  19.681  0.00  0.00    +0.000 C 
ATOM     22  C   UNL     1       1.638   4.471  19.797  0.00  0.00    +0.000 C 
ATOM     23  C   UNL     1       1.398   2.107  19.072  0.00  0.00    +0.000 C 
ATOM     24  C   UNL     1       2.822   2.592  21.049  0.00  0.00    +0.000 C 
ENDBRANCH  20  21
ENDBRANCH  17  20
ENDBRANCH  14  16
ENDBRANCH   1  14
TORSDOF 6
ENDMDL
MODEL 6
REMARK VINA RESULT:      -7.0      0.791      1.261
REMARK  Name = 
REMARK  13 active torsions:
REMARK  status: ('A' for Active; 'I' for Inactive)
REMARK    1  A    between atoms: C_1  and  C_2
REMARK    2  A    between atoms: C_4  and  C_5
REMARK    3  A    between atoms: N_7  and  C_8
REMARK    4  A    between atoms: C_8  and  C_9
REMARK    5  A    between atoms: C_8  and  C_10
REMARK    6  A    between atoms: C_10  and  C_11
REMARK    7  A    between atoms: C_10  and  N_12
REMARK    8  A    between atoms: C_13  and  O_15
REMARK    9  A    between atoms: O_15  and  C_16
REMARK   10  A    between atoms: C_16  and  C_17
REMARK   11  A    between atoms: C_16  and  C_18
REMARK   12  A    between atoms: C_16  and  C_19
REMARK   13  A    between atoms: C_20  and  C_21
REMARK                            x       y       z     vdW  Elec       q    Type
REMARK                         _______ _______ _______ _____ _____    ______ ____
ROOT
ATOM      1  C   UNL     1       5.318   5.801  17.302  0.00  0.00    +0.000 C 
ATOM      2  C   UNL     1       3.879   6.294  17.513  0.00  0.00    +0.000 C 
ENDROOT
BRANCH   1   5
ATOM      3  C   UNL     1       6.659   5.224  15.267  0.00  0.00    +0.000 C 
ATOM      4  O   UNL     1       7.666   5.799  15.657  0.00  0.00    +0.000 OA
ATOM      5  N   UNL     1       5.503   5.140  16.009  0.00  0.00    +0.000 N 
ATOM      6  H   UNL     1       4.729   4.627  15.598  0.00  0.00    +0.000 HD
BRANCH   3  10
ATOM      7  C   UNL     1       5.638   2.193  11.470  0.00  0.00    +0.000 C 
ATOM      8  C   UNL     1       6.113   3.264  12.369  0.00  0.00    +0.000 A 
ATOM      9  N   UNL     1       5.747   3.552  13.604  0.00  0.00    +0.000 NA
ATOM     10  C   UNL     1       6.602   4.583  13.963  0.00  0.00    +0.000 A 
ATOM     11  C   UNL     1       7.409   4.905  12.889  0.00  0.00    +0.000 A 
ATOM     12  C   UNL     1       8.469   5.899  12.642  0.00  0.00    +0.000 C 
ATOM     13  O   UNL     1       7.102   4.059  11.863  0.00  0.00    +0.000 OA
ENDBRANCH   3  10
ENDBRANCH   1   5
BRANCH   1  14
ATOM     14  C   UNL     1       5.855   4.981  18.529  0.00  0.00    +0.000 C 
ATOM     15  C   UNL     1       7.077   5.572  19.228  0.00  0.00    +0.000 C 
BRANCH  14  16
ATOM     16  N   UNL     1       4.808   4.710  19.517  0.00  0.00    +0.000 N 
ATOM     17  C   UNL     1       4.361   3.440  19.737  0.00  0.00    +0.000 C 
ATOM     18  O   UNL     1       4.775   2.469  19.123  0.00  0.00    +0.000 OA
ATOM     19  H   UNL     1       4.423   5.446  20.093  0.00  0.00    +0.000 HD
BRANCH  17  20
ATOM     20  O   UNL     1       3.403   3.424  20.698  0.00  0.00    +0.000 OA
BRANCH  20  21
ATOM     21  C   UNL     1       2.029   3.702  20.308  0.00  0.00    +0.000 C 
ATOM     22  C   UNL     1       1.706   5.203  20.372  0.00  0.00    +0.000 C 
ATOM     23  C   UNL     1       1.896   3.255  18.842  0.00  0.00    +0.000 C 
ATOM     24  C   UNL     1       1.052   2.863  21.145  0.00  0.00    +0.000 C 
ENDBRANCH  20  21
ENDBRANCH  17  20
ENDBRANCH  14  16
ENDBRANCH   1  14
TORSDOF 6
ENDMDL
MODEL 7
REMARK VINA RESULT:      -6.9      1.272      1.973
REMARK  Name = 
REMARK  13 active torsions:
REMARK  status: ('A' for Active; 'I' for Inactive)
REMARK    1  A    between atoms: C_1  and  C_2
REMARK    2  A    between atoms: C_4  and  C_5
REMARK    3  A    between atoms: N_7  and  C_8
REMARK    4  A    between atoms: C_8  and  C_9
REMARK    5  A    between atoms: C_8  and  C_10
REMARK    6  A    between atoms: C_10  and  C_11
REMARK    7  A    between atoms: C_10  and  N_12
REMARK    8  A    between atoms: C_13  and  O_15
REMARK    9  A    between atoms: O_15  and  C_16
REMARK   10  A    between atoms: C_16  and  C_17
REMARK   11  A    between atoms: C_16  and  C_18
REMARK   12  A    between atoms: C_16  and  C_19
REMARK   13  A    between atoms: C_20  and  C_21
REMARK                            x       y       z     vdW  Elec       q    Type
REMARK                         _______ _______ _______ _____ _____    ______ ____
ROOT
ATOM      1  C   UNL     1       5.827   6.205  17.367  0.00  0.00    +0.000 C 
ATOM      2  C   UNL     1       6.845   7.351  17.455  0.00  0.00    +0.000 C 
ENDROOT
BRANCH   1   5
ATOM      3  C   UNL     1       6.826   4.829  15.529  0.00  0.00    +0.000 C 
ATOM      4  O   UNL     1       7.837   4.554  16.161  0.00  0.00    +0.000 OA
ATOM      5  N   UNL     1       5.795   5.581  16.043  0.00  0.00    +0.000 N 
ATOM      6  H   UNL     1       4.995   5.740  15.439  0.00  0.00    +0.000 HD
BRANCH   3  10
ATOM      7  C   UNL     1       5.368   2.425  11.437  0.00  0.00    +0.000 C 
ATOM      8  C   UNL     1       5.966   3.333  12.436  0.00  0.00    +0.000 A 
ATOM      9  N   UNL     1       5.705   3.457  13.725  0.00  0.00    +0.000 NA
ATOM     10  C   UNL     1       6.641   4.386  14.156  0.00  0.00    +0.000 A 
ATOM     11  C   UNL     1       7.386   4.821  13.078  0.00  0.00    +0.000 A 
ATOM     12  C   UNL     1       8.480   5.791  12.890  0.00  0.00    +0.000 C 
ATOM     13  O   UNL     1       6.959   4.146  11.971  0.00  0.00    +0.000 OA
ENDBRANCH   3  10
ENDBRANCH   1   5
BRANCH   1  14
ATOM     14  C   UNL     1       4.416   6.615  17.923  0.00  0.00    +0.000 C 
ATOM     15  C   UNL     1       3.758   7.804  17.227  0.00  0.00    +0.000 C 
BRANCH  14  16
ATOM     16  N   UNL     1       3.482   5.487  17.956  0.00  0.00    +0.000 N 
ATOM     17  C   UNL     1       2.596   5.338  18.982  0.00  0.00    +0.000 C 
ATOM     18  O   UNL     1       2.537   6.104  19.933  0.00  0.00    +0.000 OA
ATOM     19  H   UNL     1       3.438   4.818  17.201  0.00  0.00    +0.000 HD
BRANCH  17  20
ATOM     20  O   UNL     1       1.826   4.236  18.800  0.00  0.00    +0.000 OA
BRANCH  20  21
ATOM     21  C   UNL     1       2.108   3.057  19.605  0.00  0.00    +0.000 C 
ATOM     22  C   UNL     1       3.580   2.999  20.042  0.00  0.00    +0.000 C 
ATOM     23  C   UNL     1       1.245   3.180  20.872  0.00  0.00    +0.000 C 
ATOM     24  C   UNL     1       1.674   1.783  18.864  0.00  0.00    +0.000 C 
ENDBRANCH  20  21
ENDBRANCH  17  20
ENDBRANCH  14  16
ENDBRANCH   1  14
TORSDOF 6
ENDMDL
MODEL 8
REMARK VINA RESULT:      -6.9      1.002      1.544
REMARK  Name = 
REMARK  13 active torsions:
REMARK  status: ('A' for Active; 'I' for Inactive)
REMARK    1  A    between atoms: C_1  and  C_2
REMARK    2  A    between atoms: C_4  and  C_5
REMARK    3  A    between atoms: N_7  and  C_8
REMARK    4  A    between atoms: C_8  and  C_9
REMARK    5  A    between atoms: C_8  and  C_10
REMARK    6  A    between atoms: C_10  and  C_11
REMARK    7  A    between atoms: C_10  and  N_12
REMARK    8  A    between atoms: C_13  and  O_15
REMARK    9  A    between atoms: O_15  and  C_16
REMARK   10  A    between atoms: C_16  and  C_17
REMARK   11  A    between atoms: C_16  and  C_18
REMARK   12  A    between atoms: C_16  and  C_19
REMARK   13  A    between atoms: C_20  and  C_21
REMARK                            x       y       z     vdW  Elec       q    Type
REMARK                         _______ _______ _______ _____ _____    ______ ____
ROOT
ATOM      1  C   UNL     1       6.487   4.620  17.976  0.00  0.00    +0.000 C 
ATOM      2  C   UNL     1       7.789   5.319  18.393  0.00  0.00    +0.000 C 
ENDROOT
BRANCH   1   5
ATOM      3  C   UNL     1       6.965   5.045  15.556  0.00  0.00    +0.000 C 
ATOM      4  O   UNL     1       7.521   6.117  15.760  0.00  0.00    +0.000 OA
ATOM      5  N   UNL     1       6.476   4.244  16.562  0.00  0.00    +0.000 N 
ATOM      6  H   UNL     1       6.045   3.368  16.283  0.00  0.00    +0.000 HD
BRANCH   3  10
ATOM      7  C   UNL     1       5.466   2.441  11.603  0.00  0.00    +0.000 C 
ATOM      8  C   UNL     1       6.073   3.398  12.550  0.00  0.00    +0.000 A 
ATOM      9  N   UNL     1       5.827   3.584  13.834  0.00  0.00    +0.000 NA
ATOM     10  C   UNL     1       6.765   4.535  14.208  0.00  0.00    +0.000 A 
ATOM     11  C   UNL     1       7.496   4.920  13.102  0.00  0.00    +0.000 A 
ATOM     12  C   UNL     1       8.584   5.882  12.854  0.00  0.00    +0.000 C 
ATOM     13  O   UNL     1       7.058   4.191  12.034  0.00  0.00    +0.000 OA
ENDBRANCH   3  10
ENDBRANCH   1   5
BRANCH   1  14
ATOM     14  C   UNL     1       5.211   5.405  18.447  0.00  0.00    +0.000 C 
ATOM     15  C   UNL     1       4.269   5.854  17.332  0.00  0.00    +0.000 C 
BRANCH  14  16
ATOM     16  N   UNL     1       4.452   4.674  19.465  0.00  0.00    +0.000 N 
ATOM     17  C   UNL     1       3.926   3.443  19.200  0.00  0.00    +0.000 C 
ATOM     18  O   UNL     1       4.029   2.889  18.117  0.00  0.00    +0.000 OA
ATOM     19  H   UNL     1       4.338   5.039  20.399  0.00  0.00    +0.000 HD
BRANCH  17  20
ATOM     20  O   UNL     1       3.277   2.952  20.286  0.00  0.00    +0.000 OA
BRANCH  20  21
ATOM     21  C   UNL     1       1.840   3.162  20.385  0.00  0.00    +0.000 C 
ATOM     22  C   UNL     1       1.273   2.626  21.708  0.00  0.00    +0.000 C 
ATOM     23  C   UNL     1       1.622   4.685  20.362  0.00  0.00    +0.000 C 
ATOM     24  C   UNL     1       1.124   2.566  19.164  0.00  0.00    +0.000 C 
ENDBRANCH  20  21
ENDBRANCH  17  20
ENDBRANCH  14  16
ENDBRANCH   1  14
TORSDOF 6
ENDMDL
MODEL 9
REMARK VINA RESULT:      -6.8      1.081      1.840
REMARK  Name = 
REMARK  13 active torsions:
REMARK  status: ('A' for Active; 'I' for Inactive)
REMARK    1  A    between atoms: C_1  and  C_2
REMARK    2  A    between atoms: C_4  and  C_5
REMARK    3  A    between atoms: N_7  and  C_8
REMARK    4  A    between atoms: C_8  and  C_9
REMARK    5  A    between atoms: C_8  and  C_10
REMARK    6  A    between atoms: C_10  and  C_11
REMARK    7  A    between atoms: C_10  and  N_12
REMARK    8  A    between atoms: C_13  and  O_15
REMARK    9  A    between atoms: O_15  and  C_16
REMARK   10  A    between atoms: C_16  and  C_17
REMARK   11  A    between atoms: C_16  and  C_18
REMARK   12  A    between atoms: C_16  and  C_19
REMARK   13  A    between atoms: C_20  and  C_21
REMARK                            x       y       z     vdW  Elec       q    Type
REMARK                         _______ _______ _______ _____ _____    ______ ____
ROOT
ATOM      1  C   UNL     1       6.473   4.573  17.894  0.00  0.00    +0.000 C 
ATOM      2  C   UNL     1       7.773   5.279  18.305  0.00  0.00    +0.000 C 
ENDROOT
BRANCH   1   5
ATOM      3  C   UNL     1       6.962   4.999  15.476  0.00  0.00    +0.000 C 
ATOM      4  O   UNL     1       7.540   6.057  15.685  0.00  0.00    +0.000 OA
ATOM      5  N   UNL     1       6.455   4.204  16.478  0.00  0.00    +0.000 N 
ATOM      6  H   UNL     1       6.005   3.339  16.196  0.00  0.00    +0.000 HD
BRANCH   3  10
ATOM      7  C   UNL     1       5.440   2.418  11.516  0.00  0.00    +0.000 C 
ATOM      8  C   UNL     1       6.049   3.372  12.465  0.00  0.00    +0.000 A 
ATOM      9  N   UNL     1       5.816   3.545  13.753  0.00  0.00    +0.000 NA
ATOM     10  C   UNL     1       6.751   4.499  14.126  0.00  0.00    +0.000 A 
ATOM     11  C   UNL     1       7.468   4.898  13.015  0.00  0.00    +0.000 A 
ATOM     12  C   UNL     1       8.547   5.870  12.765  0.00  0.00    +0.000 C 
ATOM     13  O   UNL     1       7.024   4.176  11.946  0.00  0.00    +0.000 OA
ENDBRANCH   3  10
ENDBRANCH   1   5
BRANCH   1  14
ATOM     14  C   UNL     1       5.194   5.346  18.378  0.00  0.00    +0.000 C 
ATOM     15  C   UNL     1       4.824   6.579  17.556  0.00  0.00    +0.000 C 
BRANCH  14  16
ATOM     16  N   UNL     1       4.027   4.470  18.499  0.00  0.00    +0.000 N 
ATOM     17  C   UNL     1       4.007   3.448  19.403  0.00  0.00    +0.000 C 
ATOM     18  O   UNL     1       4.947   3.185  20.138  0.00  0.00    +0.000 OA
ATOM     19  H   UNL     1       3.192   4.625  17.953  0.00  0.00    +0.000 HD
BRANCH  17  20
ATOM     20  O   UNL     1       2.828   2.778  19.349  0.00  0.00    +0.000 OA
BRANCH  20  21
ATOM     21  C   UNL     1       1.733   3.242  20.188  0.00  0.00    +0.000 C 
ATOM     22  C   UNL     1       1.759   4.766  20.374  0.00  0.00    +0.000 C 
ATOM     23  C   UNL     1       0.435   2.880  19.444  0.00  0.00    +0.000 C 
ATOM     24  C   UNL     1       1.729   2.494  21.529  0.00  0.00    +0.000 C 
ENDBRANCH  20  21
ENDBRANCH  17  20
ENDBRANCH  14  16
ENDBRANCH   1  14
TORSDOF 6
ENDMDL
