MODEL 1
REMARK VINA RESULT:      -8.0      0.000      0.000
REMARK  Name = 
REMARK  4 active torsions:
REMARK  status: ('A' for Active; 'I' for Inactive)
REMARK    1  A    between atoms: N_3  and  C_4
REMARK    2  A    between atoms: C_4  and  C_5
REMARK    3  A    between atoms: C_19  and  O_20
REMARK    4  A    between atoms: O_20  and  C_21
REMARK                            x       y       z     vdW  Elec       q    Type
REMARK                         _______ _______ _______ _____ _____    ______ ____
ROOT
ATOM      1  O   UNL     1       3.328   8.282  17.720  0.00  0.00    +0.000 OA
ATOM      2  C   UNL     1       3.503   7.091  17.996  0.00  0.00    +0.000 C 
ATOM      3  N   UNL     1       2.397   6.308  18.046  0.00  0.00    +0.000 N 
ATOM      4  N   UNL     1       4.728   6.487  17.918  0.00  0.00    +0.000 N 
ATOM      5  C   UNL     1       5.556   6.950  16.826  0.00  0.00    +0.000 C 
ATOM      6  C   UNL     1       6.938   6.875  17.483  0.00  0.00    +0.000 C 
ATOM      7  C   UNL     1       6.884   5.663  18.420  0.00  0.00    +0.000 C 
ATOM      8  C   UNL     1       5.385   5.245  18.382  0.00  0.00    +0.000 C 
ATOM      9  C   UNL     1       5.320   4.083  17.358  0.00  0.00    +0.000 C 
ATOM     10  C   UNL     1       5.605   4.530  15.896  0.00  0.00    +0.000 C 
ATOM     11  C   UNL     1       5.173   5.984  15.670  0.00  0.00    +0.000 C 
ATOM     12  H   UNL     1       1.765   6.828  17.437  0.00  0.00    +0.000 HD
ENDROOT
BRANCH   3  13
ATOM     13  C   UNL     1       1.684   6.143  19.299  0.00  0.00    +0.000 C 
BRANCH  13  14
ATOM     14  C   UNL     1       1.650   4.735  19.867  0.00  0.00    +0.000 A 
ATOM     15  C   UNL     1       1.259   3.589  19.168  0.00  0.00    +0.000 A 
ATOM     16  F   UNL     1       0.793   3.684  17.915  0.00  0.00    +0.000 F 
ATOM     17  C   UNL     1       1.320   2.310  19.740  0.00  0.00    +0.000 A 
ATOM     18  C   UNL     1       1.784   2.147  21.044  0.00  0.00    +0.000 A 
ATOM     19  C   UNL     1       2.168   3.270  21.769  0.00  0.00    +0.000 A 
ATOM     20  C   UNL     1       2.100   4.538  21.178  0.00  0.00    +0.000 A 
ATOM     21  F   UNL     1       2.487   5.593  21.908  0.00  0.00    +0.000 F 
ENDBRANCH  13  14
ENDBRANCH   3  13
BRANCH  10  22
ATOM     22  O   UNL     1       7.006   4.491  15.561  0.00  0.00    +0.000 OA
BRANCH  22  23
ATOM     23  C   UNL     1       7.278   4.531  14.208  0.00  0.00    +0.000 A 
ATOM     24  C   UNL     1       6.577   3.658  13.383  0.00  0.00    +0.000 A 
ATOM     25  C   UNL     1       6.646   3.836  12.010  0.00  0.00    +0.000 A 
ATOM     26  C   UNL     1       7.408   4.874  11.494  0.00  0.00    +0.000 A 
ATOM     27  C   UNL     1       8.104   5.682  12.401  0.00  0.00    +0.000 A 
ATOM     28  N   UNL     1       8.048   5.536  13.741  0.00  0.00    +0.000 NA
ENDBRANCH  22  23
ENDBRANCH  10  22
TORSDOF 4
ENDMDL
MODEL 2
REMARK VINA RESULT:      -8.0      2.815      4.400
REMARK  Name = 
REMARK  4 active torsions:
REMARK  status: ('A' for Active; 'I' for Inactive)
REMARK    1  A    between atoms: N_3  and  C_4
REMARK    2  A    between atoms: C_4  and  C_5
REMARK    3  A    between atoms: C_19  and  O_20
REMARK    4  A    between atoms: O_20  and  C_21
REMARK                            x       y       z     vdW  Elec       q    Type
REMARK                         _______ _______ _______ _____ _____    ______ ____
ROOT
ATOM      1  O   UNL     1       2.357   4.241  21.607  0.00  0.00    +0.000 OA
ATOM      2  C   UNL     1       2.356   4.872  20.546  0.00  0.00    +0.000 C 
ATOM      3  N   UNL     1       2.419   6.224  20.640  0.00  0.00    +0.000 N 
ATOM      4  N   UNL     1       2.629   4.288  19.339  0.00  0.00    +0.000 N 
ATOM      5  C   UNL     1       3.636   3.251  19.389  0.00  0.00    +0.000 C 
ATOM      6  C   UNL     1       3.085   2.287  18.333  0.00  0.00    +0.000 C 
ATOM      7  C   UNL     1       2.434   3.173  17.266  0.00  0.00    +0.000 C 
ATOM      8  C   UNL     1       2.482   4.594  17.899  0.00  0.00    +0.000 C 
ATOM      9  C   UNL     1       3.729   5.269  17.272  0.00  0.00    +0.000 C 
ATOM     10  C   UNL     1       5.072   4.628  17.725  0.00  0.00    +0.000 C 
ATOM     11  C   UNL     1       4.953   4.037  19.136  0.00  0.00    +0.000 C 
ATOM     12  H   UNL     1       2.866   6.333  21.550  0.00  0.00    +0.000 HD
ENDROOT
BRANCH   3  13
ATOM     13  C   UNL     1       1.196   7.001  20.709  0.00  0.00    +0.000 C 
BRANCH  13  14
ATOM     14  C   UNL     1       1.274   8.418  20.168  0.00  0.00    +0.000 A 
ATOM     15  C   UNL     1       1.552   8.764  18.843  0.00  0.00    +0.000 A 
ATOM     16  F   UNL     1       1.859   7.819  17.944  0.00  0.00    +0.000 F 
ATOM     17  C   UNL     1       1.539  10.096  18.402  0.00  0.00    +0.000 A 
ATOM     18  C   UNL     1       1.239  11.126  19.292  0.00  0.00    +0.000 A 
ATOM     19  C   UNL     1       0.970  10.812  20.620  0.00  0.00    +0.000 A 
ATOM     20  C   UNL     1       0.987   9.476  21.039  0.00  0.00    +0.000 A 
ATOM     21  F   UNL     1       0.715   9.217  22.326  0.00  0.00    +0.000 F 
ENDBRANCH  13  14
ENDBRANCH   3  13
BRANCH  10  22
ATOM     22  O   UNL     1       5.481   3.532  16.886  0.00  0.00    +0.000 OA
BRANCH  22  23
ATOM     23  C   UNL     1       6.183   3.901  15.755  0.00  0.00    +0.000 A 
ATOM     24  C   UNL     1       5.665   3.521  14.521  0.00  0.00    +0.000 A 
ATOM     25  C   UNL     1       6.207   4.075  13.371  0.00  0.00    +0.000 A 
ATOM     26  C   UNL     1       7.246   4.987  13.477  0.00  0.00    +0.000 A 
ATOM     27  C   UNL     1       7.723   5.283  14.759  0.00  0.00    +0.000 A 
ATOM     28  N   UNL     1       7.209   4.766  15.895  0.00  0.00    +0.000 NA
ENDBRANCH  22  23
ENDBRANCH  10  22
TORSDOF 4
ENDMDL
MODEL 3
REMARK VINA RESULT:      -8.0      0.162      1.592
REMARK  Name = 
REMARK  4 active torsions:
REMARK  status: ('A' for Active; 'I' for Inactive)
REMARK    1  A    between atoms: N_3  and  C_4
REMARK    2  A    between atoms: C_4  and  C_5
REMARK    3  A    between atoms: C_19  and  O_20
REMARK    4  A    between atoms: O_20  and  C_21
REMARK                            x       y       z     vdW  Elec       q    Type
REMARK                         _______ _______ _______ _____ _____    ______ ____
ROOT
ATOM      1  O   UNL     1       3.321   8.238  17.922  0.00  0.00    +0.000 OA
ATOM      2  C   UNL     1       3.420   7.019  18.095  0.00  0.00    +0.000 C 
ATOM      3  N   UNL     1       2.273   6.298  18.030  0.00  0.00    +0.000 N 
ATOM      4  N   UNL     1       4.614   6.356  18.009  0.00  0.00    +0.000 N 
ATOM      5  C   UNL     1       5.512   6.867  16.996  0.00  0.00    +0.000 C 
ATOM      6  C   UNL     1       6.858   6.655  17.697  0.00  0.00    +0.000 C 
ATOM      7  C   UNL     1       6.699   5.369  18.516  0.00  0.00    +0.000 C 
ATOM      8  C   UNL     1       5.183   5.042  18.382  0.00  0.00    +0.000 C 
ATOM      9  C   UNL     1       5.101   3.982  17.254  0.00  0.00    +0.000 C 
ATOM     10  C   UNL     1       5.473   4.540  15.851  0.00  0.00    +0.000 C 
ATOM     11  C   UNL     1       5.129   6.032  15.743  0.00  0.00    +0.000 C 
ATOM     12  H   UNL     1       1.696   6.905  17.447  0.00  0.00    +0.000 HD
ENDROOT
BRANCH   3  13
ATOM     13  C   UNL     1       1.499   6.063  19.234  0.00  0.00    +0.000 C 
BRANCH  13  14
ATOM     14  C   UNL     1       1.672   4.700  19.883  0.00  0.00    +0.000 A 
ATOM     15  C   UNL     1       2.117   4.477  21.189  0.00  0.00    +0.000 A 
ATOM     16  F   UNL     1       2.512   5.502  21.958  0.00  0.00    +0.000 F 
ATOM     17  C   UNL     1       2.185   3.190  21.743  0.00  0.00    +0.000 A 
ATOM     18  C   UNL     1       1.801   2.082  20.991  0.00  0.00    +0.000 A 
ATOM     19  C   UNL     1       1.365   2.272  19.683  0.00  0.00    +0.000 A 
ATOM     20  C   UNL     1       1.304   3.566  19.151  0.00  0.00    +0.000 A 
ATOM     21  F   UNL     1       0.871   3.707  17.889  0.00  0.00    +0.000 F 
ENDBRANCH  13  14
ENDBRANCH   3  13
BRANCH  10  22
ATOM     22  O   UNL     1       6.883   4.452  15.569  0.00  0.00    +0.000 OA
BRANCH  22  23
ATOM     23  C   UNL     1       7.208   4.509  14.227  0.00  0.00    +0.000 A 
ATOM     24  C   UNL     1       6.512   3.673  13.360  0.00  0.00    +0.000 A 
ATOM     25  C   UNL     1       6.641   3.874  11.994  0.00  0.00    +0.000 A 
ATOM     26  C   UNL     1       7.454   4.896  11.528  0.00  0.00    +0.000 A 
ATOM     27  C   UNL     1       8.139   5.665  12.476  0.00  0.00    +0.000 A 
ATOM     28  N   UNL     1       8.027   5.497  13.810  0.00  0.00    +0.000 NA
ENDBRANCH  22  23
ENDBRANCH  10  22
TORSDOF 4
ENDMDL
MODEL 4
REMARK VINA RESULT:      -7.7      2.830      4.669
REMARK  Name = 
REMARK  4 active torsions:
REMARK  status: ('A' for Active; 'I' for Inactive)
REMARK    1  A    between atoms: N_3  and  C_4
REMARK    2  A    between atoms: C_4  and  C_5
REMARK    3  A    between atoms: C_19  and  O_20
REMARK    4  A    between atoms: O_20  and  C_21
REMARK                            x       y       z     vdW  Elec       q    Type
REMARK                         _______ _______ _______ _____ _____    ______ ____
ROOT
ATOM      1  O   UNL     1       2.315   4.656  21.594  0.00  0.00    +0.000 OA
ATOM      2  C   UNL     1       2.357   5.206  20.489  0.00  0.00    +0.000 C 
ATOM      3  N   UNL     1       2.378   6.562  20.482  0.00  0.00    +0.000 N 
ATOM      4  N   UNL     1       2.715   4.543  19.346  0.00  0.00    +0.000 N 
ATOM      5  C   UNL     1       3.747   3.545  19.531  0.00  0.00    +0.000 C 
ATOM      6  C   UNL     1       3.284   2.487  18.523  0.00  0.00    +0.000 C 
ATOM      7  C   UNL     1       2.671   3.270  17.357  0.00  0.00    +0.000 C 
ATOM      8  C   UNL     1       2.643   4.736  17.881  0.00  0.00    +0.000 C 
ATOM      9  C   UNL     1       3.905   5.401  17.275  0.00  0.00    +0.000 C 
ATOM     10  C   UNL     1       5.237   4.839  17.849  0.00  0.00    +0.000 C 
ATOM     11  C   UNL     1       5.053   4.352  19.292  0.00  0.00    +0.000 C 
ATOM     12  H   UNL     1       2.769   6.754  21.405  0.00  0.00    +0.000 HD
ENDROOT
BRANCH   3  13
ATOM     13  C   UNL     1       1.131   7.303  20.424  0.00  0.00    +0.000 C 
BRANCH  13  14
ATOM     14  C   UNL     1       1.218   8.712  19.862  0.00  0.00    +0.000 A 
ATOM     15  C   UNL     1       0.995   9.887  20.586  0.00  0.00    +0.000 A 
ATOM     16  F   UNL     1       0.595   9.833  21.864  0.00  0.00    +0.000 F 
ATOM     17  C   UNL     1       1.162  11.156  20.014  0.00  0.00    +0.000 A 
ATOM     18  C   UNL     1       1.565  11.280  18.685  0.00  0.00    +0.000 A 
ATOM     19  C   UNL     1       1.782  10.128  17.937  0.00  0.00    +0.000 A 
ATOM     20  C   UNL     1       1.610   8.870  18.528  0.00  0.00    +0.000 A 
ATOM     21  F   UNL     1       1.837   7.785  17.774  0.00  0.00    +0.000 F 
ENDBRANCH  13  14
ENDBRANCH   3  13
BRANCH  10  22
ATOM     22  O   UNL     1       5.723   3.696  17.120  0.00  0.00    +0.000 OA
BRANCH  22  23
ATOM     23  C   UNL     1       6.280   3.990  15.890  0.00  0.00    +0.000 A 
ATOM     24  C   UNL     1       5.678   3.442  14.762  0.00  0.00    +0.000 A 
ATOM     25  C   UNL     1       6.058   3.905  13.512  0.00  0.00    +0.000 A 
ATOM     26  C   UNL     1       7.024   4.896  13.415  0.00  0.00    +0.000 A 
ATOM     27  C   UNL     1       7.596   5.364  14.604  0.00  0.00    +0.000 A 
ATOM     28  N   UNL     1       7.239   4.938  15.834  0.00  0.00    +0.000 NA
ENDBRANCH  22  23
ENDBRANCH  10  22
TORSDOF 4
ENDMDL
MODEL 5
REMARK VINA RESULT:      -7.5      3.296      4.737
REMARK  Name = 
REMARK  4 active torsions:
REMARK  status: ('A' for Active; 'I' for Inactive)
REMARK    1  A    between atoms: N_3  and  C_4
REMARK    2  A    between atoms: C_4  and  C_5
REMARK    3  A    between atoms: C_19  and  O_20
REMARK    4  A    between atoms: O_20  and  C_21
REMARK                            x       y       z     vdW  Elec       q    Type
REMARK                         _______ _______ _______ _____ _____    ______ ____
ROOT
ATOM      1  O   UNL     1       1.826   5.992  21.236  0.00  0.00    +0.000 OA
ATOM      2  C   UNL     1       2.102   6.385  20.098  0.00  0.00    +0.000 C 
ATOM      3  N   UNL     1       2.216   7.725  19.926  0.00  0.00    +0.000 N 
ATOM      4  N   UNL     1       2.611   5.557  19.134  0.00  0.00    +0.000 N 
ATOM      5  C   UNL     1       3.522   4.549  19.630  0.00  0.00    +0.000 C 
ATOM      6  C   UNL     1       3.175   3.386  18.695  0.00  0.00    +0.000 C 
ATOM      7  C   UNL     1       2.834   4.030  17.346  0.00  0.00    +0.000 C 
ATOM      8  C   UNL     1       2.814   5.553  17.669  0.00  0.00    +0.000 C 
ATOM      9  C   UNL     1       4.206   6.073  17.228  0.00  0.00    +0.000 C 
ATOM     10  C   UNL     1       5.372   5.535  18.105  0.00  0.00    +0.000 C 
ATOM     11  C   UNL     1       4.903   5.257  19.539  0.00  0.00    +0.000 C 
ATOM     12  H   UNL     1       2.448   8.022  20.874  0.00  0.00    +0.000 HD
ENDROOT
BRANCH   3  13
ATOM     13  C   UNL     1       1.053   8.506  19.546  0.00  0.00    +0.000 C 
BRANCH  13  14
ATOM     14  C   UNL     1       0.586   9.542  20.554  0.00  0.00    +0.000 A 
ATOM     15  C   UNL     1       0.836  10.915  20.479  0.00  0.00    +0.000 A 
ATOM     16  F   UNL     1       1.609  11.413  19.502  0.00  0.00    +0.000 F 
ATOM     17  C   UNL     1       0.312  11.820  21.413  0.00  0.00    +0.000 A 
ATOM     18  C   UNL     1      -0.489  11.363  22.458  0.00  0.00    +0.000 A 
ATOM     19  C   UNL     1      -0.744  10.000  22.566  0.00  0.00    +0.000 A 
ATOM     20  C   UNL     1      -0.212   9.114  21.621  0.00  0.00    +0.000 A 
ATOM     21  F   UNL     1      -0.489   7.809  21.757  0.00  0.00    +0.000 F 
ENDBRANCH  13  14
ENDBRANCH   3  13
BRANCH  10  22
ATOM     22  O   UNL     1       5.902   4.284  17.627  0.00  0.00    +0.000 OA
BRANCH  22  23
ATOM     23  C   UNL     1       6.382   4.316  16.333  0.00  0.00    +0.000 A 
ATOM     24  C   UNL     1       5.698   3.578  15.373  0.00  0.00    +0.000 A 
ATOM     25  C   UNL     1       6.003   3.778  14.035  0.00  0.00    +0.000 A 
ATOM     26  C   UNL     1       6.977   4.701  13.687  0.00  0.00    +0.000 A 
ATOM     27  C   UNL     1       7.635   5.374  14.724  0.00  0.00    +0.000 A 
ATOM     28  N   UNL     1       7.352   5.205  16.034  0.00  0.00    +0.000 NA
ENDBRANCH  22  23
ENDBRANCH  10  22
TORSDOF 4
ENDMDL
MODEL 6
REMARK VINA RESULT:      -7.5      5.186      8.628
REMARK  Name = 
REMARK  4 active torsions:
REMARK  status: ('A' for Active; 'I' for Inactive)
REMARK    1  A    between atoms: N_3  and  C_4
REMARK    2  A    between atoms: C_4  and  C_5
REMARK    3  A    between atoms: C_19  and  O_20
REMARK    4  A    between atoms: O_20  and  C_21
REMARK                            x       y       z     vdW  Elec       q    Type
REMARK                         _______ _______ _______ _____ _____    ______ ____
ROOT
ATOM      1  O   UNL     1       1.601   8.680  22.210  0.00  0.00    +0.000 OA
ATOM      2  C   UNL     1       1.490   8.538  20.988  0.00  0.00    +0.000 C 
ATOM      3  N   UNL     1       1.276   7.277  20.536  0.00  0.00    +0.000 N 
ATOM      4  N   UNL     1       1.241   9.585  20.142  0.00  0.00    +0.000 N 
ATOM      5  C   UNL     1       0.360  10.597  20.685  0.00  0.00    +0.000 C 
ATOM      6  C   UNL     1       0.978  11.855  20.063  0.00  0.00    +0.000 C 
ATOM      7  C   UNL     1       1.484  11.425  18.682  0.00  0.00    +0.000 C 
ATOM      8  C   UNL     1       1.298   9.880  18.694  0.00  0.00    +0.000 C 
ATOM      9  C   UNL     1      -0.041   9.634  17.952  0.00  0.00    +0.000 C 
ATOM     10  C   UNL     1      -1.284  10.151  18.730  0.00  0.00    +0.000 C 
ATOM     11  C   UNL     1      -1.046  10.103  20.245  0.00  0.00    +0.000 C 
ATOM     12  H   UNL     1       0.854   6.847  21.360  0.00  0.00    +0.000 HD
ENDROOT
BRANCH   3  13
ATOM     13  C   UNL     1       2.405   6.433  20.190  0.00  0.00    +0.000 C 
BRANCH  13  14
ATOM     14  C   UNL     1       2.081   4.983  19.876  0.00  0.00    +0.000 A 
ATOM     15  C   UNL     1       2.007   3.949  20.814  0.00  0.00    +0.000 A 
ATOM     16  F   UNL     1       2.310   4.175  22.100  0.00  0.00    +0.000 F 
ATOM     17  C   UNL     1       1.634   2.645  20.457  0.00  0.00    +0.000 A 
ATOM     18  C   UNL     1       1.319   2.343  19.133  0.00  0.00    +0.000 A 
ATOM     19  C   UNL     1       1.396   3.349  18.176  0.00  0.00    +0.000 A 
ATOM     20  C   UNL     1       1.770   4.645  18.554  0.00  0.00    +0.000 A 
ATOM     21  F   UNL     1       1.825   5.587  17.601  0.00  0.00    +0.000 F 
ENDBRANCH  13  14
ENDBRANCH   3  13
BRANCH  10  22
ATOM     22  O   UNL     1      -1.596  11.526  18.436  0.00  0.00    +0.000 OA
BRANCH  22  23
ATOM     23  C   UNL     1      -2.934  11.778  18.204  0.00  0.00    +0.000 A 
ATOM     24  C   UNL     1      -3.464  11.373  16.983  0.00  0.00    +0.000 A 
ATOM     25  C   UNL     1      -4.840  11.391  16.815  0.00  0.00    +0.000 A 
ATOM     26  C   UNL     1      -5.651  11.809  17.859  0.00  0.00    +0.000 A 
ATOM     27  C   UNL     1      -5.025  12.228  19.039  0.00  0.00    +0.000 A 
ATOM     28  N   UNL     1      -3.690  12.214  19.233  0.00  0.00    +0.000 NA
ENDBRANCH  22  23
ENDBRANCH  10  22
TORSDOF 4
ENDMDL
MODEL 7
REMARK VINA RESULT:      -7.5      3.262      4.667
REMARK  Name = 
REMARK  4 active torsions:
REMARK  status: ('A' for Active; 'I' for Inactive)
REMARK    1  A    between atoms: N_3  and  C_4
REMARK    2  A    between atoms: C_4  and  C_5
REMARK    3  A    between atoms: C_19  and  O_20
REMARK    4  A    between atoms: O_20  and  C_21
REMARK                            x       y       z     vdW  Elec       q    Type
REMARK                         _______ _______ _______ _____ _____    ______ ____
ROOT
ATOM      1  O   UNL     1       1.885   6.062  21.137  0.00  0.00    +0.000 OA
ATOM      2  C   UNL     1       2.158   6.442  19.994  0.00  0.00    +0.000 C 
ATOM      3  N   UNL     1       2.243   7.781  19.800  0.00  0.00    +0.000 N 
ATOM      4  N   UNL     1       2.689   5.610  19.047  0.00  0.00    +0.000 N 
ATOM      5  C   UNL     1       3.620   4.630  19.564  0.00  0.00    +0.000 C 
ATOM      6  C   UNL     1       3.303   3.444  18.646  0.00  0.00    +0.000 C 
ATOM      7  C   UNL     1       2.954   4.058  17.286  0.00  0.00    +0.000 C 
ATOM      8  C   UNL     1       2.899   5.585  17.582  0.00  0.00    +0.000 C 
ATOM      9  C   UNL     1       4.282   6.128  17.139  0.00  0.00    +0.000 C 
ATOM     10  C   UNL     1       5.456   5.631  18.030  0.00  0.00    +0.000 C 
ATOM     11  C   UNL     1       4.985   5.366  19.466  0.00  0.00    +0.000 C 
ATOM     12  H   UNL     1       2.465   8.099  20.744  0.00  0.00    +0.000 HD
ENDROOT
BRANCH   3  13
ATOM     13  C   UNL     1       1.066   8.530  19.402  0.00  0.00    +0.000 C 
BRANCH  13  14
ATOM     14  C   UNL     1       0.490   9.473  20.444  0.00  0.00    +0.000 A 
ATOM     15  C   UNL     1      -0.266   9.087  21.555  0.00  0.00    +0.000 A 
ATOM     16  F   UNL     1      -0.609   7.803  21.730  0.00  0.00    +0.000 F 
ATOM     17  C   UNL     1      -0.705  10.011  22.514  0.00  0.00    +0.000 A 
ATOM     18  C   UNL     1      -0.390  11.362  22.382  0.00  0.00    +0.000 A 
ATOM     19  C   UNL     1       0.350  11.777  21.280  0.00  0.00    +0.000 A 
ATOM     20  C   UNL     1       0.780  10.838  20.335  0.00  0.00    +0.000 A 
ATOM     21  F   UNL     1       1.497  11.279  19.292  0.00  0.00    +0.000 F 
ENDBRANCH  13  14
ENDBRANCH   3  13
BRANCH  10  22
ATOM     22  O   UNL     1       6.015   4.384  17.576  0.00  0.00    +0.000 OA
BRANCH  22  23
ATOM     23  C   UNL     1       6.450   4.389  16.265  0.00  0.00    +0.000 A 
ATOM     24  C   UNL     1       5.785   3.566  15.362  0.00  0.00    +0.000 A 
ATOM     25  C   UNL     1       6.034   3.725  14.007  0.00  0.00    +0.000 A 
ATOM     26  C   UNL     1       6.934   4.693  13.587  0.00  0.00    +0.000 A 
ATOM     27  C   UNL     1       7.579   5.452  14.571  0.00  0.00    +0.000 A 
ATOM     28  N   UNL     1       7.350   5.324  15.895  0.00  0.00    +0.000 NA
ENDBRANCH  22  23
ENDBRANCH  10  22
TORSDOF 4
ENDMDL
MODEL 8
REMARK VINA RESULT:      -7.4      5.160      8.456
REMARK  Name = 
REMARK  4 active torsions:
REMARK  status: ('A' for Active; 'I' for Inactive)
REMARK    1  A    between atoms: N_3  and  C_4
REMARK    2  A    between atoms: C_4  and  C_5
REMARK    3  A    between atoms: C_19  and  O_20
REMARK    4  A    between atoms: O_20  and  C_21
REMARK                            x       y       z     vdW  Elec       q    Type
REMARK                         _______ _______ _______ _____ _____    ______ ____
ROOT
ATOM      1  O   UNL     1       1.739   8.654  22.160  0.00  0.00    +0.000 OA
ATOM      2  C   UNL     1       1.572   8.497  20.947  0.00  0.00    +0.000 C 
ATOM      3  N   UNL     1       1.318   7.234  20.524  0.00  0.00    +0.000 N 
ATOM      4  N   UNL     1       1.302   9.536  20.098  0.00  0.00    +0.000 N 
ATOM      5  C   UNL     1       0.463  10.570  20.664  0.00  0.00    +0.000 C 
ATOM      6  C   UNL     1       1.073  11.808  19.998  0.00  0.00    +0.000 C 
ATOM      7  C   UNL     1       1.510  11.352  18.601  0.00  0.00    +0.000 C 
ATOM      8  C   UNL     1       1.299   9.810  18.644  0.00  0.00    +0.000 C 
ATOM      9  C   UNL     1      -0.075   9.575  17.966  0.00  0.00    +0.000 C 
ATOM     10  C   UNL     1      -1.273  10.124  18.791  0.00  0.00    +0.000 C 
ATOM     11  C   UNL     1      -0.969  10.093  20.294  0.00  0.00    +0.000 C 
ATOM     12  H   UNL     1       0.926   6.822  21.371  0.00  0.00    +0.000 HD
ENDROOT
BRANCH   3  13
ATOM     13  C   UNL     1       2.416   6.366  20.140  0.00  0.00    +0.000 C 
BRANCH  13  14
ATOM     14  C   UNL     1       2.045   4.937  19.783  0.00  0.00    +0.000 A 
ATOM     15  C   UNL     1       1.730   4.479  18.500  0.00  0.00    +0.000 A 
ATOM     16  F   UNL     1       1.659   5.335  17.471  0.00  0.00    +0.000 F 
ATOM     17  C   UNL     1       1.464   3.128  18.237  0.00  0.00    +0.000 A 
ATOM     18  C   UNL     1       1.511   2.190  19.267  0.00  0.00    +0.000 A 
ATOM     19  C   UNL     1       1.809   2.619  20.556  0.00  0.00    +0.000 A 
ATOM     20  C   UNL     1       2.072   3.973  20.797  0.00  0.00    +0.000 A 
ATOM     21  F   UNL     1       2.363   4.343  22.052  0.00  0.00    +0.000 F 
ENDBRANCH  13  14
ENDBRANCH   3  13
BRANCH  10  22
ATOM     22  O   UNL     1      -1.576  11.500  18.491  0.00  0.00    +0.000 OA
BRANCH  22  23
ATOM     23  C   UNL     1      -2.898  11.745  18.173  0.00  0.00    +0.000 A 
ATOM     24  C   UNL     1      -3.343  11.349  16.916  0.00  0.00    +0.000 A 
ATOM     25  C   UNL     1      -4.705  11.359  16.658  0.00  0.00    +0.000 A 
ATOM     26  C   UNL     1      -5.587  11.760  17.650  0.00  0.00    +0.000 A 
ATOM     27  C   UNL     1      -5.043  12.172  18.873  0.00  0.00    +0.000 A 
ATOM     28  N   UNL     1      -3.723  12.165  19.155  0.00  0.00    +0.000 NA
ENDBRANCH  22  23
ENDBRANCH  10  22
TORSDOF 4
ENDMDL
MODEL 9
REMARK VINA RESULT:      -7.1      3.266      5.131
REMARK  Name = 
REMARK  4 active torsions:
REMARK  status: ('A' for Active; 'I' for Inactive)
REMARK    1  A    between atoms: N_3  and  C_4
REMARK    2  A    between atoms: C_4  and  C_5
REMARK    3  A    between atoms: C_19  and  O_20
REMARK    4  A    between atoms: O_20  and  C_21
REMARK                            x       y       z     vdW  Elec       q    Type
REMARK                         _______ _______ _______ _____ _____    ______ ____
ROOT
ATOM      1  O   UNL     1       1.783   5.870  21.367  0.00  0.00    +0.000 OA
ATOM      2  C   UNL     1       2.024   6.281  20.227  0.00  0.00    +0.000 C 
ATOM      3  N   UNL     1       2.134   7.624  20.072  0.00  0.00    +0.000 N 
ATOM      4  N   UNL     1       2.503   5.468  19.236  0.00  0.00    +0.000 N 
ATOM      5  C   UNL     1       3.428   4.452  19.688  0.00  0.00    +0.000 C 
ATOM      6  C   UNL     1       3.051   3.304  18.745  0.00  0.00    +0.000 C 
ATOM      7  C   UNL     1       2.669   3.969  17.418  0.00  0.00    +0.000 C 
ATOM      8  C   UNL     1       2.661   5.487  17.765  0.00  0.00    +0.000 C 
ATOM      9  C   UNL     1       4.039   6.013  17.290  0.00  0.00    +0.000 C 
ATOM     10  C   UNL     1       5.231   5.462  18.122  0.00  0.00    +0.000 C 
ATOM     11  C   UNL     1       4.806   5.161  19.565  0.00  0.00    +0.000 C 
ATOM     12  H   UNL     1       2.396   7.906  21.017  0.00  0.00    +0.000 HD
ENDROOT
BRANCH   3  13
ATOM     13  C   UNL     1       0.961   8.411  19.741  0.00  0.00    +0.000 C 
BRANCH  13  14
ATOM     14  C   UNL     1       1.170   9.912  19.645  0.00  0.00    +0.000 A 
ATOM     15  C   UNL     1       0.921  10.831  20.669  0.00  0.00    +0.000 A 
ATOM     16  F   UNL     1       0.382  10.427  21.828  0.00  0.00    +0.000 F 
ATOM     17  C   UNL     1       1.205  12.197  20.529  0.00  0.00    +0.000 A 
ATOM     18  C   UNL     1       1.756  12.681  19.343  0.00  0.00    +0.000 A 
ATOM     19  C   UNL     1       2.002  11.792  18.303  0.00  0.00    +0.000 A 
ATOM     20  C   UNL     1       1.713  10.432  18.464  0.00  0.00    +0.000 A 
ATOM     21  F   UNL     1       1.973   9.608  17.439  0.00  0.00    +0.000 F 
ENDBRANCH  13  14
ENDBRANCH   3  13
BRANCH  10  22
ATOM     22  O   UNL     1       5.745   4.218  17.609  0.00  0.00    +0.000 OA
BRANCH  22  23
ATOM     23  C   UNL     1       6.280   4.294  16.337  0.00  0.00    +0.000 A 
ATOM     24  C   UNL     1       5.626   3.606  15.320  0.00  0.00    +0.000 A 
ATOM     25  C   UNL     1       5.991   3.854  14.006  0.00  0.00    +0.000 A 
ATOM     26  C   UNL     1       6.992   4.775  13.737  0.00  0.00    +0.000 A 
ATOM     27  C   UNL     1       7.615   5.394  14.827  0.00  0.00    +0.000 A 
ATOM     28  N   UNL     1       7.275   5.178  16.116  0.00  0.00    +0.000 NA
ENDBRANCH  22  23
ENDBRANCH  10  22
TORSDOF 4
ENDMDL
