MODEL 1
REMARK VINA RESULT:      -8.7      0.000      0.000
REMARK  Name = 
REMARK  9 active torsions:
REMARK  status: ('A' for Active; 'I' for Inactive)
REMARK    1  A    between atoms: C_1  and  C_2
REMARK    2  A    between atoms: C_2  and  C_4
REMARK    3  A    between atoms: C_5  and  O_6
REMARK    4  A    between atoms: C_7  and  C_8
REMARK    5  A    between atoms: C_9  and  O_10
REMARK    6  A    between atoms: C_19  and  C_20
REMARK    7  A    between atoms: C_19  and  N_21
REMARK    8  A    between atoms: N_21  and  C_22
REMARK    9  A    between atoms: C_34  and  C_35
REMARK                            x       y       z     vdW  Elec       q    Type
REMARK                         _______ _______ _______ _____ _____    ______ ____
ROOT
ATOM      1  C   UNL     1      -0.229  14.862  21.682  0.00  0.00    +0.000 A 
ATOM      2  C   UNL     1      -0.195  15.842  20.690  0.00  0.00    +0.000 A 
ATOM      3  C   UNL     1      -0.360  15.508  19.328  0.00  0.00    +0.000 A 
ATOM      4  C   UNL     1      -0.100  16.565  18.278  0.00  0.00    +0.000 C 
ATOM      5  C   UNL     1      -0.582  14.152  18.966  0.00  0.00    +0.000 A 
ATOM      6  C   UNL     1      -0.477  13.130  19.920  0.00  0.00    +0.000 A 
ATOM      7  C   UNL     1      -0.276  13.539  21.256  0.00  0.00    +0.000 A 
ATOM      8  O   UNL     1       0.184  12.526  22.056  0.00  0.00    +0.000 OA
ATOM      9  C   UNL     1       0.323  11.392  21.272  0.00  0.00    +0.000 C 
ATOM     10  C   UNL     1       0.278  10.223  21.916  0.00  0.00    +0.000 C 
ATOM     11  C   UNL     1       0.163   8.951  21.170  0.00  0.00    +0.000 C 
ATOM     12  O   UNL     1       0.009   7.875  21.723  0.00  0.00    +0.000 OA
ATOM     13  C   UNL     1       0.353   9.171  19.709  0.00  0.00    +0.000 C 
ATOM     14  C   UNL     1       1.484   8.566  19.224  0.00  0.00    +0.000 C 
ATOM     15  C   UNL     1       2.188   8.912  17.912  0.00  0.00    +0.000 C 
ATOM     16  C   UNL     1      -0.464  10.402  19.238  0.00  0.00    +0.000 C 
ATOM     17  O   UNL     1      -1.538  10.268  18.663  0.00  0.00    +0.000 OA
ATOM     18  C   UNL     1       0.128  11.714  19.756  0.00  0.00    +0.000 C 
ATOM     19  C   UNL     1       1.295  11.952  18.783  0.00  0.00    +0.000 C 
ENDROOT
BRANCH   1  21
ATOM     20  C   UNL     1      -1.156  15.072  24.088  0.00  0.00    +0.000 C 
ATOM     21  C   UNL     1      -0.028  15.241  23.105  0.00  0.00    +0.000 C 
ATOM     22  O   UNL     1       1.030  15.790  23.421  0.00  0.00    +0.000 OA
ENDBRANCH   1  21
BRANCH   2  23
ATOM     23  O   UNL     1       0.080  17.154  20.998  0.00  0.00    +0.000 OA
ATOM     24  H   UNL     1       0.319  17.630  20.169  0.00  0.00    +0.000 HD
ENDBRANCH   2  23
BRANCH   5  25
ATOM     25  O   UNL     1      -0.733  13.794  17.657  0.00  0.00    +0.000 OA
ATOM     26  H   UNL     1      -0.644  14.577  17.090  0.00  0.00    +0.000 HD
ENDBRANCH   5  25
BRANCH  14  27
ATOM     27  N   UNL     1       2.278   7.689  19.984  0.00  0.00    +0.000 N 
ATOM     28  H   UNL     1       2.306   7.845  21.000  0.00  0.00    +0.000 HD
BRANCH  27  29
ATOM     29  C   UNL     1       2.270   6.269  19.833  0.00  0.00    +0.000 A 
ATOM     30  C   UNL     1       1.400   5.457  20.583  0.00  0.00    +0.000 A 
ATOM     31  C   UNL     1       1.312   4.096  20.362  0.00  0.00    +0.000 A 
ATOM     32  C   UNL     1       2.082   3.521  19.361  0.00  0.00    +0.000 A 
ATOM     33  C   UNL     1       2.953   4.311  18.589  0.00  0.00    +0.000 A 
ATOM     34  C   UNL     1       3.704   3.733  17.557  0.00  0.00    +0.000 A 
ATOM     35  C   UNL     1       4.581   4.512  16.818  0.00  0.00    +0.000 A 
ATOM     36  C   UNL     1       4.704   5.842  17.167  0.00  0.00    +0.000 A 
ATOM     37  N   UNL     1       3.963   6.447  18.127  0.00  0.00    +0.000 NA
ATOM     38  C   UNL     1       3.085   5.690  18.838  0.00  0.00    +0.000 A 
ENDBRANCH  27  29
ENDBRANCH  14  27
TORSDOF 5
ENDMDL
MODEL 2
REMARK VINA RESULT:      -8.4      0.784      1.861
REMARK  Name = 
REMARK  9 active torsions:
REMARK  status: ('A' for Active; 'I' for Inactive)
REMARK    1  A    between atoms: C_1  and  C_2
REMARK    2  A    between atoms: C_2  and  C_4
REMARK    3  A    between atoms: C_5  and  O_6
REMARK    4  A    between atoms: C_7  and  C_8
REMARK    5  A    between atoms: C_9  and  O_10
REMARK    6  A    between atoms: C_19  and  C_20
REMARK    7  A    between atoms: C_19  and  N_21
REMARK    8  A    between atoms: N_21  and  C_22
REMARK    9  A    between atoms: C_34  and  C_35
REMARK                            x       y       z     vdW  Elec       q    Type
REMARK                         _______ _______ _______ _____ _____    ______ ____
ROOT
ATOM      1  C   UNL     1      -0.208  14.696  21.596  0.00  0.00    +0.000 A 
ATOM      2  C   UNL     1      -0.188  15.679  20.605  0.00  0.00    +0.000 A 
ATOM      3  C   UNL     1      -0.348  15.345  19.243  0.00  0.00    +0.000 A 
ATOM      4  C   UNL     1      -0.103  16.407  18.195  0.00  0.00    +0.000 C 
ATOM      5  C   UNL     1      -0.550  13.986  18.879  0.00  0.00    +0.000 A 
ATOM      6  C   UNL     1      -0.431  12.964  19.830  0.00  0.00    +0.000 A 
ATOM      7  C   UNL     1      -0.236  13.374  21.168  0.00  0.00    +0.000 A 
ATOM      8  O   UNL     1       0.239  12.366  21.966  0.00  0.00    +0.000 OA
ATOM      9  C   UNL     1       0.394  11.235  21.180  0.00  0.00    +0.000 C 
ATOM     10  C   UNL     1       0.366  10.065  21.822  0.00  0.00    +0.000 C 
ATOM     11  C   UNL     1       0.270   8.793  21.074  0.00  0.00    +0.000 C 
ATOM     12  O   UNL     1       0.131   7.713  21.625  0.00  0.00    +0.000 OA
ATOM     13  C   UNL     1       0.457   9.018  19.613  0.00  0.00    +0.000 C 
ATOM     14  C   UNL     1       1.597   8.431  19.128  0.00  0.00    +0.000 C 
ATOM     15  C   UNL     1       2.296   8.789  17.817  0.00  0.00    +0.000 C 
ATOM     16  C   UNL     1      -0.377  10.238  19.144  0.00  0.00    +0.000 C 
ATOM     17  O   UNL     1      -1.449  10.089  18.568  0.00  0.00    +0.000 OA
ATOM     18  C   UNL     1       0.196  11.558  19.665  0.00  0.00    +0.000 C 
ATOM     19  C   UNL     1       1.359  11.814  18.693  0.00  0.00    +0.000 C 
ENDROOT
BRANCH   1  21
ATOM     20  C   UNL     1      -1.132  14.867  24.006  0.00  0.00    +0.000 C 
ATOM     21  C   UNL     1      -0.013  15.076  23.020  0.00  0.00    +0.000 C 
ATOM     22  O   UNL     1       1.028  15.657  23.333  0.00  0.00    +0.000 OA
ENDBRANCH   1  21
BRANCH   2  23
ATOM     23  O   UNL     1       0.068  16.994  20.916  0.00  0.00    +0.000 OA
ATOM     24  H   UNL     1       0.981  17.216  20.620  0.00  0.00    +0.000 HD
ENDBRANCH   2  23
BRANCH   5  25
ATOM     25  O   UNL     1      -0.695  13.628  17.569  0.00  0.00    +0.000 OA
ATOM     26  H   UNL     1       0.178  13.490  17.167  0.00  0.00    +0.000 HD
ENDBRANCH   5  25
BRANCH  14  27
ATOM     27  N   UNL     1       2.404   7.564  19.887  0.00  0.00    +0.000 N 
ATOM     28  H   UNL     1       2.037   7.263  20.799  0.00  0.00    +0.000 HD
BRANCH  27  29
ATOM     29  C   UNL     1       3.055   6.409  19.356  0.00  0.00    +0.000 A 
ATOM     30  C   UNL     1       4.177   6.521  18.514  0.00  0.00    +0.000 A 
ATOM     31  C   UNL     1       4.874   5.407  18.087  0.00  0.00    +0.000 A 
ATOM     32  C   UNL     1       4.472   4.151  18.518  0.00  0.00    +0.000 A 
ATOM     33  C   UNL     1       3.360   4.010  19.369  0.00  0.00    +0.000 A 
ATOM     34  C   UNL     1       2.978   2.743  19.829  0.00  0.00    +0.000 A 
ATOM     35  C   UNL     1       1.865   2.609  20.644  0.00  0.00    +0.000 A 
ATOM     36  C   UNL     1       1.147   3.750  20.939  0.00  0.00    +0.000 A 
ATOM     37  N   UNL     1       1.510   4.998  20.551  0.00  0.00    +0.000 NA
ATOM     38  C   UNL     1       2.615   5.135  19.770  0.00  0.00    +0.000 A 
ENDBRANCH  27  29
ENDBRANCH  14  27
TORSDOF 5
ENDMDL
MODEL 3
REMARK VINA RESULT:      -8.4      2.579      4.242
REMARK  Name = 
REMARK  9 active torsions:
REMARK  status: ('A' for Active; 'I' for Inactive)
REMARK    1  A    between atoms: C_1  and  C_2
REMARK    2  A    between atoms: C_2  and  C_4
REMARK    3  A    between atoms: C_5  and  O_6
REMARK    4  A    between atoms: C_7  and  C_8
REMARK    5  A    between atoms: C_9  and  O_10
REMARK    6  A    between atoms: C_19  and  C_20
REMARK    7  A    between atoms: C_19  and  N_21
REMARK    8  A    between atoms: N_21  and  C_22
REMARK    9  A    between atoms: C_34  and  C_35
REMARK                            x       y       z     vdW  Elec       q    Type
REMARK                         _______ _______ _______ _____ _____    ______ ____
ROOT
ATOM      1  C   UNL     1      -4.189  13.686  21.616  0.00  0.00    +0.000 A 
ATOM      2  C   UNL     1      -4.182  14.224  22.903  0.00  0.00    +0.000 A 
ATOM      3  C   UNL     1      -2.988  14.311  23.652  0.00  0.00    +0.000 A 
ATOM      4  C   UNL     1      -3.066  14.696  25.112  0.00  0.00    +0.000 C 
ATOM      5  C   UNL     1      -1.771  13.857  23.075  0.00  0.00    +0.000 A 
ATOM      6  C   UNL     1      -1.768  13.182  21.847  0.00  0.00    +0.000 A 
ATOM      7  C   UNL     1      -3.007  13.104  21.173  0.00  0.00    +0.000 A 
ATOM      8  O   UNL     1      -3.020  12.138  20.200  0.00  0.00    +0.000 OA
ATOM      9  C   UNL     1      -1.781  11.517  20.198  0.00  0.00    +0.000 C 
ATOM     10  C   UNL     1      -1.424  10.924  19.057  0.00  0.00    +0.000 C 
ATOM     11  C   UNL     1      -0.038  10.450  18.851  0.00  0.00    +0.000 C 
ATOM     12  O   UNL     1       0.354  10.004  17.784  0.00  0.00    +0.000 OA
ATOM     13  C   UNL     1       0.741  10.513  20.118  0.00  0.00    +0.000 C 
ATOM     14  C   UNL     1       1.109   9.275  20.577  0.00  0.00    +0.000 C 
ATOM     15  C   UNL     1       1.539   8.944  22.006  0.00  0.00    +0.000 C 
ATOM     16  C   UNL     1       0.501  11.869  20.832  0.00  0.00    +0.000 C 
ATOM     17  O   UNL     1       1.323  12.776  20.761  0.00  0.00    +0.000 OA
ATOM     18  C   UNL     1      -0.911  11.968  21.414  0.00  0.00    +0.000 C 
ATOM     19  C   UNL     1      -0.785  11.157  22.714  0.00  0.00    +0.000 C 
ENDROOT
BRANCH   1  21
ATOM     20  C   UNL     1      -5.820  14.648  19.853  0.00  0.00    +0.000 C 
ATOM     21  C   UNL     1      -5.466  13.587  20.862  0.00  0.00    +0.000 C 
ATOM     22  O   UNL     1      -6.255  12.690  21.163  0.00  0.00    +0.000 OA
ENDBRANCH   1  21
BRANCH   2  23
ATOM     23  O   UNL     1      -5.351  14.614  23.515  0.00  0.00    +0.000 OA
ATOM     24  H   UNL     1      -5.137  15.285  24.205  0.00  0.00    +0.000 HD
ENDBRANCH   2  23
BRANCH   5  25
ATOM     25  O   UNL     1      -0.602  13.915  23.777  0.00  0.00    +0.000 OA
ATOM     26  H   UNL     1      -0.682  14.561  24.497  0.00  0.00    +0.000 HD
ENDBRANCH   5  25
BRANCH  14  27
ATOM     27  N   UNL     1       0.925   8.091  19.840  0.00  0.00    +0.000 N 
ATOM     28  H   UNL     1       0.147   8.075  19.168  0.00  0.00    +0.000 HD
BRANCH  27  29
ATOM     29  C   UNL     1       1.981   7.381  19.192  0.00  0.00    +0.000 A 
ATOM     30  C   UNL     1       2.758   7.981  18.184  0.00  0.00    +0.000 A 
ATOM     31  C   UNL     1       3.848   7.336  17.631  0.00  0.00    +0.000 A 
ATOM     32  C   UNL     1       4.199   6.078  18.100  0.00  0.00    +0.000 A 
ATOM     33  C   UNL     1       3.447   5.459  19.115  0.00  0.00    +0.000 A 
ATOM     34  C   UNL     1       3.824   4.203  19.608  0.00  0.00    +0.000 A 
ATOM     35  C   UNL     1       3.062   3.587  20.588  0.00  0.00    +0.000 A 
ATOM     36  C   UNL     1       1.921   4.236  21.014  0.00  0.00    +0.000 A 
ATOM     37  N   UNL     1       1.548   5.470  20.595  0.00  0.00    +0.000 NA
ATOM     38  C   UNL     1       2.307   6.087  19.649  0.00  0.00    +0.000 A 
ENDBRANCH  27  29
ENDBRANCH  14  27
TORSDOF 5
ENDMDL
MODEL 4
REMARK VINA RESULT:      -8.3      2.362      4.202
REMARK  Name = 
REMARK  9 active torsions:
REMARK  status: ('A' for Active; 'I' for Inactive)
REMARK    1  A    between atoms: C_1  and  C_2
REMARK    2  A    between atoms: C_2  and  C_4
REMARK    3  A    between atoms: C_5  and  O_6
REMARK    4  A    between atoms: C_7  and  C_8
REMARK    5  A    between atoms: C_9  and  O_10
REMARK    6  A    between atoms: C_19  and  C_20
REMARK    7  A    between atoms: C_19  and  N_21
REMARK    8  A    between atoms: N_21  and  C_22
REMARK    9  A    between atoms: C_34  and  C_35
REMARK                            x       y       z     vdW  Elec       q    Type
REMARK                         _______ _______ _______ _____ _____    ______ ____
ROOT
ATOM      1  C   UNL     1      -3.549  13.899  23.617  0.00  0.00    +0.000 A 
ATOM      2  C   UNL     1      -3.016  14.848  24.490  0.00  0.00    +0.000 A 
ATOM      3  C   UNL     1      -1.968  15.704  24.087  0.00  0.00    +0.000 A 
ATOM      4  C   UNL     1      -1.281  16.560  25.127  0.00  0.00    +0.000 C 
ATOM      5  C   UNL     1      -1.460  15.605  22.763  0.00  0.00    +0.000 A 
ATOM      6  C   UNL     1      -1.871  14.570  21.913  0.00  0.00    +0.000 A 
ATOM      7  C   UNL     1      -2.899  13.733  22.399  0.00  0.00    +0.000 A 
ATOM      8  O   UNL     1      -2.990  12.552  21.708  0.00  0.00    +0.000 OA
ATOM      9  C   UNL     1      -2.005  12.550  20.733  0.00  0.00    +0.000 C 
ATOM     10  C   UNL     1      -2.224  11.762  19.678  0.00  0.00    +0.000 C 
ATOM     11  C   UNL     1      -1.379  11.863  18.470  0.00  0.00    +0.000 C 
ATOM     12  O   UNL     1      -1.615  11.240  17.447  0.00  0.00    +0.000 OA
ATOM     13  C   UNL     1      -0.194  12.731  18.717  0.00  0.00    +0.000 C 
ATOM     14  C   UNL     1       0.989  12.042  18.661  0.00  0.00    +0.000 C 
ATOM     15  C   UNL     1       2.321  12.506  19.251  0.00  0.00    +0.000 C 
ATOM     16  C   UNL     1      -0.621  14.028  19.454  0.00  0.00    +0.000 C 
ATOM     17  O   UNL     1      -0.757  15.085  18.849  0.00  0.00    +0.000 OA
ATOM     18  C   UNL     1      -1.026  13.755  20.904  0.00  0.00    +0.000 C 
ATOM     19  C   UNL     1       0.337  13.647  21.609  0.00  0.00    +0.000 C 
ENDROOT
BRANCH   1  21
ATOM     20  C   UNL     1      -6.056  13.264  23.652  0.00  0.00    +0.000 C 
ATOM     21  C   UNL     1      -4.636  12.996  24.077  0.00  0.00    +0.000 C 
ATOM     22  O   UNL     1      -4.358  12.111  24.889  0.00  0.00    +0.000 OA
ENDBRANCH   1  21
BRANCH   2  23
ATOM     23  O   UNL     1      -3.441  14.927  25.796  0.00  0.00    +0.000 OA
ATOM     24  H   UNL     1      -4.307  15.396  25.818  0.00  0.00    +0.000 HD
ENDBRANCH   2  23
BRANCH   5  25
ATOM     25  O   UNL     1      -0.437  16.409  22.347  0.00  0.00    +0.000 OA
ATOM     26  H   UNL     1      -0.776  17.298  22.154  0.00  0.00    +0.000 HD
ENDBRANCH   5  25
BRANCH  14  27
ATOM     27  N   UNL     1       1.086  10.704  18.239  0.00  0.00    +0.000 N 
ATOM     28  H   UNL     1       1.700  10.511  17.436  0.00  0.00    +0.000 HD
BRANCH  27  29
ATOM     29  C   UNL     1       1.283   9.600  19.123  0.00  0.00    +0.000 A 
ATOM     30  C   UNL     1       0.620   9.523  20.361  0.00  0.00    +0.000 A 
ATOM     31  C   UNL     1       0.724   8.408  21.169  0.00  0.00    +0.000 A 
ATOM     32  C   UNL     1       1.481   7.327  20.738  0.00  0.00    +0.000 A 
ATOM     33  C   UNL     1       2.147   7.373  19.499  0.00  0.00    +0.000 A 
ATOM     34  C   UNL     1       2.884   6.267  19.053  0.00  0.00    +0.000 A 
ATOM     35  C   UNL     1       3.561   6.329  17.844  0.00  0.00    +0.000 A 
ATOM     36  C   UNL     1       3.508   7.516  17.141  0.00  0.00    +0.000 A 
ATOM     37  N   UNL     1       2.771   8.589  17.518  0.00  0.00    +0.000 NA
ATOM     38  C   UNL     1       2.086   8.523  18.691  0.00  0.00    +0.000 A 
ENDBRANCH  27  29
ENDBRANCH  14  27
TORSDOF 5
ENDMDL
MODEL 5
REMARK VINA RESULT:      -8.3      2.616      4.378
REMARK  Name = 
REMARK  9 active torsions:
REMARK  status: ('A' for Active; 'I' for Inactive)
REMARK    1  A    between atoms: C_1  and  C_2
REMARK    2  A    between atoms: C_2  and  C_4
REMARK    3  A    between atoms: C_5  and  O_6
REMARK    4  A    between atoms: C_7  and  C_8
REMARK    5  A    between atoms: C_9  and  O_10
REMARK    6  A    between atoms: C_19  and  C_20
REMARK    7  A    between atoms: C_19  and  N_21
REMARK    8  A    between atoms: N_21  and  C_22
REMARK    9  A    between atoms: C_34  and  C_35
REMARK                            x       y       z     vdW  Elec       q    Type
REMARK                         _______ _______ _______ _____ _____    ______ ____
ROOT
ATOM      1  C   UNL     1      -3.996  12.634  20.523  0.00  0.00    +0.000 A 
ATOM      2  C   UNL     1      -4.319  12.905  21.853  0.00  0.00    +0.000 A 
ATOM      3  C   UNL     1      -3.343  12.830  22.871  0.00  0.00    +0.000 A 
ATOM      4  C   UNL     1      -3.784  12.917  24.315  0.00  0.00    +0.000 C 
ATOM      5  C   UNL     1      -2.006  12.489  22.529  0.00  0.00    +0.000 A 
ATOM      6  C   UNL     1      -1.683  12.072  21.231  0.00  0.00    +0.000 A 
ATOM      7  C   UNL     1      -2.720  12.141  20.275  0.00  0.00    +0.000 A 
ATOM      8  O   UNL     1      -2.461  11.389  19.159  0.00  0.00    +0.000 OA
ATOM      9  C   UNL     1      -1.234  10.770  19.335  0.00  0.00    +0.000 C 
ATOM     10  C   UNL     1      -0.591  10.412  18.222  0.00  0.00    +0.000 C 
ATOM     11  C   UNL     1       0.822   9.977  18.270  0.00  0.00    +0.000 C 
ATOM     12  O   UNL     1       1.475   9.749  17.264  0.00  0.00    +0.000 OA
ATOM     13  C   UNL     1       1.272   9.779  19.676  0.00  0.00    +0.000 C 
ATOM     14  C   UNL     1       1.567   8.471  19.958  0.00  0.00    +0.000 C 
ATOM     15  C   UNL     1       1.656   7.858  21.356  0.00  0.00    +0.000 C 
ATOM     16  C   UNL     1       0.814  10.968  20.561  0.00  0.00    +0.000 C 
ATOM     17  O   UNL     1       1.592  11.863  20.870  0.00  0.00    +0.000 OA
ATOM     18  C   UNL     1      -0.699  10.961  20.790  0.00  0.00    +0.000 C 
ATOM     19  C   UNL     1      -0.856   9.906  21.898  0.00  0.00    +0.000 C 
ENDROOT
BRANCH   1  21
ATOM     20  C   UNL     1      -5.305  11.500  18.602  0.00  0.00    +0.000 C 
ATOM     21  C   UNL     1      -5.050  12.699  19.477  0.00  0.00    +0.000 C 
ATOM     22  O   UNL     1      -5.615  13.777  19.281  0.00  0.00    +0.000 OA
ENDBRANCH   1  21
BRANCH   2  23
ATOM     23  O   UNL     1      -5.615  13.175  22.227  0.00  0.00    +0.000 OA
ATOM     24  H   UNL     1      -6.180  12.406  21.984  0.00  0.00    +0.000 HD
ENDBRANCH   2  23
BRANCH   5  25
ATOM     25  O   UNL     1      -1.042  12.395  23.492  0.00  0.00    +0.000 OA
ATOM     26  H   UNL     1      -1.288  12.939  24.257  0.00  0.00    +0.000 HD
ENDBRANCH   5  25
BRANCH  14  27
ATOM     27  N   UNL     1       1.613   7.459  18.982  0.00  0.00    +0.000 N 
ATOM     28  H   UNL     1       1.084   7.623  18.115  0.00  0.00    +0.000 HD
BRANCH  27  29
ATOM     29  C   UNL     1       2.812   6.808  18.561  0.00  0.00    +0.000 A 
ATOM     30  C   UNL     1       3.773   7.473  17.778  0.00  0.00    +0.000 A 
ATOM     31  C   UNL     1       4.981   6.884  17.461  0.00  0.00    +0.000 A 
ATOM     32  C   UNL     1       5.264   5.615  17.947  0.00  0.00    +0.000 A 
ATOM     33  C   UNL     1       4.326   4.931  18.741  0.00  0.00    +0.000 A 
ATOM     34  C   UNL     1       4.628   3.663  19.257  0.00  0.00    +0.000 A 
ATOM     35  C   UNL     1       3.688   2.983  20.016  0.00  0.00    +0.000 A 
ATOM     36  C   UNL     1       2.458   3.581  20.199  0.00  0.00    +0.000 A 
ATOM     37  N   UNL     1       2.144   4.823  19.755  0.00  0.00    +0.000 NA
ATOM     38  C   UNL     1       3.073   5.503  19.030  0.00  0.00    +0.000 A 
ENDBRANCH  27  29
ENDBRANCH  14  27
TORSDOF 5
ENDMDL
MODEL 6
REMARK VINA RESULT:      -8.2      2.522      4.042
REMARK  Name = 
REMARK  9 active torsions:
REMARK  status: ('A' for Active; 'I' for Inactive)
REMARK    1  A    between atoms: C_1  and  C_2
REMARK    2  A    between atoms: C_2  and  C_4
REMARK    3  A    between atoms: C_5  and  O_6
REMARK    4  A    between atoms: C_7  and  C_8
REMARK    5  A    between atoms: C_9  and  O_10
REMARK    6  A    between atoms: C_19  and  C_20
REMARK    7  A    between atoms: C_19  and  N_21
REMARK    8  A    between atoms: N_21  and  C_22
REMARK    9  A    between atoms: C_34  and  C_35
REMARK                            x       y       z     vdW  Elec       q    Type
REMARK                         _______ _______ _______ _____ _____    ______ ____
ROOT
ATOM      1  C   UNL     1      -4.068  12.593  20.364  0.00  0.00    +0.000 A 
ATOM      2  C   UNL     1      -4.438  12.947  21.662  0.00  0.00    +0.000 A 
ATOM      3  C   UNL     1      -3.487  12.993  22.705  0.00  0.00    +0.000 A 
ATOM      4  C   UNL     1      -3.969  13.169  24.127  0.00  0.00    +0.000 C 
ATOM      5  C   UNL     1      -2.128  12.689  22.421  0.00  0.00    +0.000 A 
ATOM      6  C   UNL     1      -1.752  12.191  21.166  0.00  0.00    +0.000 A 
ATOM      7  C   UNL     1      -2.766  12.141  20.184  0.00  0.00    +0.000 A 
ATOM      8  O   UNL     1      -2.445  11.319  19.134  0.00  0.00    +0.000 OA
ATOM      9  C   UNL     1      -1.197  10.772  19.386  0.00  0.00    +0.000 C 
ATOM     10  C   UNL     1      -0.509  10.361  18.318  0.00  0.00    +0.000 C 
ATOM     11  C   UNL     1       0.919   9.995  18.432  0.00  0.00    +0.000 C 
ATOM     12  O   UNL     1       1.608   9.722  17.462  0.00  0.00    +0.000 OA
ATOM     13  C   UNL     1       1.340   9.924  19.859  0.00  0.00    +0.000 C 
ATOM     14  C   UNL     1       1.685   8.655  20.247  0.00  0.00    +0.000 C 
ATOM     15  C   UNL     1       1.763   8.154  21.689  0.00  0.00    +0.000 C 
ATOM     16  C   UNL     1       0.807  11.154  20.640  0.00  0.00    +0.000 C 
ATOM     17  O   UNL     1       1.537  12.105  20.898  0.00  0.00    +0.000 OA
ATOM     18  C   UNL     1      -0.709  11.096  20.834  0.00  0.00    +0.000 C 
ATOM     19  C   UNL     1      -0.850  10.121  22.015  0.00  0.00    +0.000 C 
ENDROOT
BRANCH   1  21
ATOM     20  C   UNL     1      -5.286  11.254  18.515  0.00  0.00    +0.000 C 
ATOM     21  C   UNL     1      -5.095  12.530  19.292  0.00  0.00    +0.000 C 
ATOM     22  O   UNL     1      -5.692  13.567  18.992  0.00  0.00    +0.000 OA
ENDBRANCH   1  21
BRANCH   2  23
ATOM     23  O   UNL     1      -5.753  13.186  21.984  0.00  0.00    +0.000 OA
ATOM     24  H   UNL     1      -6.121  12.384  22.424  0.00  0.00    +0.000 HD
ENDBRANCH   2  23
BRANCH   5  25
ATOM     25  O   UNL     1      -1.187  12.712  23.410  0.00  0.00    +0.000 OA
ATOM     26  H   UNL     1      -1.607  12.924  24.259  0.00  0.00    +0.000 HD
ENDBRANCH   5  25
BRANCH  14  27
ATOM     27  N   UNL     1       1.800   7.577  19.352  0.00  0.00    +0.000 N 
ATOM     28  H   UNL     1       2.259   7.764  18.452  0.00  0.00    +0.000 HD
BRANCH  27  29
ATOM     29  C   UNL     1       2.248   6.273  19.726  0.00  0.00    +0.000 A 
ATOM     30  C   UNL     1       1.523   5.480  20.634  0.00  0.00    +0.000 A 
ATOM     31  C   UNL     1       1.895   4.180  20.914  0.00  0.00    +0.000 A 
ATOM     32  C   UNL     1       2.994   3.635  20.266  0.00  0.00    +0.000 A 
ATOM     33  C   UNL     1       3.731   4.402  19.345  0.00  0.00    +0.000 A 
ATOM     34  C   UNL     1       4.821   3.838  18.668  0.00  0.00    +0.000 A 
ATOM     35  C   UNL     1       5.560   4.608  17.783  0.00  0.00    +0.000 A 
ATOM     36  C   UNL     1       5.204   5.933  17.636  0.00  0.00    +0.000 A 
ATOM     37  N   UNL     1       4.130   6.502  18.238  0.00  0.00    +0.000 NA
ATOM     38  C   UNL     1       3.389   5.742  19.089  0.00  0.00    +0.000 A 
ENDBRANCH  27  29
ENDBRANCH  14  27
TORSDOF 5
ENDMDL
MODEL 7
REMARK VINA RESULT:      -8.0      2.479      3.834
REMARK  Name = 
REMARK  9 active torsions:
REMARK  status: ('A' for Active; 'I' for Inactive)
REMARK    1  A    between atoms: C_1  and  C_2
REMARK    2  A    between atoms: C_2  and  C_4
REMARK    3  A    between atoms: C_5  and  O_6
REMARK    4  A    between atoms: C_7  and  C_8
REMARK    5  A    between atoms: C_9  and  O_10
REMARK    6  A    between atoms: C_19  and  C_20
REMARK    7  A    between atoms: C_19  and  N_21
REMARK    8  A    between atoms: N_21  and  C_22
REMARK    9  A    between atoms: C_34  and  C_35
REMARK                            x       y       z     vdW  Elec       q    Type
REMARK                         _______ _______ _______ _____ _____    ______ ____
ROOT
ATOM      1  C   UNL     1      -4.020  13.755  21.315  0.00  0.00    +0.000 A 
ATOM      2  C   UNL     1      -4.105  14.265  22.611  0.00  0.00    +0.000 A 
ATOM      3  C   UNL     1      -2.980  14.284  23.464  0.00  0.00    +0.000 A 
ATOM      4  C   UNL     1      -3.171  14.641  24.920  0.00  0.00    +0.000 C 
ATOM      5  C   UNL     1      -1.736  13.790  22.985  0.00  0.00    +0.000 A 
ATOM      6  C   UNL     1      -1.653  13.141  21.745  0.00  0.00    +0.000 A 
ATOM      7  C   UNL     1      -2.829  13.132  20.963  0.00  0.00    +0.000 A 
ATOM      8  O   UNL     1      -2.795  12.188  19.969  0.00  0.00    +0.000 OA
ATOM      9  C   UNL     1      -1.587  11.514  20.060  0.00  0.00    +0.000 C 
ATOM     10  C   UNL     1      -1.155  10.930  18.941  0.00  0.00    +0.000 C 
ATOM     11  C   UNL     1       0.223  10.401  18.845  0.00  0.00    +0.000 C 
ATOM     12  O   UNL     1       0.689   9.961  17.807  0.00  0.00    +0.000 OA
ATOM     13  C   UNL     1       0.888  10.403  20.178  0.00  0.00    +0.000 C 
ATOM     14  C   UNL     1       1.162   9.141  20.636  0.00  0.00    +0.000 C 
ATOM     15  C   UNL     1       1.450   8.761  22.088  0.00  0.00    +0.000 C 
ATOM     16  C   UNL     1       0.642  11.753  20.901  0.00  0.00    +0.000 C 
ATOM     17  O   UNL     1       1.503  12.625  20.925  0.00  0.00    +0.000 OA
ATOM     18  C   UNL     1      -0.811  11.901  21.359  0.00  0.00    +0.000 C 
ATOM     19  C   UNL     1      -0.835  11.057  22.645  0.00  0.00    +0.000 C 
ENDROOT
BRANCH   1  21
ATOM     20  C   UNL     1      -5.897  12.412  20.145  0.00  0.00    +0.000 C 
ATOM     21  C   UNL     1      -5.228  13.727  20.449  0.00  0.00    +0.000 C 
ATOM     22  O   UNL     1      -5.586  14.776  19.911  0.00  0.00    +0.000 OA
ENDBRANCH   1  21
BRANCH   2  23
ATOM     23  O   UNL     1      -5.307  14.692  23.127  0.00  0.00    +0.000 OA
ATOM     24  H   UNL     1      -5.900  14.941  22.381  0.00  0.00    +0.000 HD
ENDBRANCH   2  23
BRANCH   5  25
ATOM     25  O   UNL     1      -0.633  13.782  23.788  0.00  0.00    +0.000 OA
ATOM     26  H   UNL     1      -0.904  13.759  24.720  0.00  0.00    +0.000 HD
ENDBRANCH   5  25
BRANCH  14  27
ATOM     27  N   UNL     1       0.996   7.982  19.856  0.00  0.00    +0.000 N 
ATOM     28  H   UNL     1       0.860   8.115  18.846  0.00  0.00    +0.000 HD
BRANCH  27  29
ATOM     29  C   UNL     1       1.820   6.821  19.965  0.00  0.00    +0.000 A 
ATOM     30  C   UNL     1       1.560   5.823  20.922  0.00  0.00    +0.000 A 
ATOM     31  C   UNL     1       2.289   4.650  20.958  0.00  0.00    +0.000 A 
ATOM     32  C   UNL     1       3.284   4.441  20.014  0.00  0.00    +0.000 A 
ATOM     33  C   UNL     1       3.558   5.417  19.039  0.00  0.00    +0.000 A 
ATOM     34  C   UNL     1       4.541   5.188  18.066  0.00  0.00    +0.000 A 
ATOM     35  C   UNL     1       4.825   6.166  17.126  0.00  0.00    +0.000 A 
ATOM     36  C   UNL     1       4.139   7.361  17.217  0.00  0.00    +0.000 A 
ATOM     37  N   UNL     1       3.151   7.603  18.114  0.00  0.00    +0.000 NA
ATOM     38  C   UNL     1       2.854   6.636  19.023  0.00  0.00    +0.000 A 
ENDBRANCH  27  29
ENDBRANCH  14  27
TORSDOF 5
ENDMDL
MODEL 8
REMARK VINA RESULT:      -7.9      3.290      4.912
REMARK  Name = 
REMARK  9 active torsions:
REMARK  status: ('A' for Active; 'I' for Inactive)
REMARK    1  A    between atoms: C_1  and  C_2
REMARK    2  A    between atoms: C_2  and  C_4
REMARK    3  A    between atoms: C_5  and  O_6
REMARK    4  A    between atoms: C_7  and  C_8
REMARK    5  A    between atoms: C_9  and  O_10
REMARK    6  A    between atoms: C_19  and  C_20
REMARK    7  A    between atoms: C_19  and  N_21
REMARK    8  A    between atoms: N_21  and  C_22
REMARK    9  A    between atoms: C_34  and  C_35
REMARK                            x       y       z     vdW  Elec       q    Type
REMARK                         _______ _______ _______ _____ _____    ______ ____
ROOT
ATOM      1  C   UNL     1      -5.471  13.819  22.365  0.00  0.00    +0.000 A 
ATOM      2  C   UNL     1      -5.286  14.656  23.465  0.00  0.00    +0.000 A 
ATOM      3  C   UNL     1      -4.142  15.477  23.573  0.00  0.00    +0.000 A 
ATOM      4  C   UNL     1      -3.880  16.198  24.876  0.00  0.00    +0.000 C 
ATOM      5  C   UNL     1      -3.174  15.461  22.533  0.00  0.00    +0.000 A 
ATOM      6  C   UNL     1      -3.258  14.529  21.490  0.00  0.00    +0.000 A 
ATOM      7  C   UNL     1      -4.414  13.717  21.468  0.00  0.00    +0.000 A 
ATOM      8  O   UNL     1      -4.266  12.607  20.677  0.00  0.00    +0.000 OA
ATOM      9  C   UNL     1      -2.985  12.628  20.147  0.00  0.00    +0.000 C 
ATOM     10  C   UNL     1      -2.809  11.947  19.012  0.00  0.00    +0.000 C 
ATOM     11  C   UNL     1      -1.567  12.098  18.224  0.00  0.00    +0.000 C 
ATOM     12  O   UNL     1      -1.414  11.580  17.130  0.00  0.00    +0.000 OA
ATOM     13  C   UNL     1      -0.543  12.869  18.984  0.00  0.00    +0.000 C 
ATOM     14  C   UNL     1       0.557  12.116  19.304  0.00  0.00    +0.000 C 
ATOM     15  C   UNL     1       1.577  12.446  20.394  0.00  0.00    +0.000 C 
ATOM     16  C   UNL     1      -1.185  14.121  19.636  0.00  0.00    +0.000 C 
ATOM     17  O   UNL     1      -1.056  15.233  19.134  0.00  0.00    +0.000 OA
ATOM     18  C   UNL     1      -2.115  13.752  20.793  0.00  0.00    +0.000 C 
ATOM     19  C   UNL     1      -1.123  13.502  21.941  0.00  0.00    +0.000 C 
ENDROOT
BRANCH   1  21
ATOM     20  C   UNL     1      -7.786  13.293  21.335  0.00  0.00    +0.000 C 
ATOM     21  C   UNL     1      -6.674  12.948  22.291  0.00  0.00    +0.000 C 
ATOM     22  O   UNL     1      -6.777  12.022  23.098  0.00  0.00    +0.000 OA
ENDBRANCH   1  21
BRANCH   2  23
ATOM     23  O   UNL     1      -6.171  14.649  24.518  0.00  0.00    +0.000 OA
ATOM     24  H   UNL     1      -7.027  15.029  24.213  0.00  0.00    +0.000 HD
ENDBRANCH   2  23
BRANCH   5  25
ATOM     25  O   UNL     1      -2.051  16.233  22.613  0.00  0.00    +0.000 OA
ATOM     26  H   UNL     1      -2.049  16.725  23.450  0.00  0.00    +0.000 HD
ENDBRANCH   5  25
BRANCH  14  27
ATOM     27  N   UNL     1       0.774  10.815  18.816  0.00  0.00    +0.000 N 
ATOM     28  H   UNL     1       1.452  10.711  18.050  0.00  0.00    +0.000 HD
BRANCH  27  29
ATOM     29  C   UNL     1       0.985   9.674  19.648  0.00  0.00    +0.000 A 
ATOM     30  C   UNL     1       0.307   9.522  20.871  0.00  0.00    +0.000 A 
ATOM     31  C   UNL     1       0.426   8.371  21.626  0.00  0.00    +0.000 A 
ATOM     32  C   UNL     1       1.214   7.331  21.154  0.00  0.00    +0.000 A 
ATOM     33  C   UNL     1       1.895   7.451  19.928  0.00  0.00    +0.000 A 
ATOM     34  C   UNL     1       2.663   6.386  19.439  0.00  0.00    +0.000 A 
ATOM     35  C   UNL     1       3.353   6.521  18.245  0.00  0.00    +0.000 A 
ATOM     36  C   UNL     1       3.282   7.739  17.599  0.00  0.00    +0.000 A 
ATOM     37  N   UNL     1       2.515   8.777  18.017  0.00  0.00    +0.000 NA
ATOM     38  C   UNL     1       1.818   8.638  19.176  0.00  0.00    +0.000 A 
ENDBRANCH  27  29
ENDBRANCH  14  27
TORSDOF 5
ENDMDL
MODEL 9
REMARK VINA RESULT:      -7.8      2.152      4.176
REMARK  Name = 
REMARK  9 active torsions:
REMARK  status: ('A' for Active; 'I' for Inactive)
REMARK    1  A    between atoms: C_1  and  C_2
REMARK    2  A    between atoms: C_2  and  C_4
REMARK    3  A    between atoms: C_5  and  O_6
REMARK    4  A    between atoms: C_7  and  C_8
REMARK    5  A    between atoms: C_9  and  O_10
REMARK    6  A    between atoms: C_19  and  C_20
REMARK    7  A    between atoms: C_19  and  N_21
REMARK    8  A    between atoms: N_21  and  C_22
REMARK    9  A    between atoms: C_34  and  C_35
REMARK                            x       y       z     vdW  Elec       q    Type
REMARK                         _______ _______ _______ _____ _____    ______ ____
ROOT
ATOM      1  C   UNL     1      -2.791  15.394  23.530  0.00  0.00    +0.000 A 
ATOM      2  C   UNL     1      -2.049  16.351  24.222  0.00  0.00    +0.000 A 
ATOM      3  C   UNL     1      -0.943  16.992  23.621  0.00  0.00    +0.000 A 
ATOM      4  C   UNL     1      -0.044  17.856  24.476  0.00  0.00    +0.000 C 
ATOM      5  C   UNL     1      -0.594  16.667  22.282  0.00  0.00    +0.000 A 
ATOM      6  C   UNL     1      -1.226  15.610  21.613  0.00  0.00    +0.000 A 
ATOM      7  C   UNL     1      -2.301  14.993  22.292  0.00  0.00    +0.000 A 
ATOM      8  O   UNL     1      -2.619  13.765  21.773  0.00  0.00    +0.000 OA
ATOM      9  C   UNL     1      -1.750  13.506  20.725  0.00  0.00    +0.000 C 
ATOM     10  C   UNL     1      -2.182  12.639  19.805  0.00  0.00    +0.000 C 
ATOM     11  C   UNL     1      -1.461  12.473  18.524  0.00  0.00    +0.000 C 
ATOM     12  O   UNL     1      -1.884  11.775  17.617  0.00  0.00    +0.000 OA
ATOM     13  C   UNL     1      -0.152  13.184  18.552  0.00  0.00    +0.000 C 
ATOM     14  C   UNL     1       0.916  12.328  18.483  0.00  0.00    +0.000 C 
ATOM     15  C   UNL     1       2.352  12.660  18.890  0.00  0.00    +0.000 C 
ATOM     16  C   UNL     1      -0.324  14.606  19.147  0.00  0.00    +0.000 C 
ATOM     17  O   UNL     1      -0.380  15.593  18.423  0.00  0.00    +0.000 OA
ATOM     18  C   UNL     1      -0.608  14.567  20.650  0.00  0.00    +0.000 C 
ATOM     19  C   UNL     1       0.795  14.347  21.242  0.00  0.00    +0.000 C 
ENDROOT
BRANCH   1  21
ATOM     20  C   UNL     1      -5.344  15.095  23.822  0.00  0.00    +0.000 C 
ATOM     21  C   UNL     1      -3.935  14.719  24.197  0.00  0.00    +0.000 C 
ATOM     22  O   UNL     1      -3.696  13.942  25.124  0.00  0.00    +0.000 OA
ENDBRANCH   1  21
BRANCH   2  23
ATOM     23  O   UNL     1      -2.320  16.644  25.538  0.00  0.00    +0.000 OA
ATOM     24  H   UNL     1      -3.224  16.316  25.754  0.00  0.00    +0.000 HD
ENDBRANCH   2  23
BRANCH   5  25
ATOM     25  O   UNL     1       0.477  17.259  21.676  0.00  0.00    +0.000 OA
ATOM     26  H   UNL     1       1.045  16.581  21.276  0.00  0.00    +0.000 HD
ENDBRANCH   5  25
BRANCH  14  27
ATOM     27  N   UNL     1       0.790  10.950  18.234  0.00  0.00    +0.000 N 
ATOM     28  H   UNL     1       1.227  10.589  17.376  0.00  0.00    +0.000 HD
BRANCH  27  29
ATOM     29  C   UNL     1       1.017   9.937  19.214  0.00  0.00    +0.000 A 
ATOM     30  C   UNL     1       0.388   9.977  20.471  0.00  0.00    +0.000 A 
ATOM     31  C   UNL     1       0.520   8.945  21.379  0.00  0.00    +0.000 A 
ATOM     32  C   UNL     1       1.271   7.830  21.032  0.00  0.00    +0.000 A 
ATOM     33  C   UNL     1       1.902   7.758  19.777  0.00  0.00    +0.000 A 
ATOM     34  C   UNL     1       2.633   6.617  19.418  0.00  0.00    +0.000 A 
ATOM     35  C   UNL     1       3.276   6.565  18.192  0.00  0.00    +0.000 A 
ATOM     36  C   UNL     1       3.198   7.678  17.380  0.00  0.00    +0.000 A 
ATOM     37  N   UNL     1       2.465   8.781  17.672  0.00  0.00    +0.000 NA
ATOM     38  C   UNL     1       1.813   8.826  18.865  0.00  0.00    +0.000 A 
ENDBRANCH  27  29
ENDBRANCH  14  27
TORSDOF 5
ENDMDL
