MODEL 1
REMARK VINA RESULT:      -6.9      0.000      0.000
REMARK  Name = 
REMARK  2 active torsions:
REMARK  status: ('A' for Active; 'I' for Inactive)
REMARK    1  A    between atoms: N_14  and  C_15
REMARK    2  A    between atoms: C_15  and  C_16
REMARK                            x       y       z     vdW  Elec       q    Type
REMARK                         _______ _______ _______ _____ _____    ______ ____
ROOT
ATOM      1  O   UNL     1       2.991   6.482  17.727  0.00  0.00    +0.000 OA
ATOM      2  C   UNL     1       2.532   6.812  18.825  0.00  0.00    +0.000 C 
ATOM      3  N   UNL     1       2.590   5.870  19.808  0.00  0.00    +0.000 N 
ATOM      4  C   UNL     1       3.259   4.594  19.459  0.00  0.00    +0.000 C 
ATOM      5  C   UNL     1       2.200   3.532  19.685  0.00  0.00    +0.000 C 
ATOM      6  C   UNL     1       1.526   4.067  20.936  0.00  0.00    +0.000 C 
ATOM      7  C   UNL     1       1.485   5.587  20.708  0.00  0.00    +0.000 C 
ATOM      8  N   UNL     1       2.030   8.075  18.965  0.00  0.00    +0.000 N 
ATOM      9  C   UNL     1       1.983   8.927  17.767  0.00  0.00    +0.000 C 
ATOM     10  C   UNL     1       1.910  10.346  18.267  0.00  0.00    +0.000 C 
ATOM     11  C   UNL     1       0.989  10.154  19.475  0.00  0.00    +0.000 C 
ATOM     12  C   UNL     1      -0.474   9.883  19.048  0.00  0.00    +0.000 C 
ATOM     13  C   UNL     1      -0.930  11.249  18.580  0.00  0.00    +0.000 C 
ATOM     14  N   UNL     1      -0.351  12.091  19.591  0.00  0.00    +0.000 N 
ATOM     15  C   UNL     1       0.770  11.490  20.195  0.00  0.00    +0.000 C 
ATOM     16  O   UNL     1       1.446  11.951  21.097  0.00  0.00    +0.000 OA
ATOM     17  C   UNL     1       1.655   8.914  20.130  0.00  0.00    +0.000 C 
ENDROOT
BRANCH  14  18
ATOM     18  C   UNL     1      -1.062  13.290  20.026  0.00  0.00    +0.000 C 
BRANCH  18  19
ATOM     19  C   UNL     1      -2.110  13.062  21.089  0.00  0.00    +0.000 A 
ATOM     20  C   UNL     1      -1.726  12.573  22.333  0.00  0.00    +0.000 A 
ATOM     21  C   UNL     1      -2.709  12.282  23.275  0.00  0.00    +0.000 A 
ATOM     22  C   UNL     1      -4.047  12.485  22.957  0.00  0.00    +0.000 A 
ATOM     23  C   UNL     1      -4.350  12.980  21.701  0.00  0.00    +0.000 A 
ATOM     24  N   UNL     1      -3.412  13.275  20.756  0.00  0.00    +0.000 NA
ENDBRANCH  18  19
ENDBRANCH  14  18
TORSDOF 2
ENDMDL
MODEL 2
REMARK VINA RESULT:      -6.9      0.612      1.006
REMARK  Name = 
REMARK  2 active torsions:
REMARK  status: ('A' for Active; 'I' for Inactive)
REMARK    1  A    between atoms: N_14  and  C_15
REMARK    2  A    between atoms: C_15  and  C_16
REMARK                            x       y       z     vdW  Elec       q    Type
REMARK                         _______ _______ _______ _____ _____    ______ ____
ROOT
ATOM      1  O   UNL     1       3.007   6.770  17.750  0.00  0.00    +0.000 OA
ATOM      2  C   UNL     1       2.513   7.047  18.849  0.00  0.00    +0.000 C 
ATOM      3  N   UNL     1       2.585   6.076  19.801  0.00  0.00    +0.000 N 
ATOM      4  C   UNL     1       3.306   4.836  19.426  0.00  0.00    +0.000 C 
ATOM      5  C   UNL     1       2.282   3.731  19.594  0.00  0.00    +0.000 C 
ATOM      6  C   UNL     1       1.563   4.200  20.847  0.00  0.00    +0.000 C 
ATOM      7  C   UNL     1       1.472   5.724  20.668  0.00  0.00    +0.000 C 
ATOM      8  N   UNL     1       1.963   8.287  19.018  0.00  0.00    +0.000 N 
ATOM      9  C   UNL     1       1.911   9.176  17.848  0.00  0.00    +0.000 C 
ATOM     10  C   UNL     1       1.777  10.574  18.392  0.00  0.00    +0.000 C 
ATOM     11  C   UNL     1       0.838  10.309  19.572  0.00  0.00    +0.000 C 
ATOM     12  C   UNL     1      -0.605  10.002  19.105  0.00  0.00    +0.000 C 
ATOM     13  C   UNL     1      -1.100  11.365  18.671  0.00  0.00    +0.000 C 
ATOM     14  N   UNL     1      -0.573  12.194  19.721  0.00  0.00    +0.000 N 
ATOM     15  C   UNL     1       0.556  11.612  20.330  0.00  0.00    +0.000 C 
ATOM     16  O   UNL     1       1.196  12.067  21.262  0.00  0.00    +0.000 OA
ATOM     17  C   UNL     1       1.534   9.073  20.201  0.00  0.00    +0.000 C 
ENDROOT
BRANCH  14  18
ATOM     18  C   UNL     1      -1.335  13.352  20.179  0.00  0.00    +0.000 C 
BRANCH  18  19
ATOM     19  C   UNL     1      -2.385  13.054  21.223  0.00  0.00    +0.000 A 
ATOM     20  C   UNL     1      -3.721  12.975  20.846  0.00  0.00    +0.000 A 
ATOM     21  C   UNL     1      -4.690  12.789  21.828  0.00  0.00    +0.000 A 
ATOM     22  C   UNL     1      -4.305  12.684  23.160  0.00  0.00    +0.000 A 
ATOM     23  C   UNL     1      -2.956  12.766  23.457  0.00  0.00    +0.000 A 
ATOM     24  N   UNL     1      -1.983  12.948  22.519  0.00  0.00    +0.000 NA
ENDBRANCH  18  19
ENDBRANCH  14  18
TORSDOF 2
ENDMDL
MODEL 3
REMARK VINA RESULT:      -6.7      2.416      8.004
REMARK  Name = 
REMARK  2 active torsions:
REMARK  status: ('A' for Active; 'I' for Inactive)
REMARK    1  A    between atoms: N_14  and  C_15
REMARK    2  A    between atoms: C_15  and  C_16
REMARK                            x       y       z     vdW  Elec       q    Type
REMARK                         _______ _______ _______ _____ _____    ______ ____
ROOT
ATOM      1  O   UNL     1      -1.506  13.448  18.762  0.00  0.00    +0.000 OA
ATOM      2  C   UNL     1      -0.482  13.184  19.402  0.00  0.00    +0.000 C 
ATOM      3  N   UNL     1       0.089  14.222  20.073  0.00  0.00    +0.000 N 
ATOM      4  C   UNL     1      -0.624  15.520  20.012  0.00  0.00    +0.000 C 
ATOM      5  C   UNL     1       0.379  16.480  19.402  0.00  0.00    +0.000 C 
ATOM      6  C   UNL     1       1.661  16.007  20.064  0.00  0.00    +0.000 C 
ATOM      7  C   UNL     1       1.520  14.476  20.082  0.00  0.00    +0.000 C 
ATOM      8  N   UNL     1      -0.028  11.895  19.396  0.00  0.00    +0.000 N 
ATOM      9  C   UNL     1      -0.738  10.925  18.548  0.00  0.00    +0.000 C 
ATOM     10  C   UNL     1      -0.410   9.565  19.106  0.00  0.00    +0.000 C 
ATOM     11  C   UNL     1       1.060   9.780  19.480  0.00  0.00    +0.000 C 
ATOM     12  C   UNL     1       1.969   9.848  18.230  0.00  0.00    +0.000 C 
ATOM     13  C   UNL     1       2.016   8.401  17.787  0.00  0.00    +0.000 C 
ATOM     14  N   UNL     1       2.150   7.732  19.053  0.00  0.00    +0.000 N 
ATOM     15  C   UNL     1       1.639   8.509  20.112  0.00  0.00    +0.000 C 
ATOM     16  O   UNL     1       1.639   8.217  21.294  0.00  0.00    +0.000 OA
ATOM     17  C   UNL     1       0.957  11.144  20.213  0.00  0.00    +0.000 C 
ENDROOT
BRANCH  14  18
ATOM     18  C   UNL     1       2.950   6.515  19.147  0.00  0.00    +0.000 C 
BRANCH  18  19
ATOM     19  C   UNL     1       2.157   5.237  19.279  0.00  0.00    +0.000 A 
ATOM     20  C   UNL     1       1.746   4.815  20.539  0.00  0.00    +0.000 A 
ATOM     21  C   UNL     1       1.093   3.591  20.660  0.00  0.00    +0.000 A 
ATOM     22  C   UNL     1       0.864   2.820  19.527  0.00  0.00    +0.000 A 
ATOM     23  C   UNL     1       1.297   3.309  18.307  0.00  0.00    +0.000 A 
ATOM     24  N   UNL     1       1.940   4.503  18.154  0.00  0.00    +0.000 NA
ENDBRANCH  18  19
ENDBRANCH  14  18
TORSDOF 2
ENDMDL
MODEL 4
REMARK VINA RESULT:      -6.6      3.204      9.197
REMARK  Name = 
REMARK  2 active torsions:
REMARK  status: ('A' for Active; 'I' for Inactive)
REMARK    1  A    between atoms: N_14  and  C_15
REMARK    2  A    between atoms: C_15  and  C_16
REMARK                            x       y       z     vdW  Elec       q    Type
REMARK                         _______ _______ _______ _____ _____    ______ ____
ROOT
ATOM      1  O   UNL     1      -0.293   8.227  21.628  0.00  0.00    +0.000 OA
ATOM      2  C   UNL     1       0.635   8.476  20.850  0.00  0.00    +0.000 C 
ATOM      3  N   UNL     1       0.806   9.786  20.520  0.00  0.00    +0.000 N 
ATOM      4  C   UNL     1      -0.095  10.757  21.186  0.00  0.00    +0.000 C 
ATOM      5  C   UNL     1      -0.819  11.450  20.049  0.00  0.00    +0.000 C 
ATOM      6  C   UNL     1       0.302  11.571  19.032  0.00  0.00    +0.000 C 
ATOM      7  C   UNL     1       1.060  10.240  19.163  0.00  0.00    +0.000 C 
ATOM      8  N   UNL     1       1.408   7.438  20.410  0.00  0.00    +0.000 N 
ATOM      9  C   UNL     1       1.021   6.079  20.817  0.00  0.00    +0.000 C 
ATOM     10  C   UNL     1       2.258   5.232  20.671  0.00  0.00    +0.000 C 
ATOM     11  C   UNL     1       2.842   5.836  19.390  0.00  0.00    +0.000 C 
ATOM     12  C   UNL     1       2.023   5.437  18.139  0.00  0.00    +0.000 C 
ATOM     13  C   UNL     1       2.412   3.986  17.949  0.00  0.00    +0.000 C 
ATOM     14  N   UNL     1       3.824   4.045  18.210  0.00  0.00    +0.000 N 
ATOM     15  C   UNL     1       4.160   5.142  19.027  0.00  0.00    +0.000 C 
ATOM     16  O   UNL     1       5.278   5.463  19.391  0.00  0.00    +0.000 OA
ATOM     17  C   UNL     1       2.719   7.347  19.721  0.00  0.00    +0.000 C 
ENDROOT
BRANCH  14  18
ATOM     18  C   UNL     1       4.733   3.173  17.471  0.00  0.00    +0.000 C 
BRANCH  18  19
ATOM     19  C   UNL     1       5.480   3.839  16.342  0.00  0.00    +0.000 A 
ATOM     20  C   UNL     1       4.931   3.839  15.064  0.00  0.00    +0.000 A 
ATOM     21  C   UNL     1       5.668   4.377  14.012  0.00  0.00    +0.000 A 
ATOM     22  C   UNL     1       6.931   4.903  14.258  0.00  0.00    +0.000 A 
ATOM     23  C   UNL     1       7.408   4.873  15.557  0.00  0.00    +0.000 A 
ATOM     24  N   UNL     1       6.712   4.353  16.608  0.00  0.00    +0.000 NA
ENDBRANCH  18  19
ENDBRANCH  14  18
TORSDOF 2
ENDMDL
MODEL 5
REMARK VINA RESULT:      -6.5      1.570      2.625
REMARK  Name = 
REMARK  2 active torsions:
REMARK  status: ('A' for Active; 'I' for Inactive)
REMARK    1  A    between atoms: N_14  and  C_15
REMARK    2  A    between atoms: C_15  and  C_16
REMARK                            x       y       z     vdW  Elec       q    Type
REMARK                         _______ _______ _______ _____ _____    ______ ____
ROOT
ATOM      1  O   UNL     1       3.128   6.514  17.801  0.00  0.00    +0.000 OA
ATOM      2  C   UNL     1       2.601   6.792  18.884  0.00  0.00    +0.000 C 
ATOM      3  N   UNL     1       2.663   5.831  19.847  0.00  0.00    +0.000 N 
ATOM      4  C   UNL     1       3.414   4.600  19.502  0.00  0.00    +0.000 C 
ATOM      5  C   UNL     1       2.403   3.480  19.653  0.00  0.00    +0.000 C 
ATOM      6  C   UNL     1       1.645   3.948  20.883  0.00  0.00    +0.000 C 
ATOM      7  C   UNL     1       1.534   5.468  20.687  0.00  0.00    +0.000 C 
ATOM      8  N   UNL     1       2.026   8.024  19.027  0.00  0.00    +0.000 N 
ATOM      9  C   UNL     1       1.990   8.902  17.847  0.00  0.00    +0.000 C 
ATOM     10  C   UNL     1       1.820  10.302  18.375  0.00  0.00    +0.000 C 
ATOM     11  C   UNL     1       0.854  10.033  19.532  0.00  0.00    +0.000 C 
ATOM     12  C   UNL     1      -0.571   9.697  19.030  0.00  0.00    +0.000 C 
ATOM     13  C   UNL     1      -1.076  11.048  18.572  0.00  0.00    +0.000 C 
ATOM     14  N   UNL     1      -0.591  11.894  19.627  0.00  0.00    +0.000 N 
ATOM     15  C   UNL     1       0.531  11.337  20.271  0.00  0.00    +0.000 C 
ATOM     16  O   UNL     1       1.139  11.811  21.215  0.00  0.00    +0.000 OA
ATOM     17  C   UNL     1       1.553   8.813  20.191  0.00  0.00    +0.000 C 
ENDROOT
BRANCH  14  18
ATOM     18  C   UNL     1      -1.384  13.044  20.054  0.00  0.00    +0.000 C 
BRANCH  18  19
ATOM     19  C   UNL     1      -0.681  14.376  19.957  0.00  0.00    +0.000 A 
ATOM     20  C   UNL     1      -0.092  14.752  18.754  0.00  0.00    +0.000 A 
ATOM     21  C   UNL     1       0.630  15.942  18.699  0.00  0.00    +0.000 A 
ATOM     22  C   UNL     1       0.746  16.727  19.840  0.00  0.00    +0.000 A 
ATOM     23  C   UNL     1       0.127  16.291  20.998  0.00  0.00    +0.000 A 
ATOM     24  N   UNL     1      -0.586  15.131  21.085  0.00  0.00    +0.000 NA
ENDBRANCH  18  19
ENDBRANCH  14  18
TORSDOF 2
ENDMDL
MODEL 6
REMARK VINA RESULT:      -6.5      2.315      8.005
REMARK  Name = 
REMARK  2 active torsions:
REMARK  status: ('A' for Active; 'I' for Inactive)
REMARK    1  A    between atoms: N_14  and  C_15
REMARK    2  A    between atoms: C_15  and  C_16
REMARK                            x       y       z     vdW  Elec       q    Type
REMARK                         _______ _______ _______ _____ _____    ______ ____
ROOT
ATOM      1  O   UNL     1      -1.647  13.445  18.952  0.00  0.00    +0.000 OA
ATOM      2  C   UNL     1      -0.616  13.178  19.580  0.00  0.00    +0.000 C 
ATOM      3  N   UNL     1      -0.073  14.197  20.303  0.00  0.00    +0.000 N 
ATOM      4  C   UNL     1      -0.822  15.476  20.304  0.00  0.00    +0.000 C 
ATOM      5  C   UNL     1       0.155  16.492  19.744  0.00  0.00    +0.000 C 
ATOM      6  C   UNL     1       1.450  16.022  20.383  0.00  0.00    +0.000 C 
ATOM      7  C   UNL     1       1.351  14.489  20.325  0.00  0.00    +0.000 C 
ATOM      8  N   UNL     1      -0.126  11.904  19.511  0.00  0.00    +0.000 N 
ATOM      9  C   UNL     1      -0.809  10.958  18.615  0.00  0.00    +0.000 C 
ATOM     10  C   UNL     1      -0.444   9.582  19.105  0.00  0.00    +0.000 C 
ATOM     11  C   UNL     1       1.019   9.818  19.491  0.00  0.00    +0.000 C 
ATOM     12  C   UNL     1       1.926   9.972  18.246  0.00  0.00    +0.000 C 
ATOM     13  C   UNL     1       2.013   8.551  17.733  0.00  0.00    +0.000 C 
ATOM     14  N   UNL     1       2.165   7.825  18.964  0.00  0.00    +0.000 N 
ATOM     15  C   UNL     1       1.634   8.533  20.059  0.00  0.00    +0.000 C 
ATOM     16  O   UNL     1       1.642   8.183  21.226  0.00  0.00    +0.000 OA
ATOM     17  C   UNL     1       0.879  11.141  20.290  0.00  0.00    +0.000 C 
ENDROOT
BRANCH  14  18
ATOM     18  C   UNL     1       2.999   6.627  18.998  0.00  0.00    +0.000 C 
BRANCH  18  19
ATOM     19  C   UNL     1       2.249   5.332  19.199  0.00  0.00    +0.000 A 
ATOM     20  C   UNL     1       1.904   4.563  18.092  0.00  0.00    +0.000 A 
ATOM     21  C   UNL     1       1.135   3.417  18.280  0.00  0.00    +0.000 A 
ATOM     22  C   UNL     1       0.732   3.064  19.563  0.00  0.00    +0.000 A 
ATOM     23  C   UNL     1       1.120   3.875  20.615  0.00  0.00    +0.000 A 
ATOM     24  N   UNL     1       1.872   5.004  20.465  0.00  0.00    +0.000 NA
ENDBRANCH  18  19
ENDBRANCH  14  18
TORSDOF 2
ENDMDL
MODEL 7
REMARK VINA RESULT:      -6.5      4.370      9.860
REMARK  Name = 
REMARK  2 active torsions:
REMARK  status: ('A' for Active; 'I' for Inactive)
REMARK    1  A    between atoms: N_14  and  C_15
REMARK    2  A    between atoms: C_15  and  C_16
REMARK                            x       y       z     vdW  Elec       q    Type
REMARK                         _______ _______ _______ _____ _____    ______ ____
ROOT
ATOM      1  O   UNL     1       1.265   7.383  20.786  0.00  0.00    +0.000 OA
ATOM      2  C   UNL     1       1.858   7.800  19.785  0.00  0.00    +0.000 C 
ATOM      3  N   UNL     1       1.450   9.007  19.304  0.00  0.00    +0.000 N 
ATOM      4  C   UNL     1       0.395   9.703  20.079  0.00  0.00    +0.000 C 
ATOM      5  C   UNL     1      -0.744   9.886  19.096  0.00  0.00    +0.000 C 
ATOM      6  C   UNL     1       0.026  10.211  17.828  0.00  0.00    +0.000 C 
ATOM      7  C   UNL     1       1.244   9.274  17.891  0.00  0.00    +0.000 C 
ATOM      8  N   UNL     1       2.867   7.037  19.266  0.00  0.00    +0.000 N 
ATOM      9  C   UNL     1       3.114   5.723  19.879  0.00  0.00    +0.000 C 
ATOM     10  C   UNL     1       4.526   5.351  19.511  0.00  0.00    +0.000 C 
ATOM     11  C   UNL     1       4.575   5.884  18.077  0.00  0.00    +0.000 C 
ATOM     12  C   UNL     1       3.745   5.010  17.107  0.00  0.00    +0.000 C 
ATOM     13  C   UNL     1       4.612   3.777  16.962  0.00  0.00    +0.000 C 
ATOM     14  N   UNL     1       5.917   4.372  16.861  0.00  0.00    +0.000 N 
ATOM     15  C   UNL     1       5.961   5.643  17.466  0.00  0.00    +0.000 C 
ATOM     16  O   UNL     1       6.920   6.393  17.514  0.00  0.00    +0.000 OA
ATOM     17  C   UNL     1       3.953   7.290  18.288  0.00  0.00    +0.000 C 
ENDROOT
BRANCH  14  18
ATOM     18  C   UNL     1       6.927   3.756  16.005  0.00  0.00    +0.000 C 
BRANCH  18  19
ATOM     19  C   UNL     1       6.940   4.248  14.578  0.00  0.00    +0.000 A 
ATOM     20  C   UNL     1       6.157   3.604  13.625  0.00  0.00    +0.000 A 
ATOM     21  C   UNL     1       6.245   4.008  12.296  0.00  0.00    +0.000 A 
ATOM     22  C   UNL     1       7.106   5.043  11.948  0.00  0.00    +0.000 A 
ATOM     23  C   UNL     1       7.848   5.639  12.952  0.00  0.00    +0.000 A 
ATOM     24  N   UNL     1       7.786   5.267  14.263  0.00  0.00    +0.000 NA
ENDBRANCH  18  19
ENDBRANCH  14  18
TORSDOF 2
ENDMDL
MODEL 8
REMARK VINA RESULT:      -6.4      2.300      7.843
REMARK  Name = 
REMARK  2 active torsions:
REMARK  status: ('A' for Active; 'I' for Inactive)
REMARK    1  A    between atoms: N_14  and  C_15
REMARK    2  A    between atoms: C_15  and  C_16
REMARK                            x       y       z     vdW  Elec       q    Type
REMARK                         _______ _______ _______ _____ _____    ______ ____
ROOT
ATOM      1  O   UNL     1      -3.183  13.121  20.100  0.00  0.00    +0.000 OA
ATOM      2  C   UNL     1      -3.089  12.129  19.368  0.00  0.00    +0.000 C 
ATOM      3  N   UNL     1      -4.178  11.841  18.604  0.00  0.00    +0.000 N 
ATOM      4  C   UNL     1      -5.314  12.790  18.690  0.00  0.00    +0.000 C 
ATOM      5  C   UNL     1      -6.483  11.945  19.157  0.00  0.00    +0.000 C 
ATOM      6  C   UNL     1      -6.232  10.662  18.385  0.00  0.00    +0.000 C 
ATOM      7  C   UNL     1      -4.705  10.496  18.439  0.00  0.00    +0.000 C 
ATOM      8  N   UNL     1      -1.915  11.428  19.376  0.00  0.00    +0.000 N 
ATOM      9  C   UNL     1      -0.875  11.848  20.328  0.00  0.00    +0.000 C 
ATOM     10  C   UNL     1       0.424  11.310  19.790  0.00  0.00    +0.000 C 
ATOM     11  C   UNL     1      -0.051   9.954  19.261  0.00  0.00    +0.000 C 
ATOM     12  C   UNL     1      -0.365   8.963  20.407  0.00  0.00    +0.000 C 
ATOM     13  C   UNL     1       1.018   8.588  20.896  0.00  0.00    +0.000 C 
ATOM     14  N   UNL     1       1.718   8.442  19.649  0.00  0.00    +0.000 N 
ATOM     15  C   UNL     1       1.117   9.193  18.621  0.00  0.00    +0.000 C 
ATOM     16  O   UNL     1       1.470   9.245  17.456  0.00  0.00    +0.000 OA
ATOM     17  C   UNL     1      -1.325  10.394  18.491  0.00  0.00    +0.000 C 
ENDROOT
BRANCH  14  18
ATOM     18  C   UNL     1       2.760   7.427  19.520  0.00  0.00    +0.000 C 
BRANCH  18  19
ATOM     19  C   UNL     1       2.257   6.015  19.344  0.00  0.00    +0.000 A 
ATOM     20  C   UNL     1       2.202   5.462  18.069  0.00  0.00    +0.000 A 
ATOM     21  C   UNL     1       1.654   4.192  17.907  0.00  0.00    +0.000 A 
ATOM     22  C   UNL     1       1.177   3.504  19.017  0.00  0.00    +0.000 A 
ATOM     23  C   UNL     1       1.271   4.117  20.254  0.00  0.00    +0.000 A 
ATOM     24  N   UNL     1       1.802   5.359  20.446  0.00  0.00    +0.000 NA
ENDBRANCH  18  19
ENDBRANCH  14  18
TORSDOF 2
ENDMDL
MODEL 9
REMARK VINA RESULT:      -6.3      1.210      1.587
REMARK  Name = 
REMARK  2 active torsions:
REMARK  status: ('A' for Active; 'I' for Inactive)
REMARK    1  A    between atoms: N_14  and  C_15
REMARK    2  A    between atoms: C_15  and  C_16
REMARK                            x       y       z     vdW  Elec       q    Type
REMARK                         _______ _______ _______ _____ _____    ______ ____
ROOT
ATOM      1  O   UNL     1       3.041   7.450  17.893  0.00  0.00    +0.000 OA
ATOM      2  C   UNL     1       2.406   7.555  18.948  0.00  0.00    +0.000 C 
ATOM      3  N   UNL     1       2.487   6.499  19.805  0.00  0.00    +0.000 N 
ATOM      4  C   UNL     1       3.379   5.387  19.399  0.00  0.00    +0.000 C 
ATOM      5  C   UNL     1       2.474   4.172  19.341  0.00  0.00    +0.000 C 
ATOM      6  C   UNL     1       1.580   4.428  20.541  0.00  0.00    +0.000 C 
ATOM      7  C   UNL     1       1.336   5.945  20.499  0.00  0.00    +0.000 C 
ATOM      8  N   UNL     1       1.704   8.707  19.171  0.00  0.00    +0.000 N 
ATOM      9  C   UNL     1       1.675   9.707  18.092  0.00  0.00    +0.000 C 
ATOM     10  C   UNL     1       1.327  11.017  18.749  0.00  0.00    +0.000 C 
ATOM     11  C   UNL     1       0.306  10.533  19.781  0.00  0.00    +0.000 C 
ATOM     12  C   UNL     1      -1.036  10.132  19.123  0.00  0.00    +0.000 C 
ATOM     13  C   UNL     1      -1.634  11.476  18.767  0.00  0.00    +0.000 C 
ATOM     14  N   UNL     1      -1.317  12.236  19.946  0.00  0.00    +0.000 N 
ATOM     15  C   UNL     1      -0.200  11.711  20.623  0.00  0.00    +0.000 C 
ATOM     16  O   UNL     1       0.283  12.126  21.662  0.00  0.00    +0.000 OA
ATOM     17  C   UNL     1       1.067   9.313  20.366  0.00  0.00    +0.000 C 
ENDROOT
BRANCH  14  18
ATOM     18  C   UNL     1      -2.250  13.255  20.421  0.00  0.00    +0.000 C 
BRANCH  18  19
ATOM     19  C   UNL     1      -3.701  12.841  20.424  0.00  0.00    +0.000 A 
ATOM     20  C   UNL     1      -4.439  12.943  21.600  0.00  0.00    +0.000 A 
ATOM     21  C   UNL     1      -5.750  12.475  21.616  0.00  0.00    +0.000 A 
ATOM     22  C   UNL     1      -6.295  11.920  20.464  0.00  0.00    +0.000 A 
ATOM     23  C   UNL     1      -5.502  11.858  19.331  0.00  0.00    +0.000 A 
ATOM     24  N   UNL     1      -4.214  12.307  19.283  0.00  0.00    +0.000 NA
ENDBRANCH  18  19
ENDBRANCH  14  18
TORSDOF 2
ENDMDL
