MODEL 1
REMARK VINA RESULT:      -7.9      0.000      0.000
REMARK  Name = 
REMARK  8 active torsions:
REMARK  status: ('A' for Active; 'I' for Inactive)
REMARK    1  A    between atoms: C_2  and  C_3
REMARK    2  A    between atoms: C_3  and  O_4
REMARK    3  A    between atoms: O_4  and  C_5
REMARK    4  A    between atoms: C_5  and  C_7
REMARK    5  A    between atoms: C_7  and  N_8
REMARK    6  A    between atoms: C_9  and  C_11
REMARK    7  A    between atoms: N_17  and  C_18
REMARK    8  A    between atoms: C_20  and  C_21
REMARK                            x       y       z     vdW  Elec       q    Type
REMARK                         _______ _______ _______ _____ _____    ______ ____
ROOT
ATOM      1  O   UNL     1       2.224   3.579  16.829  0.00  0.00    +0.000 OA
ATOM      2  C   UNL     1       2.918   2.924  17.604  0.00  0.00    +0.000 C 
ATOM      3  N   UNL     1       4.295   2.785  17.531  0.00  0.00    +0.000 N 
ATOM      4  H   UNL     1       4.712   2.015  18.048  0.00  0.00    +0.000 HD
ENDROOT
BRANCH   3   5
ATOM      5  C   UNL     1       5.169   3.541  16.709  0.00  0.00    +0.000 A 
ATOM      6  C   UNL     1       5.207   3.366  15.321  0.00  0.00    +0.000 A 
ATOM      7  C   UNL     1       6.069   4.120  14.509  0.00  0.00    +0.000 A 
ATOM      8  C   UNL     1       6.853   5.123  15.095  0.00  0.00    +0.000 A 
ATOM      9  C   UNL     1       6.826   5.316  16.478  0.00  0.00    +0.000 A 
ATOM     10  C   UNL     1       6.004   4.517  17.282  0.00  0.00    +0.000 A 
ATOM     11 CL   UNL     1       6.093   4.722  18.997  0.00  0.00    +0.000 Cl
BRANCH   7  12
ATOM     12  C   UNL     1       6.183   3.821  13.033  0.00  0.00    +0.000 C 
ATOM     13  F   UNL     1       6.591   2.553  12.756  0.00  0.00    +0.000 F 
ATOM     14  F   UNL     1       5.004   3.988  12.372  0.00  0.00    +0.000 F 
ATOM     15  F   UNL     1       7.077   4.642  12.415  0.00  0.00    +0.000 F 
ENDBRANCH   7  12
ENDBRANCH   3   5
BRANCH   2  16
ATOM     16  C   UNL     1       2.271   2.105  18.716  0.00  0.00    +0.000 C 
BRANCH  16  17
ATOM     17  O   UNL     1       2.503   2.657  20.012  0.00  0.00    +0.000 OA
BRANCH  17  18
ATOM     18  C   UNL     1       1.695   3.706  20.341  0.00  0.00    +0.000 C 
ATOM     19  O   UNL     1       0.488   3.753  20.154  0.00  0.00    +0.000 OA
BRANCH  18  20
ATOM     20  C   UNL     1       2.488   4.784  21.062  0.00  0.00    +0.000 C 
BRANCH  20  21
ATOM     21  N   UNL     1       2.009   6.108  20.724  0.00  0.00    +0.000 N 
ATOM     22  C   UNL     1       2.467   6.765  19.603  0.00  0.00    +0.000 C 
ATOM     23  O   UNL     1       3.268   6.271  18.822  0.00  0.00    +0.000 OA
ATOM     24  H   UNL     1       1.303   6.531  21.317  0.00  0.00    +0.000 HD
BRANCH  22  25
ATOM     25  C   UNL     1       1.899   8.116  19.349  0.00  0.00    +0.000 A 
ATOM     26  C   UNL     1       2.047   8.759  18.112  0.00  0.00    +0.000 A 
ATOM     27  C   UNL     1       1.525  10.040  17.928  0.00  0.00    +0.000 A 
ATOM     28  C   UNL     1       0.847  10.677  18.967  0.00  0.00    +0.000 A 
ATOM     29  C   UNL     1       0.672  10.028  20.189  0.00  0.00    +0.000 A 
ATOM     30  C   UNL     1       1.192   8.746  20.378  0.00  0.00    +0.000 A 
ENDBRANCH  22  25
ENDBRANCH  20  21
ENDBRANCH  18  20
ENDBRANCH  17  18
ENDBRANCH  16  17
ENDBRANCH   2  16
TORSDOF 8
ENDMDL
MODEL 2
REMARK VINA RESULT:      -7.9      1.089      1.681
REMARK  Name = 
REMARK  8 active torsions:
REMARK  status: ('A' for Active; 'I' for Inactive)
REMARK    1  A    between atoms: C_2  and  C_3
REMARK    2  A    between atoms: C_3  and  O_4
REMARK    3  A    between atoms: O_4  and  C_5
REMARK    4  A    between atoms: C_5  and  C_7
REMARK    5  A    between atoms: C_7  and  N_8
REMARK    6  A    between atoms: C_9  and  C_11
REMARK    7  A    between atoms: N_17  and  C_18
REMARK    8  A    between atoms: C_20  and  C_21
REMARK                            x       y       z     vdW  Elec       q    Type
REMARK                         _______ _______ _______ _____ _____    ______ ____
ROOT
ATOM      1  O   UNL     1       3.273   4.166  17.089  0.00  0.00    +0.000 OA
ATOM      2  C   UNL     1       4.022   3.291  17.520  0.00  0.00    +0.000 C 
ATOM      3  N   UNL     1       5.227   2.910  16.952  0.00  0.00    +0.000 N 
ATOM      4  H   UNL     1       5.610   2.010  17.234  0.00  0.00    +0.000 HD
ENDROOT
BRANCH   3   5
ATOM      5  C   UNL     1       5.922   3.597  15.924  0.00  0.00    +0.000 A 
ATOM      6  C   UNL     1       5.691   3.322  14.571  0.00  0.00    +0.000 A 
ATOM      7  C   UNL     1       6.376   4.009  13.556  0.00  0.00    +0.000 A 
ATOM      8  C   UNL     1       7.252   5.044  13.905  0.00  0.00    +0.000 A 
ATOM      9  C   UNL     1       7.492   5.336  15.250  0.00  0.00    +0.000 A 
ATOM     10  C   UNL     1       6.846   4.605  16.253  0.00  0.00    +0.000 A 
ATOM     11 CL   UNL     1       7.264   4.931  17.899  0.00  0.00    +0.000 Cl
BRANCH   7  12
ATOM     12  C   UNL     1       6.203   3.603  12.111  0.00  0.00    +0.000 C 
ATOM     13  F   UNL     1       4.951   3.817  11.623  0.00  0.00    +0.000 F 
ATOM     14  F   UNL     1       7.050   4.266  11.275  0.00  0.00    +0.000 F 
ATOM     15  F   UNL     1       6.454   2.277  11.922  0.00  0.00    +0.000 F 
ENDBRANCH   7  12
ENDBRANCH   3   5
BRANCH   2  16
ATOM     16  C   UNL     1       3.618   2.459  18.733  0.00  0.00    +0.000 C 
BRANCH  16  17
ATOM     17  O   UNL     1       2.307   1.908  18.610  0.00  0.00    +0.000 OA
BRANCH  17  18
ATOM     18  C   UNL     1       1.336   2.586  19.287  0.00  0.00    +0.000 C 
ATOM     19  O   UNL     1       0.133   2.398  19.172  0.00  0.00    +0.000 OA
BRANCH  18  20
ATOM     20  C   UNL     1       1.955   3.555  20.282  0.00  0.00    +0.000 C 
BRANCH  20  21
ATOM     21  N   UNL     1       1.627   4.928  19.957  0.00  0.00    +0.000 N 
ATOM     22  C   UNL     1       2.612   5.882  19.829  0.00  0.00    +0.000 C 
ATOM     23  O   UNL     1       3.803   5.631  19.949  0.00  0.00    +0.000 OA
ATOM     24  H   UNL     1       0.654   5.165  19.796  0.00  0.00    +0.000 HD
BRANCH  22  25
ATOM     25  C   UNL     1       2.161   7.257  19.484  0.00  0.00    +0.000 A 
ATOM     26  C   UNL     1       1.490   8.067  20.410  0.00  0.00    +0.000 A 
ATOM     27  C   UNL     1       1.056   9.340  20.035  0.00  0.00    +0.000 A 
ATOM     28  C   UNL     1       1.300   9.811  18.745  0.00  0.00    +0.000 A 
ATOM     29  C   UNL     1       1.994   9.019  17.831  0.00  0.00    +0.000 A 
ATOM     30  C   UNL     1       2.430   7.746  18.202  0.00  0.00    +0.000 A 
ENDBRANCH  22  25
ENDBRANCH  20  21
ENDBRANCH  18  20
ENDBRANCH  17  18
ENDBRANCH  16  17
ENDBRANCH   2  16
TORSDOF 8
ENDMDL
MODEL 3
REMARK VINA RESULT:      -7.8      5.065      8.716
REMARK  Name = 
REMARK  8 active torsions:
REMARK  status: ('A' for Active; 'I' for Inactive)
REMARK    1  A    between atoms: C_2  and  C_3
REMARK    2  A    between atoms: C_3  and  O_4
REMARK    3  A    between atoms: O_4  and  C_5
REMARK    4  A    between atoms: C_5  and  C_7
REMARK    5  A    between atoms: C_7  and  N_8
REMARK    6  A    between atoms: C_9  and  C_11
REMARK    7  A    between atoms: N_17  and  C_18
REMARK    8  A    between atoms: C_20  and  C_21
REMARK                            x       y       z     vdW  Elec       q    Type
REMARK                         _______ _______ _______ _____ _____    ______ ____
ROOT
ATOM      1  O   UNL     1       1.261   5.349  20.623  0.00  0.00    +0.000 OA
ATOM      2  C   UNL     1       2.304   5.804  20.158  0.00  0.00    +0.000 C 
ATOM      3  N   UNL     1       2.515   7.126  19.796  0.00  0.00    +0.000 N 
ATOM      4  H   UNL     1       3.303   7.319  19.181  0.00  0.00    +0.000 HD
ENDROOT
BRANCH   3   5
ATOM      5  C   UNL     1       1.668   8.222  20.101  0.00  0.00    +0.000 A 
ATOM      6  C   UNL     1       1.174   8.430  21.394  0.00  0.00    +0.000 A 
ATOM      7  C   UNL     1       0.341   9.520  21.695  0.00  0.00    +0.000 A 
ATOM      8  C   UNL     1       0.062  10.460  20.695  0.00  0.00    +0.000 A 
ATOM      9  C   UNL     1       0.550  10.272  19.399  0.00  0.00    +0.000 A 
ATOM     10  C   UNL     1       1.332   9.150  19.100  0.00  0.00    +0.000 A 
ATOM     11 CL   UNL     1       1.815   8.907  17.458  0.00  0.00    +0.000 Cl
BRANCH   7  12
ATOM     12  C   UNL     1      -0.283   9.648  23.065  0.00  0.00    +0.000 C 
ATOM     13  F   UNL     1       0.590   9.447  24.089  0.00  0.00    +0.000 F 
ATOM     14  F   UNL     1      -0.834  10.874  23.277  0.00  0.00    +0.000 F 
ATOM     15  F   UNL     1      -1.288   8.748  23.251  0.00  0.00    +0.000 F 
ENDBRANCH   7  12
ENDBRANCH   3   5
BRANCH   2  16
ATOM     16  C   UNL     1       3.481   4.884  19.854  0.00  0.00    +0.000 C 
BRANCH  16  17
ATOM     17  O   UNL     1       4.232   5.309  18.717  0.00  0.00    +0.000 OA
BRANCH  17  18
ATOM     18  C   UNL     1       5.585   5.208  18.853  0.00  0.00    +0.000 C 
ATOM     19  O   UNL     1       6.166   4.386  19.547  0.00  0.00    +0.000 OA
BRANCH  18  20
ATOM     20  C   UNL     1       6.289   6.207  17.948  0.00  0.00    +0.000 C 
BRANCH  20  21
ATOM     21  N   UNL     1       6.182   5.824  16.555  0.00  0.00    +0.000 N 
ATOM     22  C   UNL     1       7.067   4.929  15.995  0.00  0.00    +0.000 C 
ATOM     23  O   UNL     1       7.961   4.389  16.631  0.00  0.00    +0.000 OA
ATOM     24  H   UNL     1       5.421   6.209  16.007  0.00  0.00    +0.000 HD
BRANCH  22  25
ATOM     25  C   UNL     1       6.858   4.603  14.559  0.00  0.00    +0.000 A 
ATOM     26  C   UNL     1       5.829   3.749  14.138  0.00  0.00    +0.000 A 
ATOM     27  C   UNL     1       5.687   3.445  12.784  0.00  0.00    +0.000 A 
ATOM     28  C   UNL     1       6.561   3.998  11.846  0.00  0.00    +0.000 A 
ATOM     29  C   UNL     1       7.567   4.871  12.259  0.00  0.00    +0.000 A 
ATOM     30  C   UNL     1       7.711   5.178  13.613  0.00  0.00    +0.000 A 
ENDBRANCH  22  25
ENDBRANCH  20  21
ENDBRANCH  18  20
ENDBRANCH  17  18
ENDBRANCH  16  17
ENDBRANCH   2  16
TORSDOF 8
ENDMDL
MODEL 4
REMARK VINA RESULT:      -7.8      7.071      8.909
REMARK  Name = 
REMARK  8 active torsions:
REMARK  status: ('A' for Active; 'I' for Inactive)
REMARK    1  A    between atoms: C_2  and  C_3
REMARK    2  A    between atoms: C_3  and  O_4
REMARK    3  A    between atoms: O_4  and  C_5
REMARK    4  A    between atoms: C_5  and  C_7
REMARK    5  A    between atoms: C_7  and  N_8
REMARK    6  A    between atoms: C_9  and  C_11
REMARK    7  A    between atoms: N_17  and  C_18
REMARK    8  A    between atoms: C_20  and  C_21
REMARK                            x       y       z     vdW  Elec       q    Type
REMARK                         _______ _______ _______ _____ _____    ______ ____
ROOT
ATOM      1  O   UNL     1       7.862  10.361  17.699  0.00  0.00    +0.000 OA
ATOM      2  C   UNL     1       8.420   9.479  18.350  0.00  0.00    +0.000 C 
ATOM      3  N   UNL     1       9.324   9.689  19.380  0.00  0.00    +0.000 N 
ATOM      4  H   UNL     1       9.912   8.903  19.648  0.00  0.00    +0.000 HD
ENDROOT
BRANCH   3   5
ATOM      5  C   UNL     1       9.593  10.926  20.018  0.00  0.00    +0.000 A 
ATOM      6  C   UNL     1       8.995  11.269  21.236  0.00  0.00    +0.000 A 
ATOM      7  C   UNL     1       9.269  12.493  21.869  0.00  0.00    +0.000 A 
ATOM      8  C   UNL     1      10.219  13.354  21.305  0.00  0.00    +0.000 A 
ATOM      9  C   UNL     1      10.829  13.027  20.092  0.00  0.00    +0.000 A 
ATOM     10  C   UNL     1      10.504  11.830  19.444  0.00  0.00    +0.000 A 
ATOM     11 CL   UNL     1      11.203  11.527  17.891  0.00  0.00    +0.000 Cl
BRANCH   7  12
ATOM     12  C   UNL     1       8.512  12.893  23.115  0.00  0.00    +0.000 C 
ATOM     13  F   UNL     1       8.908  12.233  24.237  0.00  0.00    +0.000 F 
ATOM     14  F   UNL     1       8.632  14.219  23.397  0.00  0.00    +0.000 F 
ATOM     15  F   UNL     1       7.176  12.655  22.996  0.00  0.00    +0.000 F 
ENDBRANCH   7  12
ENDBRANCH   3   5
BRANCH   2  16
ATOM     16  C   UNL     1       8.210   8.010  18.000  0.00  0.00    +0.000 C 
BRANCH  16  17
ATOM     17  O   UNL     1       7.159   7.816  17.054  0.00  0.00    +0.000 OA
BRANCH  17  18
ATOM     18  C   UNL     1       6.557   6.593  17.110  0.00  0.00    +0.000 C 
ATOM     19  O   UNL     1       7.064   5.575  17.562  0.00  0.00    +0.000 OA
BRANCH  18  20
ATOM     20  C   UNL     1       5.121   6.681  16.615  0.00  0.00    +0.000 C 
BRANCH  20  21
ATOM     21  N   UNL     1       4.273   5.713  17.278  0.00  0.00    +0.000 N 
ATOM     22  C   UNL     1       3.178   6.113  18.013  0.00  0.00    +0.000 C 
ATOM     23  O   UNL     1       2.842   7.283  18.125  0.00  0.00    +0.000 OA
ATOM     24  H   UNL     1       4.486   4.728  17.165  0.00  0.00    +0.000 HD
BRANCH  22  25
ATOM     25  C   UNL     1       2.373   5.032  18.643  0.00  0.00    +0.000 A 
ATOM     26  C   UNL     1       1.964   3.901  17.923  0.00  0.00    +0.000 A 
ATOM     27  C   UNL     1       1.184   2.926  18.546  0.00  0.00    +0.000 A 
ATOM     28  C   UNL     1       0.820   3.068  19.885  0.00  0.00    +0.000 A 
ATOM     29  C   UNL     1       1.252   4.178  20.612  0.00  0.00    +0.000 A 
ATOM     30  C   UNL     1       2.033   5.155  19.993  0.00  0.00    +0.000 A 
ENDBRANCH  22  25
ENDBRANCH  20  21
ENDBRANCH  18  20
ENDBRANCH  17  18
ENDBRANCH  16  17
ENDBRANCH   2  16
TORSDOF 8
ENDMDL
MODEL 5
REMARK VINA RESULT:      -7.7      0.996      1.777
REMARK  Name = 
REMARK  8 active torsions:
REMARK  status: ('A' for Active; 'I' for Inactive)
REMARK    1  A    between atoms: C_2  and  C_3
REMARK    2  A    between atoms: C_3  and  O_4
REMARK    3  A    between atoms: O_4  and  C_5
REMARK    4  A    between atoms: C_5  and  C_7
REMARK    5  A    between atoms: C_7  and  N_8
REMARK    6  A    between atoms: C_9  and  C_11
REMARK    7  A    between atoms: N_17  and  C_18
REMARK    8  A    between atoms: C_20  and  C_21
REMARK                            x       y       z     vdW  Elec       q    Type
REMARK                         _______ _______ _______ _____ _____    ______ ____
ROOT
ATOM      1  O   UNL     1       2.337   3.646  16.944  0.00  0.00    +0.000 OA
ATOM      2  C   UNL     1       3.103   3.093  17.731  0.00  0.00    +0.000 C 
ATOM      3  N   UNL     1       4.476   2.982  17.575  0.00  0.00    +0.000 N 
ATOM      4  H   UNL     1       4.952   2.280  18.137  0.00  0.00    +0.000 HD
ENDROOT
BRANCH   3   5
ATOM      5  C   UNL     1       5.268   3.670  16.620  0.00  0.00    +0.000 A 
ATOM      6  C   UNL     1       5.182   3.384  15.253  0.00  0.00    +0.000 A 
ATOM      7  C   UNL     1       5.963   4.071  14.309  0.00  0.00    +0.000 A 
ATOM      8  C   UNL     1       6.788   5.117  14.740  0.00  0.00    +0.000 A 
ATOM      9  C   UNL     1       6.884   5.420  16.100  0.00  0.00    +0.000 A 
ATOM     10  C   UNL     1       6.143   4.688  17.036  0.00  0.00    +0.000 A 
ATOM     11 CL   UNL     1       6.384   5.029  18.714  0.00  0.00    +0.000 Cl
BRANCH   7  12
ATOM     12  C   UNL     1       5.946   3.654  12.857  0.00  0.00    +0.000 C 
ATOM     13  F   UNL     1       4.769   3.908  12.223  0.00  0.00    +0.000 F 
ATOM     14  F   UNL     1       6.909   4.275  12.122  0.00  0.00    +0.000 F 
ATOM     15  F   UNL     1       6.167   2.318  12.710  0.00  0.00    +0.000 F 
ENDBRANCH   7  12
ENDBRANCH   3   5
BRANCH   2  16
ATOM     16  C   UNL     1       2.560   2.378  18.964  0.00  0.00    +0.000 C 
BRANCH  16  17
ATOM     17  O   UNL     1       2.693   3.156  20.153  0.00  0.00    +0.000 OA
BRANCH  17  18
ATOM     18  C   UNL     1       1.886   4.254  20.212  0.00  0.00    +0.000 C 
ATOM     19  O   UNL     1       0.668   4.231  20.319  0.00  0.00    +0.000 OA
BRANCH  18  20
ATOM     20  C   UNL     1       2.718   5.528  20.221  0.00  0.00    +0.000 C 
BRANCH  20  21
ATOM     21  N   UNL     1       1.989   6.631  20.812  0.00  0.00    +0.000 N 
ATOM     22  C   UNL     1       1.765   7.793  20.108  0.00  0.00    +0.000 C 
ATOM     23  O   UNL     1       2.133   7.954  18.953  0.00  0.00    +0.000 OA
ATOM     24  H   UNL     1       1.621   6.516  21.750  0.00  0.00    +0.000 HD
BRANCH  22  25
ATOM     25  C   UNL     1       0.999   8.856  20.812  0.00  0.00    +0.000 A 
ATOM     26  C   UNL     1       0.791   8.822  22.197  0.00  0.00    +0.000 A 
ATOM     27  C   UNL     1       0.039   9.824  22.813  0.00  0.00    +0.000 A 
ATOM     28  C   UNL     1      -0.495  10.866  22.054  0.00  0.00    +0.000 A 
ATOM     29  C   UNL     1      -0.264  10.918  20.679  0.00  0.00    +0.000 A 
ATOM     30  C   UNL     1       0.488   9.919  20.060  0.00  0.00    +0.000 A 
ENDBRANCH  22  25
ENDBRANCH  20  21
ENDBRANCH  18  20
ENDBRANCH  17  18
ENDBRANCH  16  17
ENDBRANCH   2  16
TORSDOF 8
ENDMDL
MODEL 6
REMARK VINA RESULT:      -7.6      7.140      9.126
REMARK  Name = 
REMARK  8 active torsions:
REMARK  status: ('A' for Active; 'I' for Inactive)
REMARK    1  A    between atoms: C_2  and  C_3
REMARK    2  A    between atoms: C_3  and  O_4
REMARK    3  A    between atoms: O_4  and  C_5
REMARK    4  A    between atoms: C_5  and  C_7
REMARK    5  A    between atoms: C_7  and  N_8
REMARK    6  A    between atoms: C_9  and  C_11
REMARK    7  A    between atoms: N_17  and  C_18
REMARK    8  A    between atoms: C_20  and  C_21
REMARK                            x       y       z     vdW  Elec       q    Type
REMARK                         _______ _______ _______ _____ _____    ______ ____
ROOT
ATOM      1  O   UNL     1       8.002  10.498  17.571  0.00  0.00    +0.000 OA
ATOM      2  C   UNL     1       8.445   9.588  18.270  0.00  0.00    +0.000 C 
ATOM      3  N   UNL     1       9.284   9.746  19.362  0.00  0.00    +0.000 N 
ATOM      4  H   UNL     1       9.792   8.923  19.680  0.00  0.00    +0.000 HD
ENDROOT
BRANCH   3   5
ATOM      5  C   UNL     1       9.595  10.970  20.007  0.00  0.00    +0.000 A 
ATOM      6  C   UNL     1       8.993  11.336  21.217  0.00  0.00    +0.000 A 
ATOM      7  C   UNL     1       9.308  12.546  21.857  0.00  0.00    +0.000 A 
ATOM      8  C   UNL     1      10.302  13.366  21.310  0.00  0.00    +0.000 A 
ATOM      9  C   UNL     1      10.918  13.016  20.106  0.00  0.00    +0.000 A 
ATOM     10  C   UNL     1      10.553  11.835  19.450  0.00  0.00    +0.000 A 
ATOM     11 CL   UNL     1      11.264  11.505  17.908  0.00  0.00    +0.000 Cl
BRANCH   7  12
ATOM     12  C   UNL     1       8.549  12.975  23.091  0.00  0.00    +0.000 C 
ATOM     13  F   UNL     1       8.665  14.301  23.377  0.00  0.00    +0.000 F 
ATOM     14  F   UNL     1       7.214  12.727  22.998  0.00  0.00    +0.000 F 
ATOM     15  F   UNL     1       8.975  12.316  24.204  0.00  0.00    +0.000 F 
ENDBRANCH   7  12
ENDBRANCH   3   5
BRANCH   2  16
ATOM     16  C   UNL     1       8.155   8.132  17.918  0.00  0.00    +0.000 C 
BRANCH  16  17
ATOM     17  O   UNL     1       8.518   7.231  18.962  0.00  0.00    +0.000 OA
BRANCH  17  18
ATOM     18  C   UNL     1       7.772   6.091  19.021  0.00  0.00    +0.000 C 
ATOM     19  O   UNL     1       7.597   5.411  20.023  0.00  0.00    +0.000 OA
BRANCH  18  20
ATOM     20  C   UNL     1       7.103   5.821  17.682  0.00  0.00    +0.000 C 
BRANCH  20  21
ATOM     21  N   UNL     1       5.994   4.900  17.821  0.00  0.00    +0.000 N 
ATOM     22  C   UNL     1       4.703   5.359  17.968  0.00  0.00    +0.000 C 
ATOM     23  O   UNL     1       4.414   6.547  17.961  0.00  0.00    +0.000 OA
ATOM     24  H   UNL     1       6.186   3.905  17.779  0.00  0.00    +0.000 HD
BRANCH  22  25
ATOM     25  C   UNL     1       3.643   4.323  18.094  0.00  0.00    +0.000 A 
ATOM     26  C   UNL     1       2.309   4.587  17.755  0.00  0.00    +0.000 A 
ATOM     27  C   UNL     1       1.341   3.596  17.918  0.00  0.00    +0.000 A 
ATOM     28  C   UNL     1       1.700   2.339  18.407  0.00  0.00    +0.000 A 
ATOM     29  C   UNL     1       3.031   2.064  18.717  0.00  0.00    +0.000 A 
ATOM     30  C   UNL     1       4.003   3.053  18.554  0.00  0.00    +0.000 A 
ENDBRANCH  22  25
ENDBRANCH  20  21
ENDBRANCH  18  20
ENDBRANCH  17  18
ENDBRANCH  16  17
ENDBRANCH   2  16
TORSDOF 8
ENDMDL
MODEL 7
REMARK VINA RESULT:      -7.6      4.928      7.050
REMARK  Name = 
REMARK  8 active torsions:
REMARK  status: ('A' for Active; 'I' for Inactive)
REMARK    1  A    between atoms: C_2  and  C_3
REMARK    2  A    between atoms: C_3  and  O_4
REMARK    3  A    between atoms: O_4  and  C_5
REMARK    4  A    between atoms: C_5  and  C_7
REMARK    5  A    between atoms: C_7  and  N_8
REMARK    6  A    between atoms: C_9  and  C_11
REMARK    7  A    between atoms: N_17  and  C_18
REMARK    8  A    between atoms: C_20  and  C_21
REMARK                            x       y       z     vdW  Elec       q    Type
REMARK                         _______ _______ _______ _____ _____    ______ ____
ROOT
ATOM      1  O   UNL     1      -0.066   8.690  20.383  0.00  0.00    +0.000 OA
ATOM      2  C   UNL     1       0.923   8.608  21.109  0.00  0.00    +0.000 C 
ATOM      3  N   UNL     1       1.826   7.556  21.124  0.00  0.00    +0.000 N 
ATOM      4  H   UNL     1       2.429   7.474  21.940  0.00  0.00    +0.000 HD
ENDROOT
BRANCH   3   5
ATOM      5  C   UNL     1       1.910   6.512  20.168  0.00  0.00    +0.000 A 
ATOM      6  C   UNL     1       1.616   5.185  20.503  0.00  0.00    +0.000 A 
ATOM      7  C   UNL     1       1.695   4.154  19.553  0.00  0.00    +0.000 A 
ATOM      8  C   UNL     1       1.999   4.475  18.224  0.00  0.00    +0.000 A 
ATOM      9  C   UNL     1       2.290   5.794  17.869  0.00  0.00    +0.000 A 
ATOM     10  C   UNL     1       2.265   6.803  18.839  0.00  0.00    +0.000 A 
ATOM     11 CL   UNL     1       2.743   8.397  18.371  0.00  0.00    +0.000 Cl
BRANCH   7  12
ATOM     12  C   UNL     1       1.499   2.715  19.971  0.00  0.00    +0.000 C 
ATOM     13  F   UNL     1       0.914   2.569  21.191  0.00  0.00    +0.000 F 
ATOM     14  F   UNL     1       0.724   2.016  19.097  0.00  0.00    +0.000 F 
ATOM     15  F   UNL     1       2.682   2.042  20.043  0.00  0.00    +0.000 F 
ENDBRANCH   7  12
ENDBRANCH   3   5
BRANCH   2  16
ATOM     16  C   UNL     1       1.200   9.677  22.161  0.00  0.00    +0.000 C 
BRANCH  16  17
ATOM     17  O   UNL     1       0.750  10.971  21.761  0.00  0.00    +0.000 OA
BRANCH  17  18
ATOM     18  C   UNL     1      -0.447  11.352  22.294  0.00  0.00    +0.000 C 
ATOM     19  O   UNL     1      -0.861  11.035  23.400  0.00  0.00    +0.000 OA
BRANCH  18  20
ATOM     20  C   UNL     1      -1.167  12.309  21.356  0.00  0.00    +0.000 C 
BRANCH  20  21
ATOM     21  N   UNL     1      -1.435  11.691  20.074  0.00  0.00    +0.000 N 
ATOM     22  C   UNL     1      -2.636  11.887  19.428  0.00  0.00    +0.000 C 
ATOM     23  O   UNL     1      -3.522  12.604  19.872  0.00  0.00    +0.000 OA
ATOM     24  H   UNL     1      -0.704  11.133  19.646  0.00  0.00    +0.000 HD
BRANCH  22  25
ATOM     25  C   UNL     1      -2.798  11.211  18.113  0.00  0.00    +0.000 A 
ATOM     26  C   UNL     1      -1.893  10.239  17.666  0.00  0.00    +0.000 A 
ATOM     27  C   UNL     1      -2.065   9.652  16.412  0.00  0.00    +0.000 A 
ATOM     28  C   UNL     1      -3.143  10.023  15.606  0.00  0.00    +0.000 A 
ATOM     29  C   UNL     1      -4.062  10.969  16.061  0.00  0.00    +0.000 A 
ATOM     30  C   UNL     1      -3.894  11.557  17.316  0.00  0.00    +0.000 A 
ENDBRANCH  22  25
ENDBRANCH  20  21
ENDBRANCH  18  20
ENDBRANCH  17  18
ENDBRANCH  16  17
ENDBRANCH   2  16
TORSDOF 8
ENDMDL
MODEL 8
REMARK VINA RESULT:      -7.6      7.055      8.889
REMARK  Name = 
REMARK  8 active torsions:
REMARK  status: ('A' for Active; 'I' for Inactive)
REMARK    1  A    between atoms: C_2  and  C_3
REMARK    2  A    between atoms: C_3  and  O_4
REMARK    3  A    between atoms: O_4  and  C_5
REMARK    4  A    between atoms: C_5  and  C_7
REMARK    5  A    between atoms: C_7  and  N_8
REMARK    6  A    between atoms: C_9  and  C_11
REMARK    7  A    between atoms: N_17  and  C_18
REMARK    8  A    between atoms: C_20  and  C_21
REMARK                            x       y       z     vdW  Elec       q    Type
REMARK                         _______ _______ _______ _____ _____    ______ ____
ROOT
ATOM      1  O   UNL     1       7.769  10.315  17.554  0.00  0.00    +0.000 OA
ATOM      2  C   UNL     1       8.289   9.412  18.208  0.00  0.00    +0.000 C 
ATOM      3  N   UNL     1       9.215   9.586  19.225  0.00  0.00    +0.000 N 
ATOM      4  H   UNL     1       9.767   8.773  19.494  0.00  0.00    +0.000 HD
ENDROOT
BRANCH   3   5
ATOM      5  C   UNL     1       9.555  10.814  19.846  0.00  0.00    +0.000 A 
ATOM      6  C   UNL     1       9.027  11.178  21.091  0.00  0.00    +0.000 A 
ATOM      7  C   UNL     1       9.370  12.392  21.707  0.00  0.00    +0.000 A 
ATOM      8  C   UNL     1      10.320  13.221  21.097  0.00  0.00    +0.000 A 
ATOM      9  C   UNL     1      10.862  12.873  19.857  0.00  0.00    +0.000 A 
ATOM     10  C   UNL     1      10.467  11.687  19.227  0.00  0.00    +0.000 A 
ATOM     11 CL   UNL     1      11.082  11.360  17.645  0.00  0.00    +0.000 Cl
BRANCH   7  12
ATOM     12  C   UNL     1       8.687  12.818  22.986  0.00  0.00    +0.000 C 
ATOM     13  F   UNL     1       8.891  11.969  24.030  0.00  0.00    +0.000 F 
ATOM     14  F   UNL     1       9.094  14.044  23.414  0.00  0.00    +0.000 F 
ATOM     15  F   UNL     1       7.336  12.904  22.835  0.00  0.00    +0.000 F 
ENDBRANCH   7  12
ENDBRANCH   3   5
BRANCH   2  16
ATOM     16  C   UNL     1       8.000   7.952  17.876  0.00  0.00    +0.000 C 
BRANCH  16  17
ATOM     17  O   UNL     1       8.516   7.053  18.856  0.00  0.00    +0.000 OA
BRANCH  17  18
ATOM     18  C   UNL     1       7.657   6.062  19.233  0.00  0.00    +0.000 C 
ATOM     19  O   UNL     1       7.706   5.449  20.290  0.00  0.00    +0.000 OA
BRANCH  18  20
ATOM     20  C   UNL     1       6.562   5.881  18.193  0.00  0.00    +0.000 C 
BRANCH  20  21
ATOM     21  N   UNL     1       5.375   5.289  18.773  0.00  0.00    +0.000 N 
ATOM     22  C   UNL     1       4.258   5.038  18.006  0.00  0.00    +0.000 C 
ATOM     23  O   UNL     1       4.210   5.267  16.806  0.00  0.00    +0.000 OA
ATOM     24  H   UNL     1       5.394   5.034  19.755  0.00  0.00    +0.000 HD
BRANCH  22  25
ATOM     25  C   UNL     1       3.100   4.420  18.705  0.00  0.00    +0.000 A 
ATOM     26  C   UNL     1       3.057   4.302  20.101  0.00  0.00    +0.000 A 
ATOM     27  C   UNL     1       1.965   3.687  20.714  0.00  0.00    +0.000 A 
ATOM     28  C   UNL     1       0.910   3.199  19.941  0.00  0.00    +0.000 A 
ATOM     29  C   UNL     1       0.937   3.341  18.554  0.00  0.00    +0.000 A 
ATOM     30  C   UNL     1       2.027   3.957  17.937  0.00  0.00    +0.000 A 
ENDBRANCH  22  25
ENDBRANCH  20  21
ENDBRANCH  18  20
ENDBRANCH  17  18
ENDBRANCH  16  17
ENDBRANCH   2  16
TORSDOF 8
ENDMDL
MODEL 9
REMARK VINA RESULT:      -7.6      7.093      8.976
REMARK  Name = 
REMARK  8 active torsions:
REMARK  status: ('A' for Active; 'I' for Inactive)
REMARK    1  A    between atoms: C_2  and  C_3
REMARK    2  A    between atoms: C_3  and  O_4
REMARK    3  A    between atoms: O_4  and  C_5
REMARK    4  A    between atoms: C_5  and  C_7
REMARK    5  A    between atoms: C_7  and  N_8
REMARK    6  A    between atoms: C_9  and  C_11
REMARK    7  A    between atoms: N_17  and  C_18
REMARK    8  A    between atoms: C_20  and  C_21
REMARK                            x       y       z     vdW  Elec       q    Type
REMARK                         _______ _______ _______ _____ _____    ______ ____
ROOT
ATOM      1  O   UNL     1       7.948  10.386  17.606  0.00  0.00    +0.000 OA
ATOM      2  C   UNL     1       8.441   9.506  18.309  0.00  0.00    +0.000 C 
ATOM      3  N   UNL     1       9.298   9.716  19.379  0.00  0.00    +0.000 N 
ATOM      4  H   UNL     1       9.845   8.920  19.699  0.00  0.00    +0.000 HD
ENDROOT
BRANCH   3   5
ATOM      5  C   UNL     1       9.576  10.962  19.996  0.00  0.00    +0.000 A 
ATOM      6  C   UNL     1       9.014  11.312  21.229  0.00  0.00    +0.000 A 
ATOM      7  C   UNL     1       9.297  12.545  21.841  0.00  0.00    +0.000 A 
ATOM      8  C   UNL     1      10.220  13.408  21.238  0.00  0.00    +0.000 A 
ATOM      9  C   UNL     1      10.794  13.075  20.009  0.00  0.00    +0.000 A 
ATOM     10  C   UNL     1      10.459  11.869  19.383  0.00  0.00    +0.000 A 
ATOM     11 CL   UNL     1      11.110  11.557  17.811  0.00  0.00    +0.000 Cl
BRANCH   7  12
ATOM     12  C   UNL     1       8.578  12.950  23.106  0.00  0.00    +0.000 C 
ATOM     13  F   UNL     1       7.221  12.942  22.998  0.00  0.00    +0.000 F 
ATOM     14  F   UNL     1       8.875  12.140  24.160  0.00  0.00    +0.000 F 
ATOM     15  F   UNL     1       8.911  14.211  23.498  0.00  0.00    +0.000 F 
ENDBRANCH   7  12
ENDBRANCH   3   5
BRANCH   2  16
ATOM     16  C   UNL     1       8.199   8.035  17.989  0.00  0.00    +0.000 C 
BRANCH  16  17
ATOM     17  O   UNL     1       6.981   7.820  17.277  0.00  0.00    +0.000 OA
BRANCH  17  18
ATOM     18  C   UNL     1       6.654   6.510  17.082  0.00  0.00    +0.000 C 
ATOM     19  O   UNL     1       7.348   5.554  17.400  0.00  0.00    +0.000 OA
BRANCH  18  20
ATOM     20  C   UNL     1       5.257   6.391  16.494  0.00  0.00    +0.000 C 
BRANCH  20  21
ATOM     21  N   UNL     1       4.305   5.928  17.482  0.00  0.00    +0.000 N 
ATOM     22  C   UNL     1       3.746   4.672  17.397  0.00  0.00    +0.000 C 
ATOM     23  O   UNL     1       4.033   3.873  16.517  0.00  0.00    +0.000 OA
ATOM     24  H   UNL     1       4.081   6.541  18.258  0.00  0.00    +0.000 HD
BRANCH  22  25
ATOM     25  C   UNL     1       2.787   4.300  18.471  0.00  0.00    +0.000 A 
ATOM     26  C   UNL     1       2.125   3.065  18.476  0.00  0.00    +0.000 A 
ATOM     27  C   UNL     1       1.210   2.769  19.487  0.00  0.00    +0.000 A 
ATOM     28  C   UNL     1       0.960   3.697  20.499  0.00  0.00    +0.000 A 
ATOM     29  C   UNL     1       1.640   4.914  20.514  0.00  0.00    +0.000 A 
ATOM     30  C   UNL     1       2.557   5.213  19.505  0.00  0.00    +0.000 A 
ENDBRANCH  22  25
ENDBRANCH  20  21
ENDBRANCH  18  20
ENDBRANCH  17  18
ENDBRANCH  16  17
ENDBRANCH   2  16
TORSDOF 8
ENDMDL
