MODEL 1
REMARK VINA RESULT:      -8.5      0.000      0.000
REMARK  Name = 
REMARK  4 active torsions:
REMARK  status: ('A' for Active; 'I' for Inactive)
REMARK    1  A    between atoms: N_1  and  C_2
REMARK    2  A    between atoms: N_6  and  C_7
REMARK    3  A    between atoms: C_11  and  C_12
REMARK    4  A    between atoms: C_18  and  C_19
REMARK                            x       y       z     vdW  Elec       q    Type
REMARK                         _______ _______ _______ _____ _____    ______ ____
ROOT
ATOM      1  C   UNL     1      -0.372  10.953  20.189  0.00  0.00    +0.000 A 
ATOM      2  C   UNL     1       0.180  11.723  19.165  0.00  0.00    +0.000 A 
ATOM      3  N   UNL     1       1.196  11.344  18.335  0.00  0.00    +0.000 NA
ATOM      4  C   UNL     1       1.726  10.109  18.524  0.00  0.00    +0.000 A 
ATOM      5  C   UNL     1       1.298   9.221  19.486  0.00  0.00    +0.000 A 
ATOM      6  C   UNL     1       0.209   9.681  20.307  0.00  0.00    +0.000 A 
ENDROOT
BRANCH   5   7
ATOM      7  C   UNL     1       1.862   7.859  19.701  0.00  0.00    +0.000 A 
ATOM      8  N   UNL     1       1.365   7.231  20.789  0.00  0.00    +0.000 NA
ATOM      9  N   UNL     1       1.948   6.051  20.834  0.00  0.00    +0.000 N 
ATOM     10  C   UNL     1       2.815   5.816  19.820  0.00  0.00    +0.000 A 
ATOM     11  C   UNL     1       3.547   4.678  19.579  0.00  0.00    +0.000 A 
ATOM     12  N   UNL     1       4.352   4.638  18.513  0.00  0.00    +0.000 NA
ATOM     13  C   UNL     1       4.463   5.699  17.677  0.00  0.00    +0.000 A 
ATOM     14  C   UNL     1       3.742   6.907  17.910  0.00  0.00    +0.000 A 
ATOM     15  C   UNL     1       2.843   6.970  19.031  0.00  0.00    +0.000 A 
ATOM     16  H   UNL     1       1.692   5.426  21.589  0.00  0.00    +0.000 HD
BRANCH  13  17
ATOM     17  C   UNL     1       5.367   5.365  16.531  0.00  0.00    +0.000 A 
ATOM     18  C   UNL     1       4.968   4.424  15.547  0.00  0.00    +0.000 A 
ATOM     19  C   UNL     1       5.784   4.075  14.467  0.00  0.00    +0.000 A 
ATOM     20  C   UNL     1       7.020   4.672  14.379  0.00  0.00    +0.000 A 
ATOM     21  N   UNL     1       7.475   5.557  15.294  0.00  0.00    +0.000 NA
ATOM     22  C   UNL     1       6.648   5.868  16.340  0.00  0.00    +0.000 A 
ENDBRANCH  13  17
ENDBRANCH   5   7
BRANCH   1  27
ATOM     23  C   UNL     1      -3.297  13.961  22.134  0.00  0.00    +0.000 C 
ATOM     24  C   UNL     1      -2.486  13.553  23.367  0.00  0.00    +0.000 C 
ATOM     25  C   UNL     1      -1.125  12.924  23.049  0.00  0.00    +0.000 C 
ATOM     26  C   UNL     1      -1.217  11.507  22.478  0.00  0.00    +0.000 C 
ATOM     27  N   UNL     1      -1.395  11.452  21.020  0.00  0.00    +0.000 N 
ATOM     28  C   UNL     1      -2.280  12.428  20.360  0.00  0.00    +0.000 C 
ATOM     29  C   UNL     1      -3.538  12.807  21.152  0.00  0.00    +0.000 C 
BRANCH  23  30
ATOM     30  N   UNL     1      -4.592  14.510  22.564  0.00  0.00    +0.000 NA
ATOM     31  H   UNL     1      -5.174  13.768  22.953  0.00  0.00    +0.000 HD
ATOM     32  H   UNL     1      -5.105  14.882  21.764  0.00  0.00    +0.000 HD
ENDBRANCH  23  30
ENDBRANCH   1  27
TORSDOF 4
ENDMDL
MODEL 2
REMARK VINA RESULT:      -8.4      2.026      2.800
REMARK  Name = 
REMARK  4 active torsions:
REMARK  status: ('A' for Active; 'I' for Inactive)
REMARK    1  A    between atoms: N_1  and  C_2
REMARK    2  A    between atoms: N_6  and  C_7
REMARK    3  A    between atoms: C_11  and  C_12
REMARK    4  A    between atoms: C_18  and  C_19
REMARK                            x       y       z     vdW  Elec       q    Type
REMARK                         _______ _______ _______ _____ _____    ______ ____
ROOT
ATOM      1  C   UNL     1      -1.428  11.845  18.597  0.00  0.00    +0.000 A 
ATOM      2  C   UNL     1      -0.505  12.853  18.319  0.00  0.00    +0.000 A 
ATOM      3  N   UNL     1       0.851  12.754  18.438  0.00  0.00    +0.000 NA
ATOM      4  C   UNL     1       1.353  11.570  18.874  0.00  0.00    +0.000 A 
ATOM      5  C   UNL     1       0.583  10.472  19.191  0.00  0.00    +0.000 A 
ATOM      6  C   UNL     1      -0.835  10.645  19.018  0.00  0.00    +0.000 A 
ENDROOT
BRANCH   5   7
ATOM      7  C   UNL     1       1.117   9.163  19.662  0.00  0.00    +0.000 A 
ATOM      8  N   UNL     1       0.652   8.793  20.875  0.00  0.00    +0.000 NA
ATOM      9  N   UNL     1       1.203   7.626  21.141  0.00  0.00    +0.000 N 
ATOM     10  C   UNL     1       2.016   7.155  20.165  0.00  0.00    +0.000 A 
ATOM     11  C   UNL     1       2.704   5.965  20.137  0.00  0.00    +0.000 A 
ATOM     12  N   UNL     1       3.458   5.677  19.073  0.00  0.00    +0.000 NA
ATOM     13  C   UNL     1       3.561   6.538  18.030  0.00  0.00    +0.000 A 
ATOM     14  C   UNL     1       2.885   7.794  18.036  0.00  0.00    +0.000 A 
ATOM     15  C   UNL     1       2.041   8.119  19.154  0.00  0.00    +0.000 A 
ATOM     16  H   UNL     1       0.964   7.181  22.018  0.00  0.00    +0.000 HD
BRANCH  13  17
ATOM     17  C   UNL     1       4.402   5.941  16.945  0.00  0.00    +0.000 A 
ATOM     18  C   UNL     1       4.551   4.535  16.838  0.00  0.00    +0.000 A 
ATOM     19  C   UNL     1       5.335   3.935  15.848  0.00  0.00    +0.000 A 
ATOM     20  C   UNL     1       5.983   4.760  14.958  0.00  0.00    +0.000 A 
ATOM     21  N   UNL     1       5.907   6.109  15.017  0.00  0.00    +0.000 NA
ATOM     22  C   UNL     1       5.134   6.656  16.005  0.00  0.00    +0.000 A 
ENDBRANCH  13  17
ENDBRANCH   5   7
BRANCH   1  27
ATOM     23  C   UNL     1      -5.944  11.650  19.579  0.00  0.00    +0.000 C 
ATOM     24  C   UNL     1      -5.938  10.919  18.233  0.00  0.00    +0.000 C 
ATOM     25  C   UNL     1      -4.569  10.375  17.814  0.00  0.00    +0.000 C 
ATOM     26  C   UNL     1      -3.580  11.459  17.379  0.00  0.00    +0.000 C 
ATOM     27  N   UNL     1      -2.816  12.061  18.481  0.00  0.00    +0.000 N 
ATOM     28  C   UNL     1      -3.489  12.336  19.763  0.00  0.00    +0.000 C 
ATOM     29  C   UNL     1      -4.943  12.810  19.648  0.00  0.00    +0.000 C 
BRANCH  23  30
ATOM     30  N   UNL     1      -7.296  12.159  19.851  0.00  0.00    +0.000 NA
ATOM     31  H   UNL     1      -7.882  11.413  20.224  0.00  0.00    +0.000 HD
ATOM     32  H   UNL     1      -7.743  12.463  18.985  0.00  0.00    +0.000 HD
ENDBRANCH  23  30
ENDBRANCH   1  27
TORSDOF 4
ENDMDL
MODEL 3
REMARK VINA RESULT:      -8.4      2.485      3.901
REMARK  Name = 
REMARK  4 active torsions:
REMARK  status: ('A' for Active; 'I' for Inactive)
REMARK    1  A    between atoms: N_1  and  C_2
REMARK    2  A    between atoms: N_6  and  C_7
REMARK    3  A    between atoms: C_11  and  C_12
REMARK    4  A    between atoms: C_18  and  C_19
REMARK                            x       y       z     vdW  Elec       q    Type
REMARK                         _______ _______ _______ _____ _____    ______ ____
ROOT
ATOM      1  C   UNL     1      -1.728  11.801  21.782  0.00  0.00    +0.000 A 
ATOM      2  C   UNL     1      -1.392  11.336  23.054  0.00  0.00    +0.000 A 
ATOM      3  N   UNL     1      -0.407  10.436  23.343  0.00  0.00    +0.000 NA
ATOM      4  C   UNL     1       0.309   9.939  22.302  0.00  0.00    +0.000 A 
ATOM      5  C   UNL     1       0.108  10.292  20.986  0.00  0.00    +0.000 A 
ATOM      6  C   UNL     1      -0.930  11.263  20.761  0.00  0.00    +0.000 A 
ENDROOT
BRANCH   5   7
ATOM      7  C   UNL     1       0.890   9.765  19.833  0.00  0.00    +0.000 A 
ATOM      8  N   UNL     1       1.010  10.642  18.812  0.00  0.00    +0.000 NA
ATOM      9  N   UNL     1       1.726  10.036  17.887  0.00  0.00    +0.000 N 
ATOM     10  C   UNL     1       2.127   8.786  18.219  0.00  0.00    +0.000 A 
ATOM     11  C   UNL     1       2.903   7.923  17.482  0.00  0.00    +0.000 A 
ATOM     12  N   UNL     1       3.196   6.722  17.988  0.00  0.00    +0.000 NA
ATOM     13  C   UNL     1       2.737   6.341  19.205  0.00  0.00    +0.000 A 
ATOM     14  C   UNL     1       1.906   7.198  19.987  0.00  0.00    +0.000 A 
ATOM     15  C   UNL     1       1.599   8.509  19.482  0.00  0.00    +0.000 A 
ATOM     16  H   UNL     1       1.929  10.549  17.037  0.00  0.00    +0.000 HD
BRANCH  13  17
ATOM     17  C   UNL     1       3.271   4.989  19.563  0.00  0.00    +0.000 A 
ATOM     18  C   UNL     1       2.525   4.116  20.397  0.00  0.00    +0.000 A 
ATOM     19  C   UNL     1       2.989   2.850  20.764  0.00  0.00    +0.000 A 
ATOM     20  C   UNL     1       4.221   2.458  20.295  0.00  0.00    +0.000 A 
ATOM     21  N   UNL     1       4.997   3.248  19.520  0.00  0.00    +0.000 NA
ATOM     22  C   UNL     1       4.509   4.483  19.187  0.00  0.00    +0.000 A 
ENDBRANCH  13  17
ENDBRANCH   5   7
BRANCH   1  27
ATOM     23  C   UNL     1      -6.035  13.487  21.754  0.00  0.00    +0.000 C 
ATOM     24  C   UNL     1      -5.746  13.485  20.249  0.00  0.00    +0.000 C 
ATOM     25  C   UNL     1      -4.598  12.564  19.827  0.00  0.00    +0.000 C 
ATOM     26  C   UNL     1      -3.213  13.080  20.226  0.00  0.00    +0.000 C 
ATOM     27  N   UNL     1      -2.793  12.703  21.583  0.00  0.00    +0.000 N 
ATOM     28  C   UNL     1      -3.781  12.715  22.676  0.00  0.00    +0.000 C 
ATOM     29  C   UNL     1      -4.814  13.846  22.609  0.00  0.00    +0.000 C 
BRANCH  23  30
ATOM     30  N   UNL     1      -7.123  14.434  22.039  0.00  0.00    +0.000 NA
ATOM     31  H   UNL     1      -6.746  15.284  22.458  0.00  0.00    +0.000 HD
ATOM     32  H   UNL     1      -7.766  14.041  22.727  0.00  0.00    +0.000 HD
ENDBRANCH  23  30
ENDBRANCH   1  27
TORSDOF 4
ENDMDL
MODEL 4
REMARK VINA RESULT:      -8.3      1.198     10.417
REMARK  Name = 
REMARK  4 active torsions:
REMARK  status: ('A' for Active; 'I' for Inactive)
REMARK    1  A    between atoms: N_1  and  C_2
REMARK    2  A    between atoms: N_6  and  C_7
REMARK    3  A    between atoms: C_11  and  C_12
REMARK    4  A    between atoms: C_18  and  C_19
REMARK                            x       y       z     vdW  Elec       q    Type
REMARK                         _______ _______ _______ _____ _____    ______ ____
ROOT
ATOM      1  C   UNL     1       3.393   6.310  18.956  0.00  0.00    +0.000 A 
ATOM      2  C   UNL     1       2.756   5.627  19.993  0.00  0.00    +0.000 A 
ATOM      3  N   UNL     1       1.732   6.105  20.758  0.00  0.00    +0.000 NA
ATOM      4  C   UNL     1       1.293   7.363  20.496  0.00  0.00    +0.000 A 
ATOM      5  C   UNL     1       1.810   8.173  19.507  0.00  0.00    +0.000 A 
ATOM      6  C   UNL     1       2.869   7.591  18.727  0.00  0.00    +0.000 A 
ENDROOT
BRANCH   5   7
ATOM      7  C   UNL     1       1.335   9.551  19.200  0.00  0.00    +0.000 A 
ATOM      8  N   UNL     1       1.934  10.103  18.123  0.00  0.00    +0.000 NA
ATOM      9  N   UNL     1       1.405  11.301  17.979  0.00  0.00    +0.000 N 
ATOM     10  C   UNL     1       0.453  11.605  18.892  0.00  0.00    +0.000 A 
ATOM     11  C   UNL     1      -0.295  12.756  18.984  0.00  0.00    +0.000 A 
ATOM     12  N   UNL     1      -1.197  12.866  19.963  0.00  0.00    +0.000 NA
ATOM     13  C   UNL     1      -1.379  11.872  20.866  0.00  0.00    +0.000 A 
ATOM     14  C   UNL     1      -0.603  10.676  20.820  0.00  0.00    +0.000 A 
ATOM     15  C   UNL     1       0.355  10.514  19.759  0.00  0.00    +0.000 A 
ATOM     16  H   UNL     1       1.731  11.870  17.207  0.00  0.00    +0.000 HD
BRANCH  13  17
ATOM     17  C   UNL     1      -2.494  12.218  21.803  0.00  0.00    +0.000 A 
ATOM     18  C   UNL     1      -3.589  13.005  21.362  0.00  0.00    +0.000 A 
ATOM     19  C   UNL     1      -4.646  13.361  22.205  0.00  0.00    +0.000 A 
ATOM     20  C   UNL     1      -4.598  12.929  23.510  0.00  0.00    +0.000 A 
ATOM     21  N   UNL     1      -3.573  12.200  24.005  0.00  0.00    +0.000 NA
ATOM     22  C   UNL     1      -2.554  11.876  23.148  0.00  0.00    +0.000 A 
ENDBRANCH  13  17
ENDBRANCH   5   7
BRANCH   1  27
ATOM     23  C   UNL     1       6.226   5.304  15.441  0.00  0.00    +0.000 C 
ATOM     24  C   UNL     1       5.679   3.906  15.743  0.00  0.00    +0.000 C 
ATOM     25  C   UNL     1       4.367   3.897  16.534  0.00  0.00    +0.000 C 
ATOM     26  C   UNL     1       4.529   4.294  18.004  0.00  0.00    +0.000 C 
ATOM     27  N   UNL     1       4.472   5.741  18.250  0.00  0.00    +0.000 N 
ATOM     28  C   UNL     1       5.119   6.664  17.300  0.00  0.00    +0.000 C 
ATOM     29  C   UNL     1       6.436   6.161  16.696  0.00  0.00    +0.000 C 
BRANCH  23  30
ATOM     30  N   UNL     1       7.501   5.183  14.719  0.00  0.00    +0.000 NA
ATOM     31  H   UNL     1       7.348   5.304  13.718  0.00  0.00    +0.000 HD
ATOM     32  H   UNL     1       7.888   4.246  14.834  0.00  0.00    +0.000 HD
ENDBRANCH  23  30
ENDBRANCH   1  27
TORSDOF 4
ENDMDL
MODEL 5
REMARK VINA RESULT:      -8.3      2.548      9.892
REMARK  Name = 
REMARK  4 active torsions:
REMARK  status: ('A' for Active; 'I' for Inactive)
REMARK    1  A    between atoms: N_1  and  C_2
REMARK    2  A    between atoms: N_6  and  C_7
REMARK    3  A    between atoms: C_11  and  C_12
REMARK    4  A    between atoms: C_18  and  C_19
REMARK                            x       y       z     vdW  Elec       q    Type
REMARK                         _______ _______ _______ _____ _____    ______ ____
ROOT
ATOM      1  C   UNL     1       2.496   6.821  19.122  0.00  0.00    +0.000 A 
ATOM      2  C   UNL     1       2.744   7.431  17.893  0.00  0.00    +0.000 A 
ATOM      3  N   UNL     1       2.371   8.695  17.535  0.00  0.00    +0.000 NA
ATOM      4  C   UNL     1       1.689   9.427  18.454  0.00  0.00    +0.000 A 
ATOM      5  C   UNL     1       1.363   8.977  19.715  0.00  0.00    +0.000 A 
ATOM      6  C   UNL     1       1.811   7.646  20.028  0.00  0.00    +0.000 A 
ENDROOT
BRANCH   5   7
ATOM      7  C   UNL     1       0.625   9.769  20.738  0.00  0.00    +0.000 A 
ATOM      8  N   UNL     1       0.440   9.111  21.903  0.00  0.00    +0.000 NA
ATOM      9  N   UNL     1      -0.211   9.938  22.696  0.00  0.00    +0.000 N 
ATOM     10  C   UNL     1      -0.474  11.148  22.147  0.00  0.00    +0.000 A 
ATOM     11  C   UNL     1      -1.105  12.222  22.729  0.00  0.00    +0.000 A 
ATOM     12  N   UNL     1      -1.268  13.341  22.017  0.00  0.00    +0.000 NA
ATOM     13  C   UNL     1      -0.831  13.430  20.738  0.00  0.00    +0.000 A 
ATOM     14  C   UNL     1      -0.197  12.328  20.091  0.00  0.00    +0.000 A 
ATOM     15  C   UNL     1       0.021  11.120  20.840  0.00  0.00    +0.000 A 
ATOM     16  H   UNL     1      -0.436   9.617  23.630  0.00  0.00    +0.000 HD
BRANCH  13  17
ATOM     17  C   UNL     1      -1.070  14.808  20.201  0.00  0.00    +0.000 A 
ATOM     18  C   UNL     1      -0.295  15.307  19.123  0.00  0.00    +0.000 A 
ATOM     19  C   UNL     1      -0.477  16.589  18.598  0.00  0.00    +0.000 A 
ATOM     20  C   UNL     1      -1.445  17.383  19.168  0.00  0.00    +0.000 A 
ATOM     21  N   UNL     1      -2.202  16.983  20.214  0.00  0.00    +0.000 NA
ATOM     22  C   UNL     1      -1.988  15.722  20.703  0.00  0.00    +0.000 A 
ENDBRANCH  13  17
ENDBRANCH   5   7
BRANCH   1  27
ATOM     23  C   UNL     1       3.074   2.274  18.506  0.00  0.00    +0.000 C 
ATOM     24  C   UNL     1       2.177   2.256  19.747  0.00  0.00    +0.000 C 
ATOM     25  C   UNL     1       1.393   3.552  19.980  0.00  0.00    +0.000 C 
ATOM     26  C   UNL     1       2.259   4.720  20.460  0.00  0.00    +0.000 C 
ATOM     27  N   UNL     1       2.888   5.492  19.380  0.00  0.00    +0.000 N 
ATOM     28  C   UNL     1       3.425   4.787  18.202  0.00  0.00    +0.000 C 
ATOM     29  C   UNL     1       4.081   3.431  18.497  0.00  0.00    +0.000 C 
BRANCH  23  30
ATOM     30  N   UNL     1       3.801   0.999  18.414  0.00  0.00    +0.000 NA
ATOM     31  H   UNL     1       4.619   1.018  19.022  0.00  0.00    +0.000 HD
ATOM     32  H   UNL     1       4.156   0.859  17.467  0.00  0.00    +0.000 HD
ENDBRANCH  23  30
ENDBRANCH   1  27
TORSDOF 4
ENDMDL
MODEL 6
REMARK VINA RESULT:      -8.3      0.779      1.329
REMARK  Name = 
REMARK  4 active torsions:
REMARK  status: ('A' for Active; 'I' for Inactive)
REMARK    1  A    between atoms: N_1  and  C_2
REMARK    2  A    between atoms: N_6  and  C_7
REMARK    3  A    between atoms: C_11  and  C_12
REMARK    4  A    between atoms: C_18  and  C_19
REMARK                            x       y       z     vdW  Elec       q    Type
REMARK                         _______ _______ _______ _____ _____    ______ ____
ROOT
ATOM      1  C   UNL     1       0.025  11.607  20.134  0.00  0.00    +0.000 A 
ATOM      2  C   UNL     1       0.535  12.247  19.004  0.00  0.00    +0.000 A 
ATOM      3  N   UNL     1       1.402  11.706  18.100  0.00  0.00    +0.000 NA
ATOM      4  C   UNL     1       1.816  10.431  18.318  0.00  0.00    +0.000 A 
ATOM      5  C   UNL     1       1.408   9.657  19.382  0.00  0.00    +0.000 A 
ATOM      6  C   UNL     1       0.475  10.286  20.279  0.00  0.00    +0.000 A 
ENDROOT
BRANCH   5   7
ATOM      7  C   UNL     1       1.843   8.254  19.631  0.00  0.00    +0.000 A 
ATOM      8  N   UNL     1       1.244   7.682  20.698  0.00  0.00    +0.000 NA
ATOM      9  N   UNL     1       1.722   6.457  20.778  0.00  0.00    +0.000 N 
ATOM     10  C   UNL     1       2.612   6.140  19.808  0.00  0.00    +0.000 A 
ATOM     11  C   UNL     1       3.255   4.940  19.608  0.00  0.00    +0.000 A 
ATOM     12  N   UNL     1       4.102   4.822  18.582  0.00  0.00    +0.000 NA
ATOM     13  C   UNL     1       4.342   5.861  17.745  0.00  0.00    +0.000 A 
ATOM     14  C   UNL     1       3.716   7.128  17.937  0.00  0.00    +0.000 A 
ATOM     15  C   UNL     1       2.775   7.278  19.014  0.00  0.00    +0.000 A 
ATOM     16  H   UNL     1       1.378   5.864  21.524  0.00  0.00    +0.000 HD
BRANCH  13  17
ATOM     17  C   UNL     1       5.267   5.440  16.646  0.00  0.00    +0.000 A 
ATOM     18  C   UNL     1       4.883   4.429  15.728  0.00  0.00    +0.000 A 
ATOM     19  C   UNL     1       5.718   3.997  14.693  0.00  0.00    +0.000 A 
ATOM     20  C   UNL     1       6.958   4.584  14.584  0.00  0.00    +0.000 A 
ATOM     21  N   UNL     1       7.399   5.533  15.439  0.00  0.00    +0.000 NA
ATOM     22  C   UNL     1       6.553   5.924  16.442  0.00  0.00    +0.000 A 
ENDBRANCH  13  17
ENDBRANCH   5   7
BRANCH   1  27
ATOM     23  C   UNL     1      -3.349  12.242  23.234  0.00  0.00    +0.000 C 
ATOM     24  C   UNL     1      -3.894  13.088  22.079  0.00  0.00    +0.000 C 
ATOM     25  C   UNL     1      -3.290  12.755  20.711  0.00  0.00    +0.000 C 
ATOM     26  C   UNL     1      -1.842  13.222  20.544  0.00  0.00    +0.000 C 
ATOM     27  N   UNL     1      -0.837  12.268  21.032  0.00  0.00    +0.000 N 
ATOM     28  C   UNL     1      -1.091  11.521  22.278  0.00  0.00    +0.000 C 
ATOM     29  C   UNL     1      -1.823  12.309  23.372  0.00  0.00    +0.000 C 
BRANCH  23  30
ATOM     30  N   UNL     1      -3.969  12.680  24.493  0.00  0.00    +0.000 NA
ATOM     31  H   UNL     1      -4.974  12.508  24.466  0.00  0.00    +0.000 HD
ATOM     32  H   UNL     1      -3.858  13.687  24.613  0.00  0.00    +0.000 HD
ENDBRANCH  23  30
ENDBRANCH   1  27
TORSDOF 4
ENDMDL
MODEL 7
REMARK VINA RESULT:      -8.2      1.990      2.831
REMARK  Name = 
REMARK  4 active torsions:
REMARK  status: ('A' for Active; 'I' for Inactive)
REMARK    1  A    between atoms: N_1  and  C_2
REMARK    2  A    between atoms: N_6  and  C_7
REMARK    3  A    between atoms: C_11  and  C_12
REMARK    4  A    between atoms: C_18  and  C_19
REMARK                            x       y       z     vdW  Elec       q    Type
REMARK                         _______ _______ _______ _____ _____    ______ ____
ROOT
ATOM      1  C   UNL     1       0.076  10.057  19.892  0.00  0.00    +0.000 A 
ATOM      2  C   UNL     1       0.569  10.680  21.039  0.00  0.00    +0.000 A 
ATOM      3  N   UNL     1       1.422  10.125  21.948  0.00  0.00    +0.000 NA
ATOM      4  C   UNL     1       1.825   8.847  21.726  0.00  0.00    +0.000 A 
ATOM      5  C   UNL     1       1.436   8.090  20.642  0.00  0.00    +0.000 A 
ATOM      6  C   UNL     1       0.556   8.751  19.715  0.00  0.00    +0.000 A 
ENDROOT
BRANCH   5   7
ATOM      7  C   UNL     1       1.875   6.692  20.377  0.00  0.00    +0.000 A 
ATOM      8  N   UNL     1       1.262   5.774  21.155  0.00  0.00    +0.000 NA
ATOM      9  N   UNL     1       1.746   4.602  20.797  0.00  0.00    +0.000 N 
ATOM     10  C   UNL     1       2.655   4.656  19.794  0.00  0.00    +0.000 A 
ATOM     11  C   UNL     1       3.309   3.609  19.188  0.00  0.00    +0.000 A 
ATOM     12  N   UNL     1       4.175   3.868  18.204  0.00  0.00    +0.000 NA
ATOM     13  C   UNL     1       4.422   5.139  17.802  0.00  0.00    +0.000 A 
ATOM     14  C   UNL     1       3.785   6.252  18.426  0.00  0.00    +0.000 A 
ATOM     15  C   UNL     1       2.824   6.004  19.467  0.00  0.00    +0.000 A 
ATOM     16  H   UNL     1       1.394   3.780  21.272  0.00  0.00    +0.000 HD
BRANCH  13  17
ATOM     17  C   UNL     1       5.369   5.143  16.642  0.00  0.00    +0.000 A 
ATOM     18  C   UNL     1       5.106   4.352  15.494  0.00  0.00    +0.000 A 
ATOM     19  C   UNL     1       5.966   4.317  14.393  0.00  0.00    +0.000 A 
ATOM     20  C   UNL     1       7.110   5.079  14.450  0.00  0.00    +0.000 A 
ATOM     21  N   UNL     1       7.438   5.834  15.522  0.00  0.00    +0.000 NA
ATOM     22  C   UNL     1       6.571   5.837  16.582  0.00  0.00    +0.000 A 
ENDBRANCH  13  17
ENDBRANCH   5   7
BRANCH   1  27
ATOM     23  C   UNL     1      -3.955  11.496  18.140  0.00  0.00    +0.000 C 
ATOM     24  C   UNL     1      -3.455  10.640  16.972  0.00  0.00    +0.000 C 
ATOM     25  C   UNL     1      -2.373   9.624  17.351  0.00  0.00    +0.000 C 
ATOM     26  C   UNL     1      -1.009  10.254  17.646  0.00  0.00    +0.000 C 
ATOM     27  N   UNL     1      -0.836  10.704  19.034  0.00  0.00    +0.000 N 
ATOM     28  C   UNL     1      -1.963  11.348  19.733  0.00  0.00    +0.000 C 
ATOM     29  C   UNL     1      -2.837  12.258  18.861  0.00  0.00    +0.000 C 
BRANCH  23  30
ATOM     30  N   UNL     1      -4.955  12.455  17.646  0.00  0.00    +0.000 NA
ATOM     31  H   UNL     1      -5.251  13.072  18.402  0.00  0.00    +0.000 HD
ATOM     32  H   UNL     1      -5.794  11.966  17.334  0.00  0.00    +0.000 HD
ENDBRANCH  23  30
ENDBRANCH   1  27
TORSDOF 4
ENDMDL
MODEL 8
REMARK VINA RESULT:      -8.2      2.741      3.645
REMARK  Name = 
REMARK  4 active torsions:
REMARK  status: ('A' for Active; 'I' for Inactive)
REMARK    1  A    between atoms: N_1  and  C_2
REMARK    2  A    between atoms: N_6  and  C_7
REMARK    3  A    between atoms: C_11  and  C_12
REMARK    4  A    between atoms: C_18  and  C_19
REMARK                            x       y       z     vdW  Elec       q    Type
REMARK                         _______ _______ _______ _____ _____    ______ ____
ROOT
ATOM      1  C   UNL     1       0.556  12.645  18.953  0.00  0.00    +0.000 A 
ATOM      2  C   UNL     1      -0.632  12.503  18.237  0.00  0.00    +0.000 A 
ATOM      3  N   UNL     1      -1.256  11.325  17.944  0.00  0.00    +0.000 NA
ATOM      4  C   UNL     1      -0.666  10.182  18.381  0.00  0.00    +0.000 A 
ATOM      5  C   UNL     1       0.507  10.144  19.103  0.00  0.00    +0.000 A 
ATOM      6  C   UNL     1       1.092  11.426  19.394  0.00  0.00    +0.000 A 
ENDROOT
BRANCH   5   7
ATOM      7  C   UNL     1       1.162   8.902  19.599  0.00  0.00    +0.000 A 
ATOM      8  N   UNL     1       0.790   8.555  20.851  0.00  0.00    +0.000 NA
ATOM      9  N   UNL     1       1.441   7.445  21.136  0.00  0.00    +0.000 N 
ATOM     10  C   UNL     1       2.236   6.991  20.138  0.00  0.00    +0.000 A 
ATOM     11  C   UNL     1       3.009   5.854  20.123  0.00  0.00    +0.000 A 
ATOM     12  N   UNL     1       3.727   5.573  19.032  0.00  0.00    +0.000 NA
ATOM     13  C   UNL     1       3.710   6.389  17.950  0.00  0.00    +0.000 A 
ATOM     14  C   UNL     1       2.943   7.591  17.938  0.00  0.00    +0.000 A 
ATOM     15  C   UNL     1       2.135   7.906  19.086  0.00  0.00    +0.000 A 
ATOM     16  H   UNL     1       1.282   7.025  22.044  0.00  0.00    +0.000 HD
BRANCH  13  17
ATOM     17  C   UNL     1       4.537   5.806  16.846  0.00  0.00    +0.000 A 
ATOM     18  C   UNL     1       4.700   4.401  16.732  0.00  0.00    +0.000 A 
ATOM     19  C   UNL     1       5.471   3.814  15.724  0.00  0.00    +0.000 A 
ATOM     20  C   UNL     1       6.093   4.649  14.825  0.00  0.00    +0.000 A 
ATOM     21  N   UNL     1       6.003   5.997  14.890  0.00  0.00    +0.000 NA
ATOM     22  C   UNL     1       5.243   6.532  15.895  0.00  0.00    +0.000 A 
ENDBRANCH  13  17
ENDBRANCH   5   7
BRANCH   1  27
ATOM     23  C   UNL     1       1.633  17.095  18.294  0.00  0.00    +0.000 C 
ATOM     24  C   UNL     1       3.023  16.467  18.151  0.00  0.00    +0.000 C 
ATOM     25  C   UNL     1       3.010  14.966  17.844  0.00  0.00    +0.000 C 
ATOM     26  C   UNL     1       2.594  14.095  19.032  0.00  0.00    +0.000 C 
ATOM     27  N   UNL     1       1.143  13.909  19.169  0.00  0.00    +0.000 N 
ATOM     28  C   UNL     1       0.239  15.042  18.904  0.00  0.00    +0.000 C 
ATOM     29  C   UNL     1       0.761  16.412  19.356  0.00  0.00    +0.000 C 
BRANCH  23  30
ATOM     30  N   UNL     1       1.776  18.520  18.628  0.00  0.00    +0.000 NA
ATOM     31  H   UNL     1       0.856  18.944  18.751  0.00  0.00    +0.000 HD
ATOM     32  H   UNL     1       2.219  19.023  17.859  0.00  0.00    +0.000 HD
ENDBRANCH  23  30
ENDBRANCH   1  27
TORSDOF 4
ENDMDL
MODEL 9
REMARK VINA RESULT:      -8.1      1.511     10.492
REMARK  Name = 
REMARK  4 active torsions:
REMARK  status: ('A' for Active; 'I' for Inactive)
REMARK    1  A    between atoms: N_1  and  C_2
REMARK    2  A    between atoms: N_6  and  C_7
REMARK    3  A    between atoms: C_11  and  C_12
REMARK    4  A    between atoms: C_18  and  C_19
REMARK                            x       y       z     vdW  Elec       q    Type
REMARK                         _______ _______ _______ _____ _____    ______ ____
ROOT
ATOM      1  C   UNL     1       2.974   6.581  19.076  0.00  0.00    +0.000 A 
ATOM      2  C   UNL     1       2.379   5.928  20.156  0.00  0.00    +0.000 A 
ATOM      3  N   UNL     1       1.409   6.441  20.967  0.00  0.00    +0.000 NA
ATOM      4  C   UNL     1       0.983   7.705  20.708  0.00  0.00    +0.000 A 
ATOM      5  C   UNL     1       1.463   8.487  19.681  0.00  0.00    +0.000 A 
ATOM      6  C   UNL     1       2.466   7.871  18.854  0.00  0.00    +0.000 A 
ENDROOT
BRANCH   5   7
ATOM      7  C   UNL     1       1.001   9.871  19.376  0.00  0.00    +0.000 A 
ATOM      8  N   UNL     1       1.616  10.424  18.308  0.00  0.00    +0.000 NA
ATOM      9  N   UNL     1       1.098  11.628  18.166  0.00  0.00    +0.000 N 
ATOM     10  C   UNL     1       0.139  11.934  19.072  0.00  0.00    +0.000 A 
ATOM     11  C   UNL     1      -0.601  13.090  19.163  0.00  0.00    +0.000 A 
ATOM     12  N   UNL     1      -1.511  13.201  20.135  0.00  0.00    +0.000 NA
ATOM     13  C   UNL     1      -1.710  12.203  21.030  0.00  0.00    +0.000 A 
ATOM     14  C   UNL     1      -0.943  11.002  20.985  0.00  0.00    +0.000 A 
ATOM     15  C   UNL     1       0.024  10.839  19.932  0.00  0.00    +0.000 A 
ATOM     16  H   UNL     1       1.435  12.199  17.401  0.00  0.00    +0.000 HD
BRANCH  13  17
ATOM     17  C   UNL     1      -2.831  12.553  21.959  0.00  0.00    +0.000 A 
ATOM     18  C   UNL     1      -2.567  12.907  23.307  0.00  0.00    +0.000 A 
ATOM     19  C   UNL     1      -3.582  13.231  24.211  0.00  0.00    +0.000 A 
ATOM     20  C   UNL     1      -4.881  13.191  23.758  0.00  0.00    +0.000 A 
ATOM     21  N   UNL     1      -5.207  12.837  22.494  0.00  0.00    +0.000 NA
ATOM     22  C   UNL     1      -4.183  12.522  21.641  0.00  0.00    +0.000 A 
ENDBRANCH  13  17
ENDBRANCH   5   7
BRANCH   1  27
ATOM     23  C   UNL     1       7.177   5.011  17.952  0.00  0.00    +0.000 C 
ATOM     24  C   UNL     1       6.999   6.079  16.868  0.00  0.00    +0.000 C 
ATOM     25  C   UNL     1       5.934   7.133  17.186  0.00  0.00    +0.000 C 
ATOM     26  C   UNL     1       4.498   6.609  17.092  0.00  0.00    +0.000 C 
ATOM     27  N   UNL     1       4.001   5.979  18.322  0.00  0.00    +0.000 N 
ATOM     28  C   UNL     1       4.904   5.126  19.116  0.00  0.00    +0.000 C 
ATOM     29  C   UNL     1       5.879   4.270  18.297  0.00  0.00    +0.000 C 
BRANCH  23  30
ATOM     30  N   UNL     1       8.189   4.039  17.516  0.00  0.00    +0.000 NA
ATOM     31  H   UNL     1       8.999   4.075  18.135  0.00  0.00    +0.000 HD
ATOM     32  H   UNL     1       8.534   4.277  16.585  0.00  0.00    +0.000 HD
ENDBRANCH  23  30
ENDBRANCH   1  27
TORSDOF 4
ENDMDL
