MODEL 1
REMARK VINA RESULT:      -7.1      0.000      0.000
REMARK  Name = 
REMARK  4 active torsions:
REMARK  status: ('A' for Active; 'I' for Inactive)
REMARK    1  A    between atoms: S_2  and  C_4
REMARK    2  A    between atoms: S_2  and  C_11
REMARK    3  A    between atoms: C_7  and  O_8
REMARK    4  A    between atoms: C_17  and  O_18
REMARK                            x       y       z     vdW  Elec       q    Type
REMARK                         _______ _______ _______ _____ _____    ______ ____
ROOT
ATOM      1  O   UNL     1       3.406   2.503  18.059  0.00  0.00    +0.000 OA
ATOM      2  S   UNL     1       4.297   3.522  18.582  0.00  0.00    +0.000 S 
ATOM      3  O   UNL     1       5.207   3.182  19.667  0.00  0.00    +0.000 OA
ENDROOT
BRANCH   2   4
ATOM      4  C   UNL     1       3.288   4.865  19.162  0.00  0.00    +0.000 A 
ATOM      5  C   UNL     1       3.286   6.065  18.438  0.00  0.00    +0.000 A 
ATOM      6  C   UNL     1       2.523   7.139  18.891  0.00  0.00    +0.000 A 
ATOM      7 CL   UNL     1       2.518   8.616  18.008  0.00  0.00    +0.000 Cl
ATOM      8  C   UNL     1       1.766   7.030  20.055  0.00  0.00    +0.000 A 
ATOM      9  C   UNL     1       1.773   5.836  20.780  0.00  0.00    +0.000 A 
ATOM     10  C   UNL     1       2.536   4.755  20.334  0.00  0.00    +0.000 A 
BRANCH  10  11
ATOM     11  O   UNL     1       2.535   3.606  21.064  0.00  0.00    +0.000 OA
ATOM     12  H   UNL     1       3.401   3.487  21.494  0.00  0.00    +0.000 HD
ENDBRANCH  10  11
ENDBRANCH   2   4
BRANCH   2  13
ATOM     13  C   UNL     1       5.324   4.102  17.248  0.00  0.00    +0.000 A 
ATOM     14  C   UNL     1       4.878   3.980  15.928  0.00  0.00    +0.000 A 
ATOM     15  C   UNL     1       5.683   4.422  14.877  0.00  0.00    +0.000 A 
ATOM     16  C   UNL     1       6.942   4.947  15.157  0.00  0.00    +0.000 A 
ATOM     17  C   UNL     1       7.411   5.031  16.465  0.00  0.00    +0.000 A 
ATOM     18  C   UNL     1       6.601   4.606  17.521  0.00  0.00    +0.000 A 
BRANCH  16  19
ATOM     19  O   UNL     1       7.759   5.389  14.160  0.00  0.00    +0.000 OA
ATOM     20  H   UNL     1       7.322   6.124  13.699  0.00  0.00    +0.000 HD
ENDBRANCH  16  19
ENDBRANCH   2  13
TORSDOF 4
ENDMDL
MODEL 2
REMARK VINA RESULT:      -7.1      0.063      1.146
REMARK  Name = 
REMARK  4 active torsions:
REMARK  status: ('A' for Active; 'I' for Inactive)
REMARK    1  A    between atoms: S_2  and  C_4
REMARK    2  A    between atoms: S_2  and  C_11
REMARK    3  A    between atoms: C_7  and  O_8
REMARK    4  A    between atoms: C_17  and  O_18
REMARK                            x       y       z     vdW  Elec       q    Type
REMARK                         _______ _______ _______ _____ _____    ______ ____
ROOT
ATOM      1  O   UNL     1       3.349   2.483  18.052  0.00  0.00    +0.000 OA
ATOM      2  S   UNL     1       4.251   3.483  18.593  0.00  0.00    +0.000 S 
ATOM      3  O   UNL     1       5.140   3.120  19.687  0.00  0.00    +0.000 OA
ENDROOT
BRANCH   2   4
ATOM      4  C   UNL     1       3.259   4.840  19.169  0.00  0.00    +0.000 A 
ATOM      5  C   UNL     1       3.283   6.042  18.448  0.00  0.00    +0.000 A 
ATOM      6  C   UNL     1       2.534   7.128  18.898  0.00  0.00    +0.000 A 
ATOM      7 CL   UNL     1       2.561   8.607  18.021  0.00  0.00    +0.000 Cl
ATOM      8  C   UNL     1       1.764   7.027  20.054  0.00  0.00    +0.000 A 
ATOM      9  C   UNL     1       1.744   5.831  20.776  0.00  0.00    +0.000 A 
ATOM     10  C   UNL     1       2.495   4.739  20.333  0.00  0.00    +0.000 A 
BRANCH  10  11
ATOM     11  O   UNL     1       2.468   3.587  21.059  0.00  0.00    +0.000 OA
ATOM     12  H   UNL     1       3.360   3.388  21.394  0.00  0.00    +0.000 HD
ENDBRANCH  10  11
ENDBRANCH   2   4
BRANCH   2  13
ATOM     13  C   UNL     1       5.306   4.052  17.276  0.00  0.00    +0.000 A 
ATOM     14  C   UNL     1       6.552   4.611  17.581  0.00  0.00    +0.000 A 
ATOM     15  C   UNL     1       7.379   5.069  16.554  0.00  0.00    +0.000 A 
ATOM     16  C   UNL     1       6.934   4.996  15.237  0.00  0.00    +0.000 A 
ATOM     17  C   UNL     1       5.678   4.482  14.930  0.00  0.00    +0.000 A 
ATOM     18  C   UNL     1       4.854   4.007  15.952  0.00  0.00    +0.000 A 
BRANCH  16  19
ATOM     19  O   UNL     1       7.711   5.433  14.205  0.00  0.00    +0.000 OA
ATOM     20  H   UNL     1       7.221   6.110  13.710  0.00  0.00    +0.000 HD
ENDBRANCH  16  19
ENDBRANCH   2  13
TORSDOF 4
ENDMDL
MODEL 3
REMARK VINA RESULT:      -7.0      2.349      5.541
REMARK  Name = 
REMARK  4 active torsions:
REMARK  status: ('A' for Active; 'I' for Inactive)
REMARK    1  A    between atoms: S_2  and  C_4
REMARK    2  A    between atoms: S_2  and  C_11
REMARK    3  A    between atoms: C_7  and  O_8
REMARK    4  A    between atoms: C_17  and  O_18
REMARK                            x       y       z     vdW  Elec       q    Type
REMARK                         _______ _______ _______ _____ _____    ______ ____
ROOT
ATOM      1  O   UNL     1       3.908   3.156  19.655  0.00  0.00    +0.000 OA
ATOM      2  S   UNL     1       3.507   3.900  18.475  0.00  0.00    +0.000 S 
ATOM      3  O   UNL     1       2.510   3.331  17.581  0.00  0.00    +0.000 OA
ENDROOT
BRANCH   2   4
ATOM      4  C   UNL     1       4.967   4.181  17.502  0.00  0.00    +0.000 A 
ATOM      5  C   UNL     1       4.900   3.975  16.117  0.00  0.00    +0.000 A 
ATOM      6  C   UNL     1       6.041   4.163  15.339  0.00  0.00    +0.000 A 
ATOM      7 CL   UNL     1       5.968   3.910  13.640  0.00  0.00    +0.000 Cl
ATOM      8  C   UNL     1       7.243   4.552  15.927  0.00  0.00    +0.000 A 
ATOM      9  C   UNL     1       7.311   4.752  17.307  0.00  0.00    +0.000 A 
ATOM     10  C   UNL     1       6.173   4.563  18.094  0.00  0.00    +0.000 A 
BRANCH  10  11
ATOM     11  O   UNL     1       6.267   4.753  19.440  0.00  0.00    +0.000 OA
ATOM     12  H   UNL     1       6.510   5.677  19.626  0.00  0.00    +0.000 HD
ENDBRANCH  10  11
ENDBRANCH   2   4
BRANCH   2  13
ATOM     13  C   UNL     1       2.850   5.470  19.003  0.00  0.00    +0.000 A 
ATOM     14  C   UNL     1       2.174   5.561  20.224  0.00  0.00    +0.000 A 
ATOM     15  C   UNL     1       1.647   6.785  20.638  0.00  0.00    +0.000 A 
ATOM     16  C   UNL     1       1.770   7.896  19.807  0.00  0.00    +0.000 A 
ATOM     17  C   UNL     1       2.403   7.803  18.572  0.00  0.00    +0.000 A 
ATOM     18  C   UNL     1       2.947   6.584  18.161  0.00  0.00    +0.000 A 
BRANCH  16  19
ATOM     19  O   UNL     1       1.269   9.110  20.174  0.00  0.00    +0.000 OA
ATOM     20  H   UNL     1       0.347   9.170  19.875  0.00  0.00    +0.000 HD
ENDBRANCH  16  19
ENDBRANCH   2  13
TORSDOF 4
ENDMDL
MODEL 4
REMARK VINA RESULT:      -6.9      2.386      5.495
REMARK  Name = 
REMARK  4 active torsions:
REMARK  status: ('A' for Active; 'I' for Inactive)
REMARK    1  A    between atoms: S_2  and  C_4
REMARK    2  A    between atoms: S_2  and  C_11
REMARK    3  A    between atoms: C_7  and  O_8
REMARK    4  A    between atoms: C_17  and  O_18
REMARK                            x       y       z     vdW  Elec       q    Type
REMARK                         _______ _______ _______ _____ _____    ______ ____
ROOT
ATOM      1  O   UNL     1       3.663   3.236  19.623  0.00  0.00    +0.000 OA
ATOM      2  S   UNL     1       3.331   3.987  18.427  0.00  0.00    +0.000 S 
ATOM      3  O   UNL     1       2.356   3.442  17.493  0.00  0.00    +0.000 OA
ENDROOT
BRANCH   2   4
ATOM      4  C   UNL     1       4.837   4.226  17.513  0.00  0.00    +0.000 A 
ATOM      5  C   UNL     1       4.815   4.041  16.124  0.00  0.00    +0.000 A 
ATOM      6  C   UNL     1       5.991   4.196  15.392  0.00  0.00    +0.000 A 
ATOM      7 CL   UNL     1       5.973   3.968  13.688  0.00  0.00    +0.000 Cl
ATOM      8  C   UNL     1       7.183   4.532  16.030  0.00  0.00    +0.000 A 
ATOM      9  C   UNL     1       7.206   4.710  17.415  0.00  0.00    +0.000 A 
ATOM     10  C   UNL     1       6.032   4.554  18.155  0.00  0.00    +0.000 A 
BRANCH  10  11
ATOM     11  O   UNL     1       6.082   4.722  19.506  0.00  0.00    +0.000 OA
ATOM     12  H   UNL     1       6.989   4.569  19.824  0.00  0.00    +0.000 HD
ENDBRANCH  10  11
ENDBRANCH   2   4
BRANCH   2  13
ATOM     13  C   UNL     1       2.695   5.575  18.923  0.00  0.00    +0.000 A 
ATOM     14  C   UNL     1       2.863   6.681  18.083  0.00  0.00    +0.000 A 
ATOM     15  C   UNL     1       2.378   7.930  18.471  0.00  0.00    +0.000 A 
ATOM     16  C   UNL     1       1.762   8.066  19.713  0.00  0.00    +0.000 A 
ATOM     17  C   UNL     1       1.630   6.980  20.573  0.00  0.00    +0.000 A 
ATOM     18  C   UNL     1       2.100   5.724  20.181  0.00  0.00    +0.000 A 
BRANCH  16  19
ATOM     19  O   UNL     1       1.274   9.269  20.130  0.00  0.00    +0.000 OA
ATOM     20  H   UNL     1       1.381   9.915  19.413  0.00  0.00    +0.000 HD
ENDBRANCH  16  19
ENDBRANCH   2  13
TORSDOF 4
ENDMDL
MODEL 5
REMARK VINA RESULT:      -6.7      2.709      5.200
REMARK  Name = 
REMARK  4 active torsions:
REMARK  status: ('A' for Active; 'I' for Inactive)
REMARK    1  A    between atoms: S_2  and  C_4
REMARK    2  A    between atoms: S_2  and  C_11
REMARK    3  A    between atoms: C_7  and  O_8
REMARK    4  A    between atoms: C_17  and  O_18
REMARK                            x       y       z     vdW  Elec       q    Type
REMARK                         _______ _______ _______ _____ _____    ______ ____
ROOT
ATOM      1  O   UNL     1       6.195   4.197  15.522  0.00  0.00    +0.000 OA
ATOM      2  S   UNL     1       5.535   5.351  16.103  0.00  0.00    +0.000 S 
ATOM      3  O   UNL     1       5.096   6.432  15.233  0.00  0.00    +0.000 OA
ENDROOT
BRANCH   2   4
ATOM      4  C   UNL     1       6.655   6.066  17.283  0.00  0.00    +0.000 A 
ATOM      5  C   UNL     1       7.017   7.412  17.134  0.00  0.00    +0.000 A 
ATOM      6  C   UNL     1       7.915   7.985  18.032  0.00  0.00    +0.000 A 
ATOM      7 CL   UNL     1       8.367   9.635  17.854  0.00  0.00    +0.000 Cl
ATOM      8  C   UNL     1       8.454   7.232  19.073  0.00  0.00    +0.000 A 
ATOM      9  C   UNL     1       8.097   5.889  19.218  0.00  0.00    +0.000 A 
ATOM     10  C   UNL     1       7.199   5.307  18.321  0.00  0.00    +0.000 A 
BRANCH  10  11
ATOM     11  O   UNL     1       6.875   3.994  18.476  0.00  0.00    +0.000 OA
ATOM     12  H   UNL     1       7.178   3.681  19.347  0.00  0.00    +0.000 HD
ENDBRANCH  10  11
ENDBRANCH   2   4
BRANCH   2  13
ATOM     13  C   UNL     1       4.076   4.788  16.955  0.00  0.00    +0.000 A 
ATOM     14  C   UNL     1       3.372   5.672  17.780  0.00  0.00    +0.000 A 
ATOM     15  C   UNL     1       2.234   5.234  18.458  0.00  0.00    +0.000 A 
ATOM     16  C   UNL     1       1.834   3.906  18.334  0.00  0.00    +0.000 A 
ATOM     17  C   UNL     1       2.555   3.009  17.550  0.00  0.00    +0.000 A 
ATOM     18  C   UNL     1       3.685   3.447  16.855  0.00  0.00    +0.000 A 
BRANCH  16  19
ATOM     19  O   UNL     1       0.729   3.438  18.980  0.00  0.00    +0.000 OA
ATOM     20  H   UNL     1       0.160   4.190  19.211  0.00  0.00    +0.000 HD
ENDBRANCH  16  19
ENDBRANCH   2  13
TORSDOF 4
ENDMDL
MODEL 6
REMARK VINA RESULT:      -6.7      2.739      5.166
REMARK  Name = 
REMARK  4 active torsions:
REMARK  status: ('A' for Active; 'I' for Inactive)
REMARK    1  A    between atoms: S_2  and  C_4
REMARK    2  A    between atoms: S_2  and  C_11
REMARK    3  A    between atoms: C_7  and  O_8
REMARK    4  A    between atoms: C_17  and  O_18
REMARK                            x       y       z     vdW  Elec       q    Type
REMARK                         _______ _______ _______ _____ _____    ______ ____
ROOT
ATOM      1  O   UNL     1       6.205   4.330  15.471  0.00  0.00    +0.000 OA
ATOM      2  S   UNL     1       5.536   5.443  16.118  0.00  0.00    +0.000 S 
ATOM      3  O   UNL     1       5.051   6.550  15.306  0.00  0.00    +0.000 OA
ENDROOT
BRANCH   2   4
ATOM      4  C   UNL     1       6.671   6.133  17.299  0.00  0.00    +0.000 A 
ATOM      5  C   UNL     1       7.025   7.484  17.179  0.00  0.00    +0.000 A 
ATOM      6  C   UNL     1       7.935   8.037  18.078  0.00  0.00    +0.000 A 
ATOM      7 CL   UNL     1       8.376   9.693  17.937  0.00  0.00    +0.000 Cl
ATOM      8  C   UNL     1       8.493   7.259  19.090  0.00  0.00    +0.000 A 
ATOM      9  C   UNL     1       8.145   5.912  19.205  0.00  0.00    +0.000 A 
ATOM     10  C   UNL     1       7.236   5.349  18.307  0.00  0.00    +0.000 A 
BRANCH  10  11
ATOM     11  O   UNL     1       6.920   4.030  18.433  0.00  0.00    +0.000 OA
ATOM     12  H   UNL     1       7.725   3.516  18.622  0.00  0.00    +0.000 HD
ENDBRANCH  10  11
ENDBRANCH   2   4
BRANCH   2  13
ATOM     13  C   UNL     1       4.112   4.812  16.982  0.00  0.00    +0.000 A 
ATOM     14  C   UNL     1       3.746   3.471  16.825  0.00  0.00    +0.000 A 
ATOM     15  C   UNL     1       2.625   2.973  17.490  0.00  0.00    +0.000 A 
ATOM     16  C   UNL     1       1.861   3.832  18.275  0.00  0.00    +0.000 A 
ATOM     17  C   UNL     1       2.193   5.178  18.401  0.00  0.00    +0.000 A 
ATOM     18  C   UNL     1       3.324   5.677  17.751  0.00  0.00    +0.000 A 
BRANCH  16  19
ATOM     19  O   UNL     1       0.758   3.386  18.941  0.00  0.00    +0.000 OA
ATOM     20  H   UNL     1       0.355   2.665  18.430  0.00  0.00    +0.000 HD
ENDBRANCH  16  19
ENDBRANCH   2  13
TORSDOF 4
ENDMDL
MODEL 7
REMARK VINA RESULT:      -6.6      2.018      2.305
REMARK  Name = 
REMARK  4 active torsions:
REMARK  status: ('A' for Active; 'I' for Inactive)
REMARK    1  A    between atoms: S_2  and  C_4
REMARK    2  A    between atoms: S_2  and  C_11
REMARK    3  A    between atoms: C_7  and  O_8
REMARK    4  A    between atoms: C_17  and  O_18
REMARK                            x       y       z     vdW  Elec       q    Type
REMARK                         _______ _______ _______ _____ _____    ______ ____
ROOT
ATOM      1  O   UNL     1       4.254   2.751  17.283  0.00  0.00    +0.000 OA
ATOM      2  S   UNL     1       4.589   3.419  18.527  0.00  0.00    +0.000 S 
ATOM      3  O   UNL     1       5.340   2.695  19.543  0.00  0.00    +0.000 OA
ENDROOT
BRANCH   2   4
ATOM      4  C   UNL     1       3.065   3.929  19.285  0.00  0.00    +0.000 A 
ATOM      5  C   UNL     1       2.941   5.257  19.716  0.00  0.00    +0.000 A 
ATOM      6  C   UNL     1       1.764   5.671  20.337  0.00  0.00    +0.000 A 
ATOM      7 CL   UNL     1       1.606   7.298  20.871  0.00  0.00    +0.000 Cl
ATOM      8  C   UNL     1       0.715   4.776  20.533  0.00  0.00    +0.000 A 
ATOM      9  C   UNL     1       0.840   3.451  20.108  0.00  0.00    +0.000 A 
ATOM     10  C   UNL     1       2.017   3.029  19.487  0.00  0.00    +0.000 A 
BRANCH  10  11
ATOM     11  O   UNL     1       2.120   1.729  19.092  0.00  0.00    +0.000 OA
ATOM     12  H   UNL     1       1.387   1.211  19.469  0.00  0.00    +0.000 HD
ENDBRANCH  10  11
ENDBRANCH   2   4
BRANCH   2  13
ATOM     13  C   UNL     1       5.558   4.863  18.141  0.00  0.00    +0.000 A 
ATOM     14  C   UNL     1       5.205   5.661  17.048  0.00  0.00    +0.000 A 
ATOM     15  C   UNL     1       5.966   6.787  16.734  0.00  0.00    +0.000 A 
ATOM     16  C   UNL     1       7.094   7.082  17.495  0.00  0.00    +0.000 A 
ATOM     17  C   UNL     1       7.477   6.268  18.557  0.00  0.00    +0.000 A 
ATOM     18  C   UNL     1       6.708   5.149  18.886  0.00  0.00    +0.000 A 
BRANCH  16  19
ATOM     19  O   UNL     1       7.865   8.172  17.221  0.00  0.00    +0.000 OA
ATOM     20  H   UNL     1       8.778   7.879  17.066  0.00  0.00    +0.000 HD
ENDBRANCH  16  19
ENDBRANCH   2  13
TORSDOF 4
ENDMDL
MODEL 8
REMARK VINA RESULT:      -6.6      2.003      2.523
REMARK  Name = 
REMARK  4 active torsions:
REMARK  status: ('A' for Active; 'I' for Inactive)
REMARK    1  A    between atoms: S_2  and  C_4
REMARK    2  A    between atoms: S_2  and  C_11
REMARK    3  A    between atoms: C_7  and  O_8
REMARK    4  A    between atoms: C_17  and  O_18
REMARK                            x       y       z     vdW  Elec       q    Type
REMARK                         _______ _______ _______ _____ _____    ______ ____
ROOT
ATOM      1  O   UNL     1       4.235   2.704  17.331  0.00  0.00    +0.000 OA
ATOM      2  S   UNL     1       4.577   3.403  18.555  0.00  0.00    +0.000 S 
ATOM      3  O   UNL     1       5.320   2.700  19.592  0.00  0.00    +0.000 OA
ENDROOT
BRANCH   2   4
ATOM      4  C   UNL     1       3.059   3.953  19.297  0.00  0.00    +0.000 A 
ATOM      5  C   UNL     1       2.968   5.282  19.732  0.00  0.00    +0.000 A 
ATOM      6  C   UNL     1       1.795   5.726  20.341  0.00  0.00    +0.000 A 
ATOM      7 CL   UNL     1       1.676   7.355  20.880  0.00  0.00    +0.000 Cl
ATOM      8  C   UNL     1       0.719   4.861  20.520  0.00  0.00    +0.000 A 
ATOM      9  C   UNL     1       0.812   3.535  20.092  0.00  0.00    +0.000 A 
ATOM     10  C   UNL     1       1.984   3.082  19.483  0.00  0.00    +0.000 A 
BRANCH  10  11
ATOM     11  O   UNL     1       2.055   1.782  19.083  0.00  0.00    +0.000 OA
ATOM     12  H   UNL     1       2.627   1.708  18.299  0.00  0.00    +0.000 HD
ENDBRANCH  10  11
ENDBRANCH   2   4
BRANCH   2  13
ATOM     13  C   UNL     1       5.563   4.824  18.128  0.00  0.00    +0.000 A 
ATOM     14  C   UNL     1       6.677   5.153  18.909  0.00  0.00    +0.000 A 
ATOM     15  C   UNL     1       7.447   6.271  18.586  0.00  0.00    +0.000 A 
ATOM     16  C   UNL     1       7.072   7.069  17.508  0.00  0.00    +0.000 A 
ATOM     17  C   UNL     1       5.941   6.773  16.754  0.00  0.00    +0.000 A 
ATOM     18  C   UNL     1       5.177   5.645  17.062  0.00  0.00    +0.000 A 
BRANCH  16  19
ATOM     19  O   UNL     1       7.797   8.170  17.160  0.00  0.00    +0.000 OA
ATOM     20  H   UNL     1       8.093   8.618  17.969  0.00  0.00    +0.000 HD
ENDBRANCH  16  19
ENDBRANCH   2  13
TORSDOF 4
ENDMDL
MODEL 9
REMARK VINA RESULT:      -6.5      2.048      3.041
REMARK  Name = 
REMARK  4 active torsions:
REMARK  status: ('A' for Active; 'I' for Inactive)
REMARK    1  A    between atoms: S_2  and  C_4
REMARK    2  A    between atoms: S_2  and  C_11
REMARK    3  A    between atoms: C_7  and  O_8
REMARK    4  A    between atoms: C_17  and  O_18
REMARK                            x       y       z     vdW  Elec       q    Type
REMARK                         _______ _______ _______ _____ _____    ______ ____
ROOT
ATOM      1  O   UNL     1       7.768   4.876  17.676  0.00  0.00    +0.000 OA
ATOM      2  S   UNL     1       6.876   5.728  16.911  0.00  0.00    +0.000 S 
ATOM      3  O   UNL     1       7.266   7.104  16.640  0.00  0.00    +0.000 OA
ENDROOT
BRANCH   2   4
ATOM      4  C   UNL     1       5.329   5.797  17.782  0.00  0.00    +0.000 A 
ATOM      5  C   UNL     1       4.453   6.857  17.512  0.00  0.00    +0.000 A 
ATOM      6  C   UNL     1       3.247   6.945  18.204  0.00  0.00    +0.000 A 
ATOM      7 CL   UNL     1       2.168   8.245  17.880  0.00  0.00    +0.000 Cl
ATOM      8  C   UNL     1       2.907   5.990  19.159  0.00  0.00    +0.000 A 
ATOM      9  C   UNL     1       3.782   4.936  19.432  0.00  0.00    +0.000 A 
ATOM     10  C   UNL     1       4.994   4.842  18.745  0.00  0.00    +0.000 A 
BRANCH  10  11
ATOM     11  O   UNL     1       5.836   3.812  19.036  0.00  0.00    +0.000 OA
ATOM     12  H   UNL     1       5.359   3.132  19.545  0.00  0.00    +0.000 HD
ENDBRANCH  10  11
ENDBRANCH   2   4
BRANCH   2  13
ATOM     13  C   UNL     1       6.614   4.973  15.319  0.00  0.00    +0.000 A 
ATOM     14  C   UNL     1       5.518   4.125  15.128  0.00  0.00    +0.000 A 
ATOM     15  C   UNL     1       5.313   3.521  13.887  0.00  0.00    +0.000 A 
ATOM     16  C   UNL     1       6.228   3.745  12.861  0.00  0.00    +0.000 A 
ATOM     17  C   UNL     1       7.344   4.553  13.056  0.00  0.00    +0.000 A 
ATOM     18  C   UNL     1       7.544   5.172  14.292  0.00  0.00    +0.000 A 
BRANCH  16  19
ATOM     19  O   UNL     1       6.064   3.174  11.633  0.00  0.00    +0.000 OA
ATOM     20  H   UNL     1       6.612   3.653  10.991  0.00  0.00    +0.000 HD
ENDBRANCH  16  19
ENDBRANCH   2  13
TORSDOF 4
ENDMDL
