MODEL 1
REMARK VINA RESULT:      -8.2      0.000      0.000
REMARK  Name = 
REMARK  4 active torsions:
REMARK  status: ('A' for Active; 'I' for Inactive)
REMARK    1  A    between atoms: C_1  and  O_2
REMARK    2  A    between atoms: O_2  and  C_3
REMARK    3  A    between atoms: C_6  and  C_7
REMARK    4  A    between atoms: C_9  and  C_10
REMARK                            x       y       z     vdW  Elec       q    Type
REMARK                         _______ _______ _______ _____ _____    ______ ____
ROOT
ATOM      1  C   UNL     1       3.971   6.730  17.877  0.00  0.00    +0.000 A 
ATOM      2  C   UNL     1       3.878   5.992  19.049  0.00  0.00    +0.000 A 
ATOM      3  C   UNL     1       2.745   6.112  19.836  0.00  0.00    +0.000 A 
ATOM      4  C   UNL     1       2.122   7.359  19.792  0.00  0.00    +0.000 A 
ATOM      5  C   UNL     1       1.410   7.851  20.907  0.00  0.00    +0.000 A 
ATOM      6  C   UNL     1       0.722   9.054  20.807  0.00  0.00    +0.000 A 
ATOM      7 BR   UNL     1      -0.206   9.724  22.310  0.00  0.00    +0.000 Br
ATOM      8  C   UNL     1       0.722   9.736  19.597  0.00  0.00    +0.000 A 
ATOM      9  C   UNL     1       1.473   9.265  18.520  0.00  0.00    +0.000 A 
ATOM     10  C   UNL     1       2.255   8.107  18.617  0.00  0.00    +0.000 A 
ATOM     11  N   UNL     1       3.102   7.743  17.624  0.00  0.00    +0.000 NA
ENDROOT
BRANCH   1  15
ATOM     12  C   UNL     1       7.129   5.508  15.211  0.00  0.00    +0.000 A 
ATOM     13  C   UNL     1       5.802   5.318  14.857  0.00  0.00    +0.000 A 
ATOM     14  C   UNL     1       4.785   5.804  15.674  0.00  0.00    +0.000 A 
ATOM     15  C   UNL     1       5.056   6.443  16.908  0.00  0.00    +0.000 A 
ATOM     16  C   UNL     1       6.399   6.712  17.195  0.00  0.00    +0.000 A 
ATOM     17  C   UNL     1       7.430   6.236  16.366  0.00  0.00    +0.000 A 
BRANCH  12  19
ATOM     18  C   UNL     1       7.912   5.230  13.000  0.00  0.00    +0.000 C 
ATOM     19  O   UNL     1       8.024   4.908  14.376  0.00  0.00    +0.000 OA
ENDBRANCH  12  19
ENDBRANCH   1  15
BRANCH   3  20
ATOM     20  C   UNL     1       2.068   4.874  20.336  0.00  0.00    +0.000 A 
ATOM     21  C   UNL     1       2.411   4.262  21.557  0.00  0.00    +0.000 A 
ATOM     22  C   UNL     1       1.940   2.988  21.901  0.00  0.00    +0.000 A 
ATOM     23  C   UNL     1       1.095   2.294  21.041  0.00  0.00    +0.000 A 
ATOM     24  C   UNL     1       0.736   2.858  19.825  0.00  0.00    +0.000 A 
ATOM     25  C   UNL     1       1.233   4.119  19.480  0.00  0.00    +0.000 A 
ENDBRANCH   3  20
TORSDOF 3
ENDMDL
MODEL 2
REMARK VINA RESULT:      -8.2      0.456      1.052
REMARK  Name = 
REMARK  4 active torsions:
REMARK  status: ('A' for Active; 'I' for Inactive)
REMARK    1  A    between atoms: C_1  and  O_2
REMARK    2  A    between atoms: O_2  and  C_3
REMARK    3  A    between atoms: C_6  and  C_7
REMARK    4  A    between atoms: C_9  and  C_10
REMARK                            x       y       z     vdW  Elec       q    Type
REMARK                         _______ _______ _______ _____ _____    ______ ____
ROOT
ATOM      1  C   UNL     1       4.140   6.346  17.704  0.00  0.00    +0.000 A 
ATOM      2  C   UNL     1       4.012   5.740  18.946  0.00  0.00    +0.000 A 
ATOM      3  C   UNL     1       2.884   5.990  19.709  0.00  0.00    +0.000 A 
ATOM      4  C   UNL     1       2.314   7.250  19.529  0.00  0.00    +0.000 A 
ATOM      5  C   UNL     1       1.622   7.886  20.581  0.00  0.00    +0.000 A 
ATOM      6  C   UNL     1       0.985   9.100  20.350  0.00  0.00    +0.000 A 
ATOM      7 BR   UNL     1       0.083   9.963  21.768  0.00  0.00    +0.000 Br
ATOM      8  C   UNL     1       1.017   9.650  19.076  0.00  0.00    +0.000 A 
ATOM      9  C   UNL     1       1.750   9.038  18.059  0.00  0.00    +0.000 A 
ATOM     10  C   UNL     1       2.482   7.864  18.283  0.00  0.00    +0.000 A 
ATOM     11  N   UNL     1       3.315   7.363  17.340  0.00  0.00    +0.000 NA
ENDROOT
BRANCH   1  15
ATOM     12  C   UNL     1       7.196   5.442  14.804  0.00  0.00    +0.000 A 
ATOM     13  C   UNL     1       7.498   6.203  15.923  0.00  0.00    +0.000 A 
ATOM     14  C   UNL     1       6.535   6.409  16.907  0.00  0.00    +0.000 A 
ATOM     15  C   UNL     1       5.214   5.913  16.778  0.00  0.00    +0.000 A 
ATOM     16  C   UNL     1       4.964   5.066  15.693  0.00  0.00    +0.000 A 
ATOM     17  C   UNL     1       5.937   4.843  14.703  0.00  0.00    +0.000 A 
BRANCH  12  19
ATOM     18  C   UNL     1       7.789   5.198  12.530  0.00  0.00    +0.000 C 
ATOM     19  O   UNL     1       8.193   5.391  13.875  0.00  0.00    +0.000 OA
ENDBRANCH  12  19
ENDBRANCH   1  15
BRANCH   3  20
ATOM     20  C   UNL     1       2.153   4.841  20.331  0.00  0.00    +0.000 A 
ATOM     21  C   UNL     1       2.533   4.280  21.566  0.00  0.00    +0.000 A 
ATOM     22  C   UNL     1       1.995   3.070  22.023  0.00  0.00    +0.000 A 
ATOM     23  C   UNL     1       1.045   2.392  21.265  0.00  0.00    +0.000 A 
ATOM     24  C   UNL     1       0.646   2.906  20.040  0.00  0.00    +0.000 A 
ATOM     25  C   UNL     1       1.209   4.102  19.581  0.00  0.00    +0.000 A 
ENDBRANCH   3  20
TORSDOF 3
ENDMDL
MODEL 3
REMARK VINA RESULT:      -7.6      2.615      5.883
REMARK  Name = 
REMARK  4 active torsions:
REMARK  status: ('A' for Active; 'I' for Inactive)
REMARK    1  A    between atoms: C_1  and  O_2
REMARK    2  A    between atoms: O_2  and  C_3
REMARK    3  A    between atoms: C_6  and  C_7
REMARK    4  A    between atoms: C_9  and  C_10
REMARK                            x       y       z     vdW  Elec       q    Type
REMARK                         _______ _______ _______ _____ _____    ______ ____
ROOT
ATOM      1  C   UNL     1       1.909   8.321  19.060  0.00  0.00    +0.000 A 
ATOM      2  C   UNL     1       1.360   9.407  18.393  0.00  0.00    +0.000 A 
ATOM      3  C   UNL     1       0.938  10.507  19.121  0.00  0.00    +0.000 A 
ATOM      4  C   UNL     1       0.481  10.226  20.409  0.00  0.00    +0.000 A 
ATOM      5  C   UNL     1      -0.508  11.029  21.016  0.00  0.00    +0.000 A 
ATOM      6  C   UNL     1      -0.880  10.783  22.332  0.00  0.00    +0.000 A 
ATOM      7 BR   UNL     1      -2.223  11.842  23.134  0.00  0.00    +0.000 Br
ATOM      8  C   UNL     1      -0.247   9.767  23.037  0.00  0.00    +0.000 A 
ATOM      9  C   UNL     1       0.689   8.947  22.408  0.00  0.00    +0.000 A 
ATOM     10  C   UNL     1       1.018   9.106  21.055  0.00  0.00    +0.000 A 
ATOM     11  N   UNL     1       1.805   8.212  20.411  0.00  0.00    +0.000 NA
ENDROOT
BRANCH   1  15
ATOM     12  C   UNL     1       4.061   5.098  17.176  0.00  0.00    +0.000 A 
ATOM     13  C   UNL     1       2.880   4.846  17.858  0.00  0.00    +0.000 A 
ATOM     14  C   UNL     1       2.135   5.902  18.378  0.00  0.00    +0.000 A 
ATOM     15  C   UNL     1       2.578   7.244  18.292  0.00  0.00    +0.000 A 
ATOM     16  C   UNL     1       3.717   7.482  17.516  0.00  0.00    +0.000 A 
ATOM     17  C   UNL     1       4.465   6.421  16.976  0.00  0.00    +0.000 A 
BRANCH  12  19
ATOM     18  C   UNL     1       5.764   4.161  15.835  0.00  0.00    +0.000 C 
ATOM     19  O   UNL     1       4.739   3.978  16.796  0.00  0.00    +0.000 OA
ENDBRANCH  12  19
ENDBRANCH   1  15
BRANCH   3  20
ATOM     20  C   UNL     1       1.344  11.878  18.677  0.00  0.00    +0.000 A 
ATOM     21  C   UNL     1       2.650  12.177  18.241  0.00  0.00    +0.000 A 
ATOM     22  C   UNL     1       3.078  13.498  18.052  0.00  0.00    +0.000 A 
ATOM     23  C   UNL     1       2.207  14.559  18.275  0.00  0.00    +0.000 A 
ATOM     24  C   UNL     1       0.914  14.309  18.710  0.00  0.00    +0.000 A 
ATOM     25  C   UNL     1       0.504  12.989  18.922  0.00  0.00    +0.000 A 
ENDBRANCH   3  20
TORSDOF 3
ENDMDL
MODEL 4
REMARK VINA RESULT:      -7.5      3.694      6.493
REMARK  Name = 
REMARK  4 active torsions:
REMARK  status: ('A' for Active; 'I' for Inactive)
REMARK    1  A    between atoms: C_1  and  O_2
REMARK    2  A    between atoms: O_2  and  C_3
REMARK    3  A    between atoms: C_6  and  C_7
REMARK    4  A    between atoms: C_9  and  C_10
REMARK                            x       y       z     vdW  Elec       q    Type
REMARK                         _______ _______ _______ _____ _____    ______ ____
ROOT
ATOM      1  C   UNL     1       1.443   9.551  18.726  0.00  0.00    +0.000 A 
ATOM      2  C   UNL     1       0.098   9.679  19.043  0.00  0.00    +0.000 A 
ATOM      3  C   UNL     1      -0.569  10.845  18.708  0.00  0.00    +0.000 A 
ATOM      4  C   UNL     1       0.217  11.997  18.700  0.00  0.00    +0.000 A 
ATOM      5  C   UNL     1      -0.344  13.256  19.000  0.00  0.00    +0.000 A 
ATOM      6  C   UNL     1       0.440  14.400  18.896  0.00  0.00    +0.000 A 
ATOM      7 BR   UNL     1      -0.306  16.082  19.325  0.00  0.00    +0.000 Br
ATOM      8  C   UNL     1       1.756  14.283  18.468  0.00  0.00    +0.000 A 
ATOM      9  C   UNL     1       2.312  13.027  18.226  0.00  0.00    +0.000 A 
ATOM     10  C   UNL     1       1.579  11.848  18.414  0.00  0.00    +0.000 A 
ATOM     11  N   UNL     1       2.169  10.631  18.331  0.00  0.00    +0.000 NA
ENDROOT
BRANCH   1  15
ATOM     12  C   UNL     1       3.074   5.566  18.892  0.00  0.00    +0.000 A 
ATOM     13  C   UNL     1       3.366   6.397  17.821  0.00  0.00    +0.000 A 
ATOM     14  C   UNL     1       2.921   7.716  17.819  0.00  0.00    +0.000 A 
ATOM     15  C   UNL     1       2.112   8.235  18.860  0.00  0.00    +0.000 A 
ATOM     16  C   UNL     1       1.916   7.412  19.974  0.00  0.00    +0.000 A 
ATOM     17  C   UNL     1       2.376   6.083  19.987  0.00  0.00    +0.000 A 
BRANCH  12  19
ATOM     18  C   UNL     1       3.809   3.881  17.409  0.00  0.00    +0.000 C 
ATOM     19  O   UNL     1       3.489   4.277  18.732  0.00  0.00    +0.000 OA
ENDBRANCH  12  19
ENDBRANCH   1  15
BRANCH   3  20
ATOM     20  C   UNL     1      -1.900  10.756  18.027  0.00  0.00    +0.000 A 
ATOM     21  C   UNL     1      -2.062  10.179  16.753  0.00  0.00    +0.000 A 
ATOM     22  C   UNL     1      -3.256  10.309  16.032  0.00  0.00    +0.000 A 
ATOM     23  C   UNL     1      -4.332  11.005  16.573  0.00  0.00    +0.000 A 
ATOM     24  C   UNL     1      -4.214  11.593  17.824  0.00  0.00    +0.000 A 
ATOM     25  C   UNL     1      -3.008  11.480  18.524  0.00  0.00    +0.000 A 
ENDBRANCH   3  20
TORSDOF 3
ENDMDL
MODEL 5
REMARK VINA RESULT:      -7.5      3.734      6.756
REMARK  Name = 
REMARK  4 active torsions:
REMARK  status: ('A' for Active; 'I' for Inactive)
REMARK    1  A    between atoms: C_1  and  O_2
REMARK    2  A    between atoms: O_2  and  C_3
REMARK    3  A    between atoms: C_6  and  C_7
REMARK    4  A    between atoms: C_9  and  C_10
REMARK                            x       y       z     vdW  Elec       q    Type
REMARK                         _______ _______ _______ _____ _____    ______ ____
ROOT
ATOM      1  C   UNL     1       2.087   7.936  18.507  0.00  0.00    +0.000 A 
ATOM      2  C   UNL     1       1.559   6.652  18.508  0.00  0.00    +0.000 A 
ATOM      3  C   UNL     1       2.410   5.570  18.360  0.00  0.00    +0.000 A 
ATOM      4  C   UNL     1       3.550   5.812  17.594  0.00  0.00    +0.000 A 
ATOM      5  C   UNL     1       4.152   4.777  16.847  0.00  0.00    +0.000 A 
ATOM      6  C   UNL     1       5.338   5.022  16.165  0.00  0.00    +0.000 A 
ATOM      7 BR   UNL     1       6.127   3.643  15.143  0.00  0.00    +0.000 Br
ATOM      8  C   UNL     1       5.927   6.277  16.258  0.00  0.00    +0.000 A 
ATOM      9  C   UNL     1       5.293   7.305  16.956  0.00  0.00    +0.000 A 
ATOM     10  C   UNL     1       4.050   7.119  17.574  0.00  0.00    +0.000 A 
ATOM     11  N   UNL     1       3.368   8.159  18.112  0.00  0.00    +0.000 NA
ENDROOT
BRANCH   1  15
ATOM     12  C   UNL     1      -0.691  10.999  19.719  0.00  0.00    +0.000 A 
ATOM     13  C   UNL     1       0.096  10.356  20.662  0.00  0.00    +0.000 A 
ATOM     14  C   UNL     1       1.063   9.439  20.257  0.00  0.00    +0.000 A 
ATOM     15  C   UNL     1       1.235   9.084  18.897  0.00  0.00    +0.000 A 
ATOM     16  C   UNL     1       0.502   9.819  17.958  0.00  0.00    +0.000 A 
ATOM     17  C   UNL     1      -0.466  10.756  18.360  0.00  0.00    +0.000 A 
BRANCH  12  19
ATOM     18  C   UNL     1      -1.526  12.119  21.623  0.00  0.00    +0.000 C 
ATOM     19  O   UNL     1      -1.657  11.803  20.248  0.00  0.00    +0.000 OA
ENDBRANCH  12  19
ENDBRANCH   1  15
BRANCH   3  20
ATOM     20  C   UNL     1       2.282   4.406  19.293  0.00  0.00    +0.000 A 
ATOM     21  C   UNL     1       1.701   3.183  18.905  0.00  0.00    +0.000 A 
ATOM     22  C   UNL     1       1.376   2.192  19.840  0.00  0.00    +0.000 A 
ATOM     23  C   UNL     1       1.640   2.386  21.192  0.00  0.00    +0.000 A 
ATOM     24  C   UNL     1       2.208   3.578  21.618  0.00  0.00    +0.000 A 
ATOM     25  C   UNL     1       2.503   4.572  20.680  0.00  0.00    +0.000 A 
ENDBRANCH   3  20
TORSDOF 3
ENDMDL
MODEL 6
REMARK VINA RESULT:      -7.5      3.933      6.844
REMARK  Name = 
REMARK  4 active torsions:
REMARK  status: ('A' for Active; 'I' for Inactive)
REMARK    1  A    between atoms: C_1  and  O_2
REMARK    2  A    between atoms: O_2  and  C_3
REMARK    3  A    between atoms: C_6  and  C_7
REMARK    4  A    between atoms: C_9  and  C_10
REMARK                            x       y       z     vdW  Elec       q    Type
REMARK                         _______ _______ _______ _____ _____    ______ ____
ROOT
ATOM      1  C   UNL     1       1.249  10.065  18.660  0.00  0.00    +0.000 A 
ATOM      2  C   UNL     1      -0.082  10.278  18.990  0.00  0.00    +0.000 A 
ATOM      3  C   UNL     1      -0.660  11.506  18.716  0.00  0.00    +0.000 A 
ATOM      4  C   UNL     1       0.211  12.594  18.760  0.00  0.00    +0.000 A 
ATOM      5  C   UNL     1      -0.252  13.877  19.124  0.00  0.00    +0.000 A 
ATOM      6  C   UNL     1       0.615  14.961  19.071  0.00  0.00    +0.000 A 
ATOM      7 BR   UNL     1      -0.000  16.672  19.585  0.00  0.00    +0.000 Br
ATOM      8  C   UNL     1       1.918  14.767  18.630  0.00  0.00    +0.000 A 
ATOM      9  C   UNL     1       2.377  13.486  18.325  0.00  0.00    +0.000 A 
ATOM     10  C   UNL     1       1.557  12.357  18.459  0.00  0.00    +0.000 A 
ATOM     11  N   UNL     1       2.053  11.105  18.314  0.00  0.00    +0.000 NA
ENDROOT
BRANCH   1  15
ATOM     12  C   UNL     1       3.220   6.254  19.058  0.00  0.00    +0.000 A 
ATOM     13  C   UNL     1       2.383   6.717  20.063  0.00  0.00    +0.000 A 
ATOM     14  C   UNL     1       1.670   7.900  19.887  0.00  0.00    +0.000 A 
ATOM     15  C   UNL     1       1.816   8.697  18.726  0.00  0.00    +0.000 A 
ATOM     16  C   UNL     1       2.585   8.161  17.688  0.00  0.00    +0.000 A 
ATOM     17  C   UNL     1       3.297   6.960  17.854  0.00  0.00    +0.000 A 
BRANCH  12  19
ATOM     18  C   UNL     1       5.332   5.209  19.216  0.00  0.00    +0.000 C 
ATOM     19  O   UNL     1       3.927   5.136  19.389  0.00  0.00    +0.000 OA
ENDBRANCH  12  19
ENDBRANCH   1  15
BRANCH   3  20
ATOM     20  C   UNL     1      -1.995  11.551  18.039  0.00  0.00    +0.000 A 
ATOM     21  C   UNL     1      -3.188  11.834  18.733  0.00  0.00    +0.000 A 
ATOM     22  C   UNL     1      -4.445  11.646  18.144  0.00  0.00    +0.000 A 
ATOM     23  C   UNL     1      -4.547  11.185  16.835  0.00  0.00    +0.000 A 
ATOM     24  C   UNL     1      -3.397  10.890  16.117  0.00  0.00    +0.000 A 
ATOM     25  C   UNL     1      -2.148  11.056  16.724  0.00  0.00    +0.000 A 
ENDBRANCH   3  20
TORSDOF 3
ENDMDL
MODEL 7
REMARK VINA RESULT:      -7.5      3.665      6.490
REMARK  Name = 
REMARK  4 active torsions:
REMARK  status: ('A' for Active; 'I' for Inactive)
REMARK    1  A    between atoms: C_1  and  O_2
REMARK    2  A    between atoms: O_2  and  C_3
REMARK    3  A    between atoms: C_6  and  C_7
REMARK    4  A    between atoms: C_9  and  C_10
REMARK                            x       y       z     vdW  Elec       q    Type
REMARK                         _______ _______ _______ _____ _____    ______ ____
ROOT
ATOM      1  C   UNL     1       1.466   9.565  18.549  0.00  0.00    +0.000 A 
ATOM      2  C   UNL     1       0.129   9.682  18.900  0.00  0.00    +0.000 A 
ATOM      3  C   UNL     1      -0.539  10.866  18.640  0.00  0.00    +0.000 A 
ATOM      4  C   UNL     1       0.253  12.014  18.674  0.00  0.00    +0.000 A 
ATOM      5  C   UNL     1      -0.294  13.259  19.050  0.00  0.00    +0.000 A 
ATOM      6  C   UNL     1       0.493  14.402  18.989  0.00  0.00    +0.000 A 
ATOM      7 BR   UNL     1      -0.235  16.063  19.519  0.00  0.00    +0.000 Br
ATOM      8  C   UNL     1       1.799  14.302  18.527  0.00  0.00    +0.000 A 
ATOM      9  C   UNL     1       2.343  13.058  18.210  0.00  0.00    +0.000 A 
ATOM     10  C   UNL     1       1.608  11.874  18.352  0.00  0.00    +0.000 A 
ATOM     11  N   UNL     1       2.189  10.660  18.195  0.00  0.00    +0.000 NA
ENDROOT
BRANCH   1  15
ATOM     12  C   UNL     1       3.688   5.893  18.939  0.00  0.00    +0.000 A 
ATOM     13  C   UNL     1       2.743   6.243  19.892  0.00  0.00    +0.000 A 
ATOM     14  C   UNL     1       1.956   7.378  19.710  0.00  0.00    +0.000 A 
ATOM     15  C   UNL     1       2.130   8.241  18.601  0.00  0.00    +0.000 A 
ATOM     16  C   UNL     1       3.017   7.814  17.606  0.00  0.00    +0.000 A 
ATOM     17  C   UNL     1       3.803   6.661  17.777  0.00  0.00    +0.000 A 
BRANCH  12  19
ATOM     18  C   UNL     1       5.840   4.923  19.014  0.00  0.00    +0.000 C 
ATOM     19  O   UNL     1       4.451   4.815  19.276  0.00  0.00    +0.000 OA
ENDBRANCH  12  19
ENDBRANCH   1  15
BRANCH   3  20
ATOM     20  C   UNL     1      -1.884  10.818  17.983  0.00  0.00    +0.000 A 
ATOM     21  C   UNL     1      -2.072  10.332  16.675  0.00  0.00    +0.000 A 
ATOM     22  C   UNL     1      -3.282  10.506  15.991  0.00  0.00    +0.000 A 
ATOM     23  C   UNL     1      -4.349  11.156  16.603  0.00  0.00    +0.000 A 
ATOM     24  C   UNL     1      -4.206  11.655  17.889  0.00  0.00    +0.000 A 
ATOM     25  C   UNL     1      -2.984  11.499  18.553  0.00  0.00    +0.000 A 
ENDBRANCH   3  20
TORSDOF 3
ENDMDL
MODEL 8
REMARK VINA RESULT:      -7.5      3.691      6.542
REMARK  Name = 
REMARK  4 active torsions:
REMARK  status: ('A' for Active; 'I' for Inactive)
REMARK    1  A    between atoms: C_1  and  O_2
REMARK    2  A    between atoms: O_2  and  C_3
REMARK    3  A    between atoms: C_6  and  C_7
REMARK    4  A    between atoms: C_9  and  C_10
REMARK                            x       y       z     vdW  Elec       q    Type
REMARK                         _______ _______ _______ _____ _____    ______ ____
ROOT
ATOM      1  C   UNL     1       2.296   8.132  18.359  0.00  0.00    +0.000 A 
ATOM      2  C   UNL     1       1.661   6.898  18.352  0.00  0.00    +0.000 A 
ATOM      3  C   UNL     1       2.421   5.746  18.241  0.00  0.00    +0.000 A 
ATOM      4  C   UNL     1       3.602   5.883  17.512  0.00  0.00    +0.000 A 
ATOM      5  C   UNL     1       4.138   4.793  16.794  0.00  0.00    +0.000 A 
ATOM      6  C   UNL     1       5.363   4.929  16.151  0.00  0.00    +0.000 A 
ATOM      7 BR   UNL     1       6.064   3.477  15.167  0.00  0.00    +0.000 Br
ATOM      8  C   UNL     1       6.052   6.130  16.253  0.00  0.00    +0.000 A 
ATOM      9  C   UNL     1       5.486   7.216  16.921  0.00  0.00    +0.000 A 
ATOM     10  C   UNL     1       4.212   7.143  17.499  0.00  0.00    +0.000 A 
ATOM     11  N   UNL     1       3.603   8.242  18.006  0.00  0.00    +0.000 NA
ENDROOT
BRANCH   1  15
ATOM     12  C   UNL     1       0.392  11.782  19.633  0.00  0.00    +0.000 A 
ATOM     13  C   UNL     1       1.282  11.792  18.570  0.00  0.00    +0.000 A 
ATOM     14  C   UNL     1       1.818  10.597  18.096  0.00  0.00    +0.000 A 
ATOM     15  C   UNL     1       1.532   9.353  18.711  0.00  0.00    +0.000 A 
ATOM     16  C   UNL     1       0.557   9.357  19.713  0.00  0.00    +0.000 A 
ATOM     17  C   UNL     1       0.002  10.559  20.186  0.00  0.00    +0.000 A 
BRANCH  12  19
ATOM     18  C   UNL     1       0.236  14.090  19.154  0.00  0.00    +0.000 C 
ATOM     19  O   UNL     1       0.012  13.021  20.057  0.00  0.00    +0.000 OA
ENDBRANCH  12  19
ENDBRANCH   1  15
BRANCH   3  20
ATOM     20  C   UNL     1       2.164   4.607  19.179  0.00  0.00    +0.000 A 
ATOM     21  C   UNL     1       1.331   3.522  18.843  0.00  0.00    +0.000 A 
ATOM     22  C   UNL     1       0.914   2.589  19.802  0.00  0.00    +0.000 A 
ATOM     23  C   UNL     1       1.333   2.704  21.124  0.00  0.00    +0.000 A 
ATOM     24  C   UNL     1       2.151   3.760  21.498  0.00  0.00    +0.000 A 
ATOM     25  C   UNL     1       2.539   4.701  20.539  0.00  0.00    +0.000 A 
ENDBRANCH   3  20
TORSDOF 3
ENDMDL
MODEL 9
REMARK VINA RESULT:      -7.4      6.090     10.460
REMARK  Name = 
REMARK  4 active torsions:
REMARK  status: ('A' for Active; 'I' for Inactive)
REMARK    1  A    between atoms: C_1  and  O_2
REMARK    2  A    between atoms: O_2  and  C_3
REMARK    3  A    between atoms: C_6  and  C_7
REMARK    4  A    between atoms: C_9  and  C_10
REMARK                            x       y       z     vdW  Elec       q    Type
REMARK                         _______ _______ _______ _____ _____    ______ ____
ROOT
ATOM      1  C   UNL     1      -1.233  11.600  21.781  0.00  0.00    +0.000 A 
ATOM      2  C   UNL     1      -1.368  11.930  20.440  0.00  0.00    +0.000 A 
ATOM      3  C   UNL     1      -1.079  10.978  19.476  0.00  0.00    +0.000 A 
ATOM      4  C   UNL     1      -0.098  10.053  19.831  0.00  0.00    +0.000 A 
ATOM      5  C   UNL     1       0.730   9.465  18.851  0.00  0.00    +0.000 A 
ATOM      6  C   UNL     1       1.637   8.479  19.219  0.00  0.00    +0.000 A 
ATOM      7 BR   UNL     1       2.763   7.714  17.910  0.00  0.00    +0.000 Br
ATOM      8  C   UNL     1       1.692   8.068  20.545  0.00  0.00    +0.000 A 
ATOM      9  C   UNL     1       0.906   8.696  21.512  0.00  0.00    +0.000 A 
ATOM     10  C   UNL     1       0.051   9.758  21.192  0.00  0.00    +0.000 A 
ATOM     11  N   UNL     1      -0.588  10.464  22.155  0.00  0.00    +0.000 NA
ENDROOT
BRANCH   1  15
ATOM     12  C   UNL     1      -2.966  14.454  24.505  0.00  0.00    +0.000 A 
ATOM     13  C   UNL     1      -3.646  13.289  24.188  0.00  0.00    +0.000 A 
ATOM     14  C   UNL     1      -3.041  12.323  23.387  0.00  0.00    +0.000 A 
ATOM     15  C   UNL     1      -1.757  12.516  22.822  0.00  0.00    +0.000 A 
ATOM     16  C   UNL     1      -1.051  13.651  23.238  0.00  0.00    +0.000 A 
ATOM     17  C   UNL     1      -1.652  14.622  24.057  0.00  0.00    +0.000 A 
BRANCH  12  19
ATOM     18  C   UNL     1      -4.547  16.209  24.469  0.00  0.00    +0.000 C 
ATOM     19  O   UNL     1      -3.699  15.356  25.219  0.00  0.00    +0.000 OA
ENDBRANCH  12  19
ENDBRANCH   1  15
BRANCH   3  20
ATOM     20  C   UNL     1      -2.046  10.757  18.354  0.00  0.00    +0.000 A 
ATOM     21  C   UNL     1      -1.722  10.000  17.212  0.00  0.00    +0.000 A 
ATOM     22  C   UNL     1      -2.540   9.995  16.075  0.00  0.00    +0.000 A 
ATOM     23  C   UNL     1      -3.720  10.732  16.054  0.00  0.00    +0.000 A 
ATOM     24  C   UNL     1      -4.075  11.495  17.156  0.00  0.00    +0.000 A 
ATOM     25  C   UNL     1      -3.237  11.515  18.276  0.00  0.00    +0.000 A 
ENDBRANCH   3  20
TORSDOF 3
ENDMDL
