MODEL 1
REMARK VINA RESULT:      -9.2      0.000      0.000
REMARK  Name = 
REMARK  3 active torsions:
REMARK  status: ('A' for Active; 'I' for Inactive)
REMARK    1  A    between atoms: N_3  and  C_4
REMARK    2  A    between atoms: C_14  and  C_15
REMARK    3  A    between atoms: C_17  and  C_18
REMARK                            x       y       z     vdW  Elec       q    Type
REMARK                         _______ _______ _______ _____ _____    ______ ____
ROOT
ATOM      1  O   UNL     1       7.915   9.547  17.095  0.00  0.00    +0.000 OA
ATOM      2  C   UNL     1       8.094   8.727  17.993  0.00  0.00    +0.000 C 
ATOM      3  N   UNL     1       8.836   8.981  19.123  0.00  0.00    +0.000 N 
ATOM      4  N   UNL     1       7.571   7.442  17.898  0.00  0.00    +0.000 N 
ATOM      5  C   UNL     1       7.555   6.410  18.935  0.00  0.00    +0.000 C 
ATOM      6  C   UNL     1       8.019   5.073  18.356  0.00  0.00    +0.000 C 
ATOM      7  C   UNL     1       7.217   4.664  17.108  0.00  0.00    +0.000 C 
ATOM      8  C   UNL     1       7.164   5.817  16.095  0.00  0.00    +0.000 C 
ATOM      9  C   UNL     1       6.739   7.138  16.733  0.00  0.00    +0.000 C 
ATOM     10  H   UNL     1       9.143   8.187  19.653  0.00  0.00    +0.000 HD
ENDROOT
BRANCH   3  11
ATOM     11  C   UNL     1       9.446  10.203  19.475  0.00  0.00    +0.000 A 
ATOM     12  C   UNL     1       9.318  10.803  20.732  0.00  0.00    +0.000 A 
ATOM     13  C   UNL     1       9.892  12.050  20.986  0.00  0.00    +0.000 A 
ATOM     14  C   UNL     1      10.615  12.696  19.989  0.00  0.00    +0.000 A 
ATOM     15 CL   UNL     1      11.286  14.251  20.290  0.00  0.00    +0.000 Cl
ATOM     16  C   UNL     1      10.788  12.094  18.745  0.00  0.00    +0.000 A 
ATOM     17  C   UNL     1      10.210  10.845  18.491  0.00  0.00    +0.000 A 
ENDBRANCH   3  11
BRANCH   7  18
ATOM     18  C   UNL     1       5.848   4.221  17.491  0.00  0.00    +0.000 A 
ATOM     19  N   UNL     1       5.292   4.215  18.677  0.00  0.00    +0.000 NA
ATOM     20  C   UNL     1       4.082   3.613  18.449  0.00  0.00    +0.000 A 
ATOM     21  N   UNL     1       3.861   3.323  17.153  0.00  0.00    +0.000 NA
ATOM     22  O   UNL     1       5.043   3.713  16.518  0.00  0.00    +0.000 OA
BRANCH  20  23
ATOM     23  C   UNL     1       3.129   3.362  19.520  0.00  0.00    +0.000 A 
ATOM     24  C   UNL     1       1.865   3.977  19.460  0.00  0.00    +0.000 A 
ATOM     25  C   UNL     1       0.922   3.785  20.473  0.00  0.00    +0.000 A 
ATOM     26  C   UNL     1       1.226   2.974  21.562  0.00  0.00    +0.000 A 
ATOM     27  C   UNL     1       2.470   2.353  21.637  0.00  0.00    +0.000 A 
ATOM     28  C   UNL     1       3.419   2.539  20.624  0.00  0.00    +0.000 A 
ATOM     29 CL   UNL     1       4.899   1.656  20.805  0.00  0.00    +0.000 Cl
ENDBRANCH  20  23
ENDBRANCH   7  18
TORSDOF 3
ENDMDL
MODEL 2
REMARK VINA RESULT:      -9.2      1.063      1.398
REMARK  Name = 
REMARK  3 active torsions:
REMARK  status: ('A' for Active; 'I' for Inactive)
REMARK    1  A    between atoms: N_3  and  C_4
REMARK    2  A    between atoms: C_14  and  C_15
REMARK    3  A    between atoms: C_17  and  C_18
REMARK                            x       y       z     vdW  Elec       q    Type
REMARK                         _______ _______ _______ _____ _____    ______ ____
ROOT
ATOM      1  O   UNL     1       7.946   9.480  17.107  0.00  0.00    +0.000 OA
ATOM      2  C   UNL     1       8.119   8.665  18.010  0.00  0.00    +0.000 C 
ATOM      3  N   UNL     1       8.830   8.935  19.157  0.00  0.00    +0.000 N 
ATOM      4  N   UNL     1       7.622   7.371  17.906  0.00  0.00    +0.000 N 
ATOM      5  C   UNL     1       7.601   6.340  18.944  0.00  0.00    +0.000 C 
ATOM      6  C   UNL     1       8.102   5.011  18.378  0.00  0.00    +0.000 C 
ATOM      7  C   UNL     1       7.338   4.586  17.112  0.00  0.00    +0.000 C 
ATOM      8  C   UNL     1       7.287   5.736  16.097  0.00  0.00    +0.000 C 
ATOM      9  C   UNL     1       6.823   7.050  16.722  0.00  0.00    +0.000 C 
ATOM     10  H   UNL     1       9.139   8.147  19.695  0.00  0.00    +0.000 HD
ENDROOT
BRANCH   3  11
ATOM     11  C   UNL     1       9.409  10.168  19.521  0.00  0.00    +0.000 A 
ATOM     12  C   UNL     1       9.217  10.781  20.763  0.00  0.00    +0.000 A 
ATOM     13  C   UNL     1       9.765  12.038  21.027  0.00  0.00    +0.000 A 
ATOM     14  C   UNL     1      10.524  12.681  20.056  0.00  0.00    +0.000 A 
ATOM     15 CL   UNL     1      11.163  14.247  20.368  0.00  0.00    +0.000 Cl
ATOM     16  C   UNL     1      10.760  12.066  18.829  0.00  0.00    +0.000 A 
ATOM     17  C   UNL     1      10.209  10.808  18.564  0.00  0.00    +0.000 A 
ENDBRANCH   3  11
BRANCH   7  18
ATOM     18  C   UNL     1       5.968   4.119  17.464  0.00  0.00    +0.000 A 
ATOM     19  N   UNL     1       5.333   4.230  18.605  0.00  0.00    +0.000 NA
ATOM     20  C   UNL     1       4.172   3.538  18.382  0.00  0.00    +0.000 A 
ATOM     21  N   UNL     1       4.054   3.075  17.123  0.00  0.00    +0.000 NA
ATOM     22  O   UNL     1       5.257   3.448  16.518  0.00  0.00    +0.000 OA
BRANCH  20  23
ATOM     23  C   UNL     1       3.161   3.369  19.416  0.00  0.00    +0.000 A 
ATOM     24  C   UNL     1       3.511   2.694  20.600  0.00  0.00    +0.000 A 
ATOM     25  C   UNL     1       2.572   2.488  21.615  0.00  0.00    +0.000 A 
ATOM     26  C   UNL     1       1.270   2.955  21.464  0.00  0.00    +0.000 A 
ATOM     27  C   UNL     1       0.907   3.629  20.301  0.00  0.00    +0.000 A 
ATOM     28  C   UNL     1       1.843   3.842  19.281  0.00  0.00    +0.000 A 
ATOM     29 CL   UNL     1       1.280   4.753  17.919  0.00  0.00    +0.000 Cl
ENDBRANCH  20  23
ENDBRANCH   7  18
TORSDOF 3
ENDMDL
MODEL 3
REMARK VINA RESULT:      -7.9      0.629      1.104
REMARK  Name = 
REMARK  3 active torsions:
REMARK  status: ('A' for Active; 'I' for Inactive)
REMARK    1  A    between atoms: N_3  and  C_4
REMARK    2  A    between atoms: C_14  and  C_15
REMARK    3  A    between atoms: C_17  and  C_18
REMARK                            x       y       z     vdW  Elec       q    Type
REMARK                         _______ _______ _______ _____ _____    ______ ____
ROOT
ATOM      1  O   UNL     1       7.081   9.354  17.009  0.00  0.00    +0.000 OA
ATOM      2  C   UNL     1       7.529   8.450  17.712  0.00  0.00    +0.000 C 
ATOM      3  N   UNL     1       8.511   8.633  18.658  0.00  0.00    +0.000 N 
ATOM      4  N   UNL     1       7.078   7.144  17.563  0.00  0.00    +0.000 N 
ATOM      5  C   UNL     1       7.384   5.995  18.417  0.00  0.00    +0.000 C 
ATOM      6  C   UNL     1       7.769   4.789  17.559  0.00  0.00    +0.000 C 
ATOM      7  C   UNL     1       6.709   4.463  16.493  0.00  0.00    +0.000 C 
ATOM      8  C   UNL     1       6.335   5.722  15.697  0.00  0.00    +0.000 C 
ATOM      9  C   UNL     1       6.002   6.908  16.599  0.00  0.00    +0.000 C 
ATOM     10  H   UNL     1       8.989   7.812  18.980  0.00  0.00    +0.000 HD
ENDROOT
BRANCH   3  11
ATOM     11  C   UNL     1       9.114   9.854  19.024  0.00  0.00    +0.000 A 
ATOM     12  C   UNL     1       9.765  10.702  18.121  0.00  0.00    +0.000 A 
ATOM     13  C   UNL     1      10.401  11.862  18.568  0.00  0.00    +0.000 A 
ATOM     14  C   UNL     1      10.372  12.191  19.919  0.00  0.00    +0.000 A 
ATOM     15 CL   UNL     1      11.191  13.598  20.474  0.00  0.00    +0.000 Cl
ATOM     16  C   UNL     1       9.692  11.380  20.825  0.00  0.00    +0.000 A 
ATOM     17  C   UNL     1       9.058  10.217  20.377  0.00  0.00    +0.000 A 
ENDBRANCH   3  11
BRANCH   7  18
ATOM     18  C   UNL     1       5.508   3.849  17.125  0.00  0.00    +0.000 A 
ATOM     19  N   UNL     1       4.922   4.170  18.251  0.00  0.00    +0.000 NA
ATOM     20  C   UNL     1       3.948   3.215  18.377  0.00  0.00    +0.000 A 
ATOM     21  N   UNL     1       3.881   2.373  17.329  0.00  0.00    +0.000 NA
ATOM     22  O   UNL     1       4.930   2.786  16.503  0.00  0.00    +0.000 OA
BRANCH  20  23
ATOM     23  C   UNL     1       3.058   3.165  19.528  0.00  0.00    +0.000 A 
ATOM     24  C   UNL     1       1.809   3.807  19.447  0.00  0.00    +0.000 A 
ATOM     25  C   UNL     1       0.927   3.807  20.530  0.00  0.00    +0.000 A 
ATOM     26  C   UNL     1       1.278   3.162  21.713  0.00  0.00    +0.000 A 
ATOM     27  C   UNL     1       2.507   2.517  21.811  0.00  0.00    +0.000 A 
ATOM     28  C   UNL     1       3.395   2.511  20.727  0.00  0.00    +0.000 A 
ATOM     29 CL   UNL     1       4.860   1.615  20.958  0.00  0.00    +0.000 Cl
ENDBRANCH  20  23
ENDBRANCH   7  18
TORSDOF 3
ENDMDL
MODEL 4
REMARK VINA RESULT:      -7.8      1.357      1.888
REMARK  Name = 
REMARK  3 active torsions:
REMARK  status: ('A' for Active; 'I' for Inactive)
REMARK    1  A    between atoms: N_3  and  C_4
REMARK    2  A    between atoms: C_14  and  C_15
REMARK    3  A    between atoms: C_17  and  C_18
REMARK                            x       y       z     vdW  Elec       q    Type
REMARK                         _______ _______ _______ _____ _____    ______ ____
ROOT
ATOM      1  O   UNL     1       7.356   9.833  17.443  0.00  0.00    +0.000 OA
ATOM      2  C   UNL     1       7.945   8.970  18.091  0.00  0.00    +0.000 C 
ATOM      3  N   UNL     1       9.065   9.217  18.852  0.00  0.00    +0.000 N 
ATOM      4  N   UNL     1       7.519   7.647  18.065  0.00  0.00    +0.000 N 
ATOM      5  C   UNL     1       8.002   6.542  18.893  0.00  0.00    +0.000 C 
ATOM      6  C   UNL     1       8.279   5.313  18.024  0.00  0.00    +0.000 C 
ATOM      7  C   UNL     1       7.068   4.917  17.163  0.00  0.00    +0.000 C 
ATOM      8  C   UNL     1       6.524   6.133  16.399  0.00  0.00    +0.000 C 
ATOM      9  C   UNL     1       6.306   7.345  17.303  0.00  0.00    +0.000 C 
ATOM     10  H   UNL     1       9.616   8.422  19.117  0.00  0.00    +0.000 HD
ENDROOT
BRANCH   3  11
ATOM     11  C   UNL     1       9.678  10.467  19.070  0.00  0.00    +0.000 A 
ATOM     12  C   UNL     1      10.355  11.185  18.079  0.00  0.00    +0.000 A 
ATOM     13  C   UNL     1      11.000  12.385  18.386  0.00  0.00    +0.000 A 
ATOM     14  C   UNL     1      10.955  12.883  19.683  0.00  0.00    +0.000 A 
ATOM     15 CL   UNL     1      11.785  14.339  20.069  0.00  0.00    +0.000 Cl
ATOM     16  C   UNL     1      10.251  12.202  20.673  0.00  0.00    +0.000 A 
ATOM     17  C   UNL     1       9.607  10.999  20.365  0.00  0.00    +0.000 A 
ENDBRANCH   3  11
BRANCH   7  18
ATOM     18  C   UNL     1       6.009   4.296  18.008  0.00  0.00    +0.000 A 
ATOM     19  N   UNL     1       4.735   4.146  17.744  0.00  0.00    +0.000 NA
ATOM     20  C   UNL     1       4.238   3.618  18.907  0.00  0.00    +0.000 A 
ATOM     21  N   UNL     1       5.183   3.378  19.835  0.00  0.00    +0.000 NA
ATOM     22  O   UNL     1       6.359   3.845  19.243  0.00  0.00    +0.000 OA
BRANCH  20  23
ATOM     23  C   UNL     1       2.824   3.317  19.077  0.00  0.00    +0.000 A 
ATOM     24  C   UNL     1       2.285   2.200  18.413  0.00  0.00    +0.000 A 
ATOM     25  C   UNL     1       0.929   1.881  18.527  0.00  0.00    +0.000 A 
ATOM     26  C   UNL     1       0.091   2.670  19.307  0.00  0.00    +0.000 A 
ATOM     27  C   UNL     1       0.608   3.777  19.976  0.00  0.00    +0.000 A 
ATOM     28  C   UNL     1       1.966   4.102  19.869  0.00  0.00    +0.000 A 
ATOM     29 CL   UNL     1       2.492   5.461  20.805  0.00  0.00    +0.000 Cl
ENDBRANCH  20  23
ENDBRANCH   7  18
TORSDOF 3
ENDMDL
MODEL 5
REMARK VINA RESULT:      -7.8      6.853     10.655
REMARK  Name = 
REMARK  3 active torsions:
REMARK  status: ('A' for Active; 'I' for Inactive)
REMARK    1  A    between atoms: N_3  and  C_4
REMARK    2  A    between atoms: C_14  and  C_15
REMARK    3  A    between atoms: C_17  and  C_18
REMARK                            x       y       z     vdW  Elec       q    Type
REMARK                         _______ _______ _______ _____ _____    ______ ____
ROOT
ATOM      1  O   UNL     1       2.272   7.186  17.762  0.00  0.00    +0.000 OA
ATOM      2  C   UNL     1       2.056   7.517  18.926  0.00  0.00    +0.000 C 
ATOM      3  N   UNL     1       2.364   6.733  20.013  0.00  0.00    +0.000 N 
ATOM      4  N   UNL     1       1.435   8.727  19.217  0.00  0.00    +0.000 N 
ATOM      5  C   UNL     1       1.253   9.337  20.534  0.00  0.00    +0.000 C 
ATOM      6  C   UNL     1      -0.188   9.825  20.694  0.00  0.00    +0.000 C 
ATOM      7  C   UNL     1      -0.624  10.756  19.550  0.00  0.00    +0.000 C 
ATOM      8  C   UNL     1      -0.309  10.124  18.186  0.00  0.00    +0.000 C 
ATOM      9  C   UNL     1       1.128   9.614  18.094  0.00  0.00    +0.000 C 
ATOM     10  H   UNL     1       1.915   6.964  20.880  0.00  0.00    +0.000 HD
ENDROOT
BRANCH   3  11
ATOM     11  C   UNL     1       3.018   5.484  19.995  0.00  0.00    +0.000 A 
ATOM     12  C   UNL     1       4.247   5.260  19.366  0.00  0.00    +0.000 A 
ATOM     13  C   UNL     1       4.802   3.979  19.328  0.00  0.00    +0.000 A 
ATOM     14  C   UNL     1       4.140   2.918  19.936  0.00  0.00    +0.000 A 
ATOM     15 CL   UNL     1       4.803   1.334  19.851  0.00  0.00    +0.000 Cl
ATOM     16  C   UNL     1       2.936   3.132  20.603  0.00  0.00    +0.000 A 
ATOM     17  C   UNL     1       2.379   4.416  20.639  0.00  0.00    +0.000 A 
ENDBRANCH   3  11
BRANCH   7  18
ATOM     18  C   UNL     1       0.027  12.089  19.687  0.00  0.00    +0.000 A 
ATOM     19  N   UNL     1       0.210  13.008  18.772  0.00  0.00    +0.000 NA
ATOM     20  C   UNL     1       0.943  13.960  19.432  0.00  0.00    +0.000 A 
ATOM     21  N   UNL     1       1.145  13.678  20.732  0.00  0.00    +0.000 NA
ATOM     22  O   UNL     1       0.549  12.425  20.898  0.00  0.00    +0.000 OA
BRANCH  20  23
ATOM     23  C   UNL     1       1.411  15.170  18.772  0.00  0.00    +0.000 A 
ATOM     24  C   UNL     1       0.542  16.274  18.688  0.00  0.00    +0.000 A 
ATOM     25  C   UNL     1       0.935  17.451  18.046  0.00  0.00    +0.000 A 
ATOM     26  C   UNL     1       2.203  17.546  17.480  0.00  0.00    +0.000 A 
ATOM     27  C   UNL     1       3.078  16.466  17.557  0.00  0.00    +0.000 A 
ATOM     28  C   UNL     1       2.692  15.284  18.201  0.00  0.00    +0.000 A 
ATOM     29 CL   UNL     1       3.899  14.043  18.286  0.00  0.00    +0.000 Cl
ENDBRANCH  20  23
ENDBRANCH   7  18
TORSDOF 3
ENDMDL
MODEL 6
REMARK VINA RESULT:      -7.8      6.676     10.696
REMARK  Name = 
REMARK  3 active torsions:
REMARK  status: ('A' for Active; 'I' for Inactive)
REMARK    1  A    between atoms: N_3  and  C_4
REMARK    2  A    between atoms: C_14  and  C_15
REMARK    3  A    between atoms: C_17  and  C_18
REMARK                            x       y       z     vdW  Elec       q    Type
REMARK                         _______ _______ _______ _____ _____    ______ ____
ROOT
ATOM      1  O   UNL     1       2.179   6.964  17.959  0.00  0.00    +0.000 OA
ATOM      2  C   UNL     1       2.122   7.293  19.143  0.00  0.00    +0.000 C 
ATOM      3  N   UNL     1       2.539   6.490  20.179  0.00  0.00    +0.000 N 
ATOM      4  N   UNL     1       1.584   8.519  19.515  0.00  0.00    +0.000 N 
ATOM      5  C   UNL     1       1.589   9.124  20.848  0.00  0.00    +0.000 C 
ATOM      6  C   UNL     1       0.196   9.656  21.191  0.00  0.00    +0.000 C 
ATOM      7  C   UNL     1      -0.349  10.610  20.114  0.00  0.00    +0.000 C 
ATOM      8  C   UNL     1      -0.230   9.980  18.719  0.00  0.00    +0.000 C 
ATOM      9  C   UNL     1       1.166   9.425  18.444  0.00  0.00    +0.000 C 
ATOM     10  H   UNL     1       2.211   6.727  21.097  0.00  0.00    +0.000 HD
ENDROOT
BRANCH   3  11
ATOM     11  C   UNL     1       3.145   5.221  20.073  0.00  0.00    +0.000 A 
ATOM     12  C   UNL     1       4.347   4.988  19.398  0.00  0.00    +0.000 A 
ATOM     13  C   UNL     1       4.852   3.691  19.273  0.00  0.00    +0.000 A 
ATOM     14  C   UNL     1       4.165   2.623  19.839  0.00  0.00    +0.000 A 
ATOM     15 CL   UNL     1       4.766   1.023  19.648  0.00  0.00    +0.000 Cl
ATOM     16  C   UNL     1       2.988   2.843  20.551  0.00  0.00    +0.000 A 
ATOM     17  C   UNL     1       2.482   4.142  20.674  0.00  0.00    +0.000 A 
ENDBRANCH   3  11
BRANCH   7  18
ATOM     18  C   UNL     1       0.357  11.920  20.174  0.00  0.00    +0.000 A 
ATOM     19  N   UNL     1       0.611  12.758  19.200  0.00  0.00    +0.000 NA
ATOM     20  C   UNL     1       1.365  13.725  19.811  0.00  0.00    +0.000 A 
ATOM     21  N   UNL     1       1.513  13.535  21.135  0.00  0.00    +0.000 NA
ATOM     22  O   UNL     1       0.855  12.325  21.374  0.00  0.00    +0.000 OA
BRANCH  20  23
ATOM     23  C   UNL     1       1.908  14.860  19.079  0.00  0.00    +0.000 A 
ATOM     24  C   UNL     1       2.966  14.640  18.177  0.00  0.00    +0.000 A 
ATOM     25  C   UNL     1       3.537  15.698  17.466  0.00  0.00    +0.000 A 
ATOM     26  C   UNL     1       3.059  16.993  17.642  0.00  0.00    +0.000 A 
ATOM     27  C   UNL     1       2.010  17.230  18.527  0.00  0.00    +0.000 A 
ATOM     28  C   UNL     1       1.431  16.174  19.241  0.00  0.00    +0.000 A 
ATOM     29 CL   UNL     1       0.091  16.594  20.255  0.00  0.00    +0.000 Cl
ENDBRANCH  20  23
ENDBRANCH   7  18
TORSDOF 3
ENDMDL
MODEL 7
REMARK VINA RESULT:      -7.7      6.406     10.618
REMARK  Name = 
REMARK  3 active torsions:
REMARK  status: ('A' for Active; 'I' for Inactive)
REMARK    1  A    between atoms: N_3  and  C_4
REMARK    2  A    between atoms: C_14  and  C_15
REMARK    3  A    between atoms: C_17  and  C_18
REMARK                            x       y       z     vdW  Elec       q    Type
REMARK                         _______ _______ _______ _____ _____    ______ ____
ROOT
ATOM      1  O   UNL     1       2.317   6.971  18.093  0.00  0.00    +0.000 OA
ATOM      2  C   UNL     1       2.086   7.240  19.270  0.00  0.00    +0.000 C 
ATOM      3  N   UNL     1       2.292   6.362  20.310  0.00  0.00    +0.000 N 
ATOM      4  N   UNL     1       1.555   8.474  19.627  0.00  0.00    +0.000 N 
ATOM      5  C   UNL     1       1.375   9.007  20.977  0.00  0.00    +0.000 C 
ATOM      6  C   UNL     1      -0.027   9.600  21.128  0.00  0.00    +0.000 C 
ATOM      7  C   UNL     1      -0.346  10.639  20.038  0.00  0.00    +0.000 C 
ATOM      8  C   UNL     1      -0.035  10.076  18.644  0.00  0.00    +0.000 C 
ATOM      9  C   UNL     1       1.359   9.457  18.560  0.00  0.00    +0.000 C 
ATOM     10  H   UNL     1       1.832   6.570  21.176  0.00  0.00    +0.000 HD
ENDROOT
BRANCH   3  11
ATOM     11  C   UNL     1       2.845   5.067  20.224  0.00  0.00    +0.000 A 
ATOM     12  C   UNL     1       2.286   3.941  20.837  0.00  0.00    +0.000 A 
ATOM     13  C   UNL     1       2.928   2.703  20.767  0.00  0.00    +0.000 A 
ATOM     14  C   UNL     1       4.124   2.581  20.069  0.00  0.00    +0.000 A 
ATOM     15 CL   UNL     1       4.936   1.065  20.021  0.00  0.00    +0.000 Cl
ATOM     16  C   UNL     1       4.673   3.683  19.418  0.00  0.00    +0.000 A 
ATOM     17  C   UNL     1       4.030   4.924  19.489  0.00  0.00    +0.000 A 
ENDBRANCH   3  11
BRANCH   7  18
ATOM     18  C   UNL     1       0.404  11.901  20.288  0.00  0.00    +0.000 A 
ATOM     19  N   UNL     1       1.003  12.682  19.423  0.00  0.00    +0.000 NA
ATOM     20  C   UNL     1       1.605  13.621  20.219  0.00  0.00    +0.000 A 
ATOM     21  N   UNL     1       1.330  13.474  21.528  0.00  0.00    +0.000 NA
ATOM     22  O   UNL     1       0.543  12.320  21.575  0.00  0.00    +0.000 OA
BRANCH  20  23
ATOM     23  C   UNL     1       2.427  14.688  19.668  0.00  0.00    +0.000 A 
ATOM     24  C   UNL     1       3.824  14.615  19.821  0.00  0.00    +0.000 A 
ATOM     25  C   UNL     1       4.656  15.624  19.329  0.00  0.00    +0.000 A 
ATOM     26  C   UNL     1       4.107  16.721  18.674  0.00  0.00    +0.000 A 
ATOM     27  C   UNL     1       2.727  16.810  18.509  0.00  0.00    +0.000 A 
ATOM     28  C   UNL     1       1.887  15.801  18.997  0.00  0.00    +0.000 A 
ATOM     29 CL   UNL     1       0.199  15.999  18.664  0.00  0.00    +0.000 Cl
ENDBRANCH  20  23
ENDBRANCH   7  18
TORSDOF 3
ENDMDL
MODEL 8
REMARK VINA RESULT:      -7.7      8.716     10.868
REMARK  Name = 
REMARK  3 active torsions:
REMARK  status: ('A' for Active; 'I' for Inactive)
REMARK    1  A    between atoms: N_3  and  C_4
REMARK    2  A    between atoms: C_14  and  C_15
REMARK    3  A    between atoms: C_17  and  C_18
REMARK                            x       y       z     vdW  Elec       q    Type
REMARK                         _______ _______ _______ _____ _____    ______ ____
ROOT
ATOM      1  O   UNL     1       1.820   8.038  20.735  0.00  0.00    +0.000 OA
ATOM      2  C   UNL     1       1.449   8.654  19.738  0.00  0.00    +0.000 C 
ATOM      3  N   UNL     1       1.834   8.337  18.456  0.00  0.00    +0.000 N 
ATOM      4  N   UNL     1       0.619   9.763  19.856  0.00  0.00    +0.000 N 
ATOM      5  C   UNL     1      -0.036  10.502  18.776  0.00  0.00    +0.000 C 
ATOM      6  C   UNL     1       0.160  12.006  18.971  0.00  0.00    +0.000 C 
ATOM      7  C   UNL     1      -0.289  12.481  20.364  0.00  0.00    +0.000 C 
ATOM      8  C   UNL     1       0.333  11.606  21.462  0.00  0.00    +0.000 C 
ATOM      9  C   UNL     1       0.148  10.113  21.197  0.00  0.00    +0.000 C 
ATOM     10  H   UNL     1       1.702   9.042  17.755  0.00  0.00    +0.000 HD
ENDROOT
BRANCH   3  11
ATOM     11  C   UNL     1       2.641   7.249  18.062  0.00  0.00    +0.000 A 
ATOM     12  C   UNL     1       3.924   7.388  17.523  0.00  0.00    +0.000 A 
ATOM     13  C   UNL     1       4.637   6.268  17.089  0.00  0.00    +0.000 A 
ATOM     14  C   UNL     1       4.078   5.001  17.209  0.00  0.00    +0.000 A 
ATOM     15 CL   UNL     1       4.939   3.628  16.635  0.00  0.00    +0.000 Cl
ATOM     16  C   UNL     1       2.818   4.841  17.782  0.00  0.00    +0.000 A 
ATOM     17  C   UNL     1       2.103   5.964  18.215  0.00  0.00    +0.000 A 
ENDBRANCH   3  11
BRANCH   7  18
ATOM     18  C   UNL     1      -1.776  12.486  20.458  0.00  0.00    +0.000 A 
ATOM     19  N   UNL     1      -2.657  12.489  19.489  0.00  0.00    +0.000 NA
ATOM     20  C   UNL     1      -3.850  12.599  20.155  0.00  0.00    +0.000 A 
ATOM     21  N   UNL     1      -3.720  12.590  21.495  0.00  0.00    +0.000 NA
ATOM     22  O   UNL     1      -2.339  12.530  21.696  0.00  0.00    +0.000 OA
BRANCH  20  23
ATOM     23  C   UNL     1      -5.123  12.677  19.454  0.00  0.00    +0.000 A 
ATOM     24  C   UNL     1      -6.017  13.711  19.787  0.00  0.00    +0.000 A 
ATOM     25  C   UNL     1      -7.260  13.818  19.159  0.00  0.00    +0.000 A 
ATOM     26  C   UNL     1      -7.629  12.895  18.185  0.00  0.00    +0.000 A 
ATOM     27  C   UNL     1      -6.756  11.867  17.838  0.00  0.00    +0.000 A 
ATOM     28  C   UNL     1      -5.507  11.756  18.462  0.00  0.00    +0.000 A 
ATOM     29 CL   UNL     1      -4.490  10.475  17.890  0.00  0.00    +0.000 Cl
ENDBRANCH  20  23
ENDBRANCH   7  18
TORSDOF 3
ENDMDL
MODEL 9
REMARK VINA RESULT:      -7.6      6.369     10.761
REMARK  Name = 
REMARK  3 active torsions:
REMARK  status: ('A' for Active; 'I' for Inactive)
REMARK    1  A    between atoms: N_3  and  C_4
REMARK    2  A    between atoms: C_14  and  C_15
REMARK    3  A    between atoms: C_17  and  C_18
REMARK                            x       y       z     vdW  Elec       q    Type
REMARK                         _______ _______ _______ _____ _____    ______ ____
ROOT
ATOM      1  O   UNL     1       2.110   7.412  17.939  0.00  0.00    +0.000 OA
ATOM      2  C   UNL     1       1.945   7.582  19.145  0.00  0.00    +0.000 C 
ATOM      3  N   UNL     1       2.185   6.613  20.093  0.00  0.00    +0.000 N 
ATOM      4  N   UNL     1       1.458   8.789  19.634  0.00  0.00    +0.000 N 
ATOM      5  C   UNL     1       1.358   9.206  21.032  0.00  0.00    +0.000 C 
ATOM      6  C   UNL     1      -0.022   9.806  21.306  0.00  0.00    +0.000 C 
ATOM      7  C   UNL     1      -0.374  10.940  20.329  0.00  0.00    +0.000 C 
ATOM      8  C   UNL     1      -0.145  10.496  18.877  0.00  0.00    +0.000 C 
ATOM      9  C   UNL     1       1.229   9.864  18.667  0.00  0.00    +0.000 C 
ATOM     10  H   UNL     1       1.774   6.753  20.997  0.00  0.00    +0.000 HD
ENDROOT
BRANCH   3  11
ATOM     11  C   UNL     1       2.706   5.322  19.867  0.00  0.00    +0.000 A 
ATOM     12  C   UNL     1       4.036   5.071  19.517  0.00  0.00    +0.000 A 
ATOM     13  C   UNL     1       4.465   3.771  19.239  0.00  0.00    +0.000 A 
ATOM     14  C   UNL     1       3.568   2.713  19.329  0.00  0.00    +0.000 A 
ATOM     15 CL   UNL     1       4.086   1.118  18.946  0.00  0.00    +0.000 Cl
ATOM     16  C   UNL     1       2.249   2.940  19.717  0.00  0.00    +0.000 A 
ATOM     17  C   UNL     1       1.821   4.243  19.993  0.00  0.00    +0.000 A 
ENDBRANCH   3  11
BRANCH   7  18
ATOM     18  C   UNL     1       0.414  12.164  20.646  0.00  0.00    +0.000 A 
ATOM     19  N   UNL     1       1.232  12.834  19.873  0.00  0.00    +0.000 NA
ATOM     20  C   UNL     1       1.742  13.787  20.715  0.00  0.00    +0.000 A 
ATOM     21  N   UNL     1       1.206  13.758  21.949  0.00  0.00    +0.000 NA
ATOM     22  O   UNL     1       0.334  12.668  21.908  0.00  0.00    +0.000 OA
BRANCH  20  23
ATOM     23  C   UNL     1       2.741  14.752  20.276  0.00  0.00    +0.000 A 
ATOM     24  C   UNL     1       4.068  14.599  20.716  0.00  0.00    +0.000 A 
ATOM     25  C   UNL     1       5.060  15.509  20.341  0.00  0.00    +0.000 A 
ATOM     26  C   UNL     1       4.742  16.585  19.518  0.00  0.00    +0.000 A 
ATOM     27  C   UNL     1       3.434  16.750  19.069  0.00  0.00    +0.000 A 
ATOM     28  C   UNL     1       2.436  15.840  19.439  0.00  0.00    +0.000 A 
ATOM     29 CL   UNL     1       0.869  16.122  18.756  0.00  0.00    +0.000 Cl
ENDBRANCH  20  23
ENDBRANCH   7  18
TORSDOF 3
ENDMDL
