MODEL 1
REMARK VINA RESULT:      -4.8      0.000      0.000
REMARK  Name = 
REMARK  4 active torsions:
REMARK  status: ('A' for Active; 'I' for Inactive)
REMARK    1  A    between atoms: C_1  and  N_2
REMARK    2  A    between atoms: N_2  and  C_3
REMARK    3  A    between atoms: N_2  and  C_4
REMARK    4  A    between atoms: N_2  and  C_5
REMARK                            x       y       z     vdW  Elec       q    Type
REMARK                         _______ _______ _______ _____ _____    ______ ____
ROOT
ATOM      1  C   UNL     1       3.146   4.006  19.320  0.00  0.00    +0.000 A 
ATOM      2  C   UNL     1       1.797   4.385  19.282  0.00  0.00    +0.000 A 
ATOM      3  C   UNL     1       0.894   3.926  20.246  0.00  0.00    +0.000 A 
ATOM      4  C   UNL     1       1.314   3.041  21.229  0.00  0.00    +0.000 A 
ATOM      5  C   UNL     1       2.627   2.583  21.230  0.00  0.00    +0.000 A 
ATOM      6  C   UNL     1       3.538   3.056  20.275  0.00  0.00    +0.000 A 
ENDROOT
BRANCH   1   8
ATOM      7  C   UNL     1       3.577   5.973  17.863  0.00  0.00    +0.000 C 
ATOM      8  N   UNL     1       4.141   4.623  18.345  0.00  0.00    +0.000 NA
ATOM      9  C   UNL     1       5.465   4.944  19.016  0.00  0.00    +0.000 C 
ATOM     10  C   UNL     1       4.344   3.673  17.193  0.00  0.00    +0.000 C 
ENDBRANCH   1   8
TORSDOF 1
ENDMDL
MODEL 2
REMARK VINA RESULT:      -4.8      0.065      1.349
REMARK  Name = 
REMARK  4 active torsions:
REMARK  status: ('A' for Active; 'I' for Inactive)
REMARK    1  A    between atoms: C_1  and  N_2
REMARK    2  A    between atoms: N_2  and  C_3
REMARK    3  A    between atoms: N_2  and  C_4
REMARK    4  A    between atoms: N_2  and  C_5
REMARK                            x       y       z     vdW  Elec       q    Type
REMARK                         _______ _______ _______ _____ _____    ______ ____
ROOT
ATOM      1  C   UNL     1       3.163   4.054  19.328  0.00  0.00    +0.000 A 
ATOM      2  C   UNL     1       1.817   4.443  19.302  0.00  0.00    +0.000 A 
ATOM      3  C   UNL     1       0.913   3.973  20.258  0.00  0.00    +0.000 A 
ATOM      4  C   UNL     1       1.329   3.065  21.222  0.00  0.00    +0.000 A 
ATOM      5  C   UNL     1       2.638   2.596  21.211  0.00  0.00    +0.000 A 
ATOM      6  C   UNL     1       3.550   3.081  20.263  0.00  0.00    +0.000 A 
ENDROOT
BRANCH   1   8
ATOM      7  C   UNL     1       4.322   3.745  17.152  0.00  0.00    +0.000 C 
ATOM      8  N   UNL     1       4.160   4.682  18.363  0.00  0.00    +0.000 NA
ATOM      9  C   UNL     1       3.652   5.999  17.802  0.00  0.00    +0.000 C 
ATOM     10  C   UNL     1       5.472   4.878  19.080  0.00  0.00    +0.000 C 
ENDBRANCH   1   8
TORSDOF 1
ENDMDL
MODEL 3
REMARK VINA RESULT:      -4.8      1.166      1.990
REMARK  Name = 
REMARK  4 active torsions:
REMARK  status: ('A' for Active; 'I' for Inactive)
REMARK    1  A    between atoms: C_1  and  N_2
REMARK    2  A    between atoms: N_2  and  C_3
REMARK    3  A    between atoms: N_2  and  C_4
REMARK    4  A    between atoms: N_2  and  C_5
REMARK                            x       y       z     vdW  Elec       q    Type
REMARK                         _______ _______ _______ _____ _____    ______ ____
ROOT
ATOM      1  C   UNL     1       2.904   4.394  18.715  0.00  0.00    +0.000 A 
ATOM      2  C   UNL     1       2.464   4.815  19.978  0.00  0.00    +0.000 A 
ATOM      3  C   UNL     1       1.406   4.167  20.623  0.00  0.00    +0.000 A 
ATOM      4  C   UNL     1       0.739   3.126  19.994  0.00  0.00    +0.000 A 
ATOM      5  C   UNL     1       1.101   2.753  18.704  0.00  0.00    +0.000 A 
ATOM      6  C   UNL     1       2.173   3.390  18.063  0.00  0.00    +0.000 A 
ENDROOT
BRANCH   1   8
ATOM      7  C   UNL     1       5.299   4.931  19.102  0.00  0.00    +0.000 C 
ATOM      8  N   UNL     1       4.142   5.022  18.089  0.00  0.00    +0.000 NA
ATOM      9  C   UNL     1       4.606   4.256  16.862  0.00  0.00    +0.000 C 
ATOM     10  C   UNL     1       3.836   6.456  17.738  0.00  0.00    +0.000 C 
ENDBRANCH   1   8
TORSDOF 1
ENDMDL
MODEL 4
REMARK VINA RESULT:      -4.8      1.172      1.955
REMARK  Name = 
REMARK  4 active torsions:
REMARK  status: ('A' for Active; 'I' for Inactive)
REMARK    1  A    between atoms: C_1  and  N_2
REMARK    2  A    between atoms: N_2  and  C_3
REMARK    3  A    between atoms: N_2  and  C_4
REMARK    4  A    between atoms: N_2  and  C_5
REMARK                            x       y       z     vdW  Elec       q    Type
REMARK                         _______ _______ _______ _____ _____    ______ ____
ROOT
ATOM      1  C   UNL     1       2.925   4.424  18.730  0.00  0.00    +0.000 A 
ATOM      2  C   UNL     1       2.465   4.823  19.993  0.00  0.00    +0.000 A 
ATOM      3  C   UNL     1       1.406   4.157  20.615  0.00  0.00    +0.000 A 
ATOM      4  C   UNL     1       0.756   3.118  19.963  0.00  0.00    +0.000 A 
ATOM      5  C   UNL     1       1.137   2.767  18.673  0.00  0.00    +0.000 A 
ATOM      6  C   UNL     1       2.211   3.422  18.055  0.00  0.00    +0.000 A 
ENDROOT
BRANCH   1   8
ATOM      7  C   UNL     1       4.574   4.271  16.878  0.00  0.00    +0.000 C 
ATOM      8  N   UNL     1       4.165   5.072  18.128  0.00  0.00    +0.000 NA
ATOM      9  C   UNL     1       3.887   6.484  17.642  0.00  0.00    +0.000 C 
ATOM     10  C   UNL     1       5.263   5.070  19.161  0.00  0.00    +0.000 C 
ENDBRANCH   1   8
TORSDOF 1
ENDMDL
MODEL 5
REMARK VINA RESULT:      -4.8      1.193      1.421
REMARK  Name = 
REMARK  4 active torsions:
REMARK  status: ('A' for Active; 'I' for Inactive)
REMARK    1  A    between atoms: C_1  and  N_2
REMARK    2  A    between atoms: N_2  and  C_3
REMARK    3  A    between atoms: N_2  and  C_4
REMARK    4  A    between atoms: N_2  and  C_5
REMARK                            x       y       z     vdW  Elec       q    Type
REMARK                         _______ _______ _______ _____ _____    ______ ____
ROOT
ATOM      1  C   UNL     1       2.895   4.385  18.710  0.00  0.00    +0.000 A 
ATOM      2  C   UNL     1       2.356   4.852  19.917  0.00  0.00    +0.000 A 
ATOM      3  C   UNL     1       1.289   4.190  20.531  0.00  0.00    +0.000 A 
ATOM      4  C   UNL     1       0.712   3.084  19.922  0.00  0.00    +0.000 A 
ATOM      5  C   UNL     1       1.173   2.659  18.682  0.00  0.00    +0.000 A 
ATOM      6  C   UNL     1       2.254   3.312  18.073  0.00  0.00    +0.000 A 
ENDROOT
BRANCH   1   8
ATOM      7  C   UNL     1       3.815   6.505  17.796  0.00  0.00    +0.000 C 
ATOM      8  N   UNL     1       4.142   5.037  18.127  0.00  0.00    +0.000 NA
ATOM      9  C   UNL     1       5.279   5.085  19.134  0.00  0.00    +0.000 C 
ATOM     10  C   UNL     1       4.555   4.277  16.892  0.00  0.00    +0.000 C 
ENDBRANCH   1   8
TORSDOF 1
ENDMDL
MODEL 6
REMARK VINA RESULT:      -4.8      0.058      1.358
REMARK  Name = 
REMARK  4 active torsions:
REMARK  status: ('A' for Active; 'I' for Inactive)
REMARK    1  A    between atoms: C_1  and  N_2
REMARK    2  A    between atoms: N_2  and  C_3
REMARK    3  A    between atoms: N_2  and  C_4
REMARK    4  A    between atoms: N_2  and  C_5
REMARK                            x       y       z     vdW  Elec       q    Type
REMARK                         _______ _______ _______ _____ _____    ______ ____
ROOT
ATOM      1  C   UNL     1       3.154   4.036  19.311  0.00  0.00    +0.000 A 
ATOM      2  C   UNL     1       1.809   4.431  19.294  0.00  0.00    +0.000 A 
ATOM      3  C   UNL     1       0.912   3.971  20.262  0.00  0.00    +0.000 A 
ATOM      4  C   UNL     1       1.333   3.068  21.228  0.00  0.00    +0.000 A 
ATOM      5  C   UNL     1       2.640   2.593  21.208  0.00  0.00    +0.000 A 
ATOM      6  C   UNL     1       3.545   3.068  20.248  0.00  0.00    +0.000 A 
ENDROOT
BRANCH   1   8
ATOM      7  C   UNL     1       5.483   4.866  19.064  0.00  0.00    +0.000 C 
ATOM      8  N   UNL     1       4.145   4.653  18.332  0.00  0.00    +0.000 NA
ATOM      9  C   UNL     1       4.451   3.720  17.173  0.00  0.00    +0.000 C 
ATOM     10  C   UNL     1       3.582   5.959  17.831  0.00  0.00    +0.000 C 
ENDBRANCH   1   8
TORSDOF 1
ENDMDL
MODEL 7
REMARK VINA RESULT:      -4.8      1.076      1.855
REMARK  Name = 
REMARK  4 active torsions:
REMARK  status: ('A' for Active; 'I' for Inactive)
REMARK    1  A    between atoms: C_1  and  N_2
REMARK    2  A    between atoms: N_2  and  C_3
REMARK    3  A    between atoms: N_2  and  C_4
REMARK    4  A    between atoms: N_2  and  C_5
REMARK                            x       y       z     vdW  Elec       q    Type
REMARK                         _______ _______ _______ _____ _____    ______ ____
ROOT
ATOM      1  C   UNL     1       3.025   4.309  18.851  0.00  0.00    +0.000 A 
ATOM      2  C   UNL     1       2.299   3.337  18.148  0.00  0.00    +0.000 A 
ATOM      3  C   UNL     1       1.137   2.778  18.689  0.00  0.00    +0.000 A 
ATOM      4  C   UNL     1       0.715   3.141  19.960  0.00  0.00    +0.000 A 
ATOM      5  C   UNL     1       1.470   4.036  20.709  0.00  0.00    +0.000 A 
ATOM      6  C   UNL     1       2.626   4.611  20.161  0.00  0.00    +0.000 A 
ENDROOT
BRANCH   1   8
ATOM      7  C   UNL     1       4.611   4.200  16.941  0.00  0.00    +0.000 C 
ATOM      8  N   UNL     1       4.208   5.005  18.190  0.00  0.00    +0.000 NA
ATOM      9  C   UNL     1       3.840   6.391  17.688  0.00  0.00    +0.000 C 
ATOM     10  C   UNL     1       5.342   5.080  19.181  0.00  0.00    +0.000 C 
ENDBRANCH   1   8
TORSDOF 1
ENDMDL
MODEL 8
REMARK VINA RESULT:      -4.8      1.081      1.290
REMARK  Name = 
REMARK  4 active torsions:
REMARK  status: ('A' for Active; 'I' for Inactive)
REMARK    1  A    between atoms: C_1  and  N_2
REMARK    2  A    between atoms: N_2  and  C_3
REMARK    3  A    between atoms: N_2  and  C_4
REMARK    4  A    between atoms: N_2  and  C_5
REMARK                            x       y       z     vdW  Elec       q    Type
REMARK                         _______ _______ _______ _____ _____    ______ ____
ROOT
ATOM      1  C   UNL     1       3.008   4.290  18.855  0.00  0.00    +0.000 A 
ATOM      2  C   UNL     1       2.292   3.291  18.182  0.00  0.00    +0.000 A 
ATOM      3  C   UNL     1       1.132   2.742  18.735  0.00  0.00    +0.000 A 
ATOM      4  C   UNL     1       0.701   3.144  19.992  0.00  0.00    +0.000 A 
ATOM      5  C   UNL     1       1.447   4.067  20.715  0.00  0.00    +0.000 A 
ATOM      6  C   UNL     1       2.601   4.632  20.154  0.00  0.00    +0.000 A 
ENDROOT
BRANCH   1   8
ATOM      7  C   UNL     1       3.760   6.393  17.764  0.00  0.00    +0.000 C 
ATOM      8  N   UNL     1       4.189   4.973  18.177  0.00  0.00    +0.000 NA
ATOM      9  C   UNL     1       5.359   5.156  19.129  0.00  0.00    +0.000 C 
ATOM     10  C   UNL     1       4.600   4.156  16.978  0.00  0.00    +0.000 C 
ENDBRANCH   1   8
TORSDOF 1
ENDMDL
MODEL 9
REMARK VINA RESULT:      -4.8      0.132      1.524
REMARK  Name = 
REMARK  4 active torsions:
REMARK  status: ('A' for Active; 'I' for Inactive)
REMARK    1  A    between atoms: C_1  and  N_2
REMARK    2  A    between atoms: N_2  and  C_3
REMARK    3  A    between atoms: N_2  and  C_4
REMARK    4  A    between atoms: N_2  and  C_5
REMARK                            x       y       z     vdW  Elec       q    Type
REMARK                         _______ _______ _______ _____ _____    ______ ____
ROOT
ATOM      1  C   UNL     1       3.177   4.088  19.378  0.00  0.00    +0.000 A 
ATOM      2  C   UNL     1       3.551   3.120  20.321  0.00  0.00    +0.000 A 
ATOM      3  C   UNL     1       2.611   2.572  21.199  0.00  0.00    +0.000 A 
ATOM      4  C   UNL     1       1.298   3.020  21.183  0.00  0.00    +0.000 A 
ATOM      5  C   UNL     1       0.928   4.043  20.317  0.00  0.00    +0.000 A 
ATOM      6  C   UNL     1       1.864   4.582  19.424  0.00  0.00    +0.000 A 
ENDROOT
BRANCH   1   8
ATOM      7  C   UNL     1       3.697   5.927  17.790  0.00  0.00    +0.000 C 
ATOM      8  N   UNL     1       4.182   4.573  18.341  0.00  0.00    +0.000 NA
ATOM      9  C   UNL     1       5.544   4.842  18.956  0.00  0.00    +0.000 C 
ATOM     10  C   UNL     1       4.285   3.543  17.245  0.00  0.00    +0.000 C 
ENDBRANCH   1   8
TORSDOF 1
ENDMDL
