MODEL 1
REMARK VINA RESULT:      -6.3      0.000      0.000
REMARK  Name = 
REMARK  6 active torsions:
REMARK  status: ('A' for Active; 'I' for Inactive)
REMARK    1  A    between atoms: C_2  and  C_3
REMARK    2  A    between atoms: C_6  and  O_7
REMARK    3  A    between atoms: O_7  and  C_8
REMARK    4  A    between atoms: C_8  and  C_9
REMARK    5  A    between atoms: C_9  and  C_10
REMARK    6  A    between atoms: C_10  and  C_11
REMARK                            x       y       z     vdW  Elec       q    Type
REMARK                         _______ _______ _______ _____ _____    ______ ____
ROOT
ATOM      1  O   UNL     1       2.354   5.810  18.890  0.00  0.00    +0.000 OA
ENDROOT
BRANCH   1   5
ATOM      2  C   UNL     1       6.203   4.886  17.561  0.00  0.00    +0.000 A 
ATOM      3  C   UNL     1       6.025   5.218  18.902  0.00  0.00    +0.000 A 
ATOM      4  C   UNL     1       4.751   5.536  19.372  0.00  0.00    +0.000 A 
ATOM      5  C   UNL     1       3.645   5.524  18.513  0.00  0.00    +0.000 A 
ATOM      6  C   UNL     1       3.836   5.196  17.167  0.00  0.00    +0.000 A 
ATOM      7  C   UNL     1       5.113   4.877  16.686  0.00  0.00    +0.000 A 
BRANCH   2   9
ATOM      8  O   UNL     1       8.434   4.129  17.831  0.00  0.00    +0.000 OA
ATOM      9  C   UNL     1       7.555   4.537  17.078  0.00  0.00    +0.000 C 
ENDBRANCH   2   9
ENDBRANCH   1   5
BRANCH   1  10
ATOM     10  C   UNL     1       2.091   5.609  20.280  0.00  0.00    +0.000 C 
BRANCH  10  11
ATOM     11  C   UNL     1       1.196   4.403  20.526  0.00  0.00    +0.000 C 
BRANCH  11  12
ATOM     12  C   UNL     1       2.029   3.313  21.202  0.00  0.00    +0.000 C 
BRANCH  12  13
ATOM     13  C   UNL     1       2.909   2.583  20.260  0.00  0.00    +0.000 A 
ATOM     14  C   UNL     1       4.205   2.152  20.441  0.00  0.00    +0.000 A 
ATOM     15  N   UNL     1       4.534   1.514  19.278  0.00  0.00    +0.000 N 
ATOM     16  C   UNL     1       3.446   1.572  18.454  0.00  0.00    +0.000 A 
ATOM     17  N   UNL     1       2.449   2.211  19.020  0.00  0.00    +0.000 NA
ATOM     18  H   UNL     1       5.416   1.072  19.063  0.00  0.00    +0.000 HD
ENDBRANCH  12  13
ENDBRANCH  11  12
ENDBRANCH  10  11
ENDBRANCH   1  10
TORSDOF 6
ENDMDL
MODEL 2
REMARK VINA RESULT:      -6.2      1.256      1.481
REMARK  Name = 
REMARK  6 active torsions:
REMARK  status: ('A' for Active; 'I' for Inactive)
REMARK    1  A    between atoms: C_2  and  C_3
REMARK    2  A    between atoms: C_6  and  O_7
REMARK    3  A    between atoms: O_7  and  C_8
REMARK    4  A    between atoms: C_8  and  C_9
REMARK    5  A    between atoms: C_9  and  C_10
REMARK    6  A    between atoms: C_10  and  C_11
REMARK                            x       y       z     vdW  Elec       q    Type
REMARK                         _______ _______ _______ _____ _____    ______ ____
ROOT
ATOM      1  O   UNL     1       3.503   6.011  19.761  0.00  0.00    +0.000 OA
ENDROOT
BRANCH   1   5
ATOM      2  C   UNL     1       6.156   4.901  16.733  0.00  0.00    +0.000 A 
ATOM      3  C   UNL     1       6.571   4.781  18.058  0.00  0.00    +0.000 A 
ATOM      4  C   UNL     1       5.707   5.149  19.089  0.00  0.00    +0.000 A 
ATOM      5  C   UNL     1       4.425   5.637  18.810  0.00  0.00    +0.000 A 
ATOM      6  C   UNL     1       4.020   5.760  17.477  0.00  0.00    +0.000 A 
ATOM      7  C   UNL     1       4.883   5.395  16.436  0.00  0.00    +0.000 A 
BRANCH   2   9
ATOM      8  O   UNL     1       7.495   5.287  14.814  0.00  0.00    +0.000 OA
ATOM      9  C   UNL     1       7.075   4.493  15.650  0.00  0.00    +0.000 C 
ENDBRANCH   2   9
ENDBRANCH   1   5
BRANCH   1  10
ATOM     10  C   UNL     1       2.158   5.643  19.449  0.00  0.00    +0.000 C 
BRANCH  10  11
ATOM     11  C   UNL     1       1.520   4.813  20.554  0.00  0.00    +0.000 C 
BRANCH  11  12
ATOM     12  C   UNL     1       1.253   3.408  20.009  0.00  0.00    +0.000 C 
BRANCH  12  13
ATOM     13  C   UNL     1       2.486   2.696  19.602  0.00  0.00    +0.000 A 
ATOM     14  C   UNL     1       2.828   2.189  18.368  0.00  0.00    +0.000 A 
ATOM     15  N   UNL     1       4.077   1.660  18.532  0.00  0.00    +0.000 N 
ATOM     16  C   UNL     1       4.444   1.867  19.831  0.00  0.00    +0.000 A 
ATOM     17  N   UNL     1       3.504   2.490  20.502  0.00  0.00    +0.000 NA
ATOM     18  H   UNL     1       4.634   1.203  17.825  0.00  0.00    +0.000 HD
ENDBRANCH  12  13
ENDBRANCH  11  12
ENDBRANCH  10  11
ENDBRANCH   1  10
TORSDOF 6
ENDMDL
MODEL 3
REMARK VINA RESULT:      -6.2      1.439      1.479
REMARK  Name = 
REMARK  6 active torsions:
REMARK  status: ('A' for Active; 'I' for Inactive)
REMARK    1  A    between atoms: C_2  and  C_3
REMARK    2  A    between atoms: C_6  and  O_7
REMARK    3  A    between atoms: O_7  and  C_8
REMARK    4  A    between atoms: C_8  and  C_9
REMARK    5  A    between atoms: C_9  and  C_10
REMARK    6  A    between atoms: C_10  and  C_11
REMARK                            x       y       z     vdW  Elec       q    Type
REMARK                         _______ _______ _______ _____ _____    ______ ____
ROOT
ATOM      1  O   UNL     1       2.520   6.157  18.447  0.00  0.00    +0.000 OA
ENDROOT
BRANCH   1   5
ATOM      2  C   UNL     1       5.757   5.118  16.021  0.00  0.00    +0.000 A 
ATOM      3  C   UNL     1       5.643   6.440  16.449  0.00  0.00    +0.000 A 
ATOM      4  C   UNL     1       4.569   6.815  17.255  0.00  0.00    +0.000 A 
ATOM      5  C   UNL     1       3.603   5.880  17.645  0.00  0.00    +0.000 A 
ATOM      6  C   UNL     1       3.722   4.558  17.205  0.00  0.00    +0.000 A 
ATOM      7  C   UNL     1       4.796   4.173  16.392  0.00  0.00    +0.000 A 
BRANCH   2   9
ATOM      8  O   UNL     1       7.628   5.557  14.633  0.00  0.00    +0.000 OA
ATOM      9  C   UNL     1       6.906   4.729  15.180  0.00  0.00    +0.000 C 
ENDBRANCH   2   9
ENDBRANCH   1   5
BRANCH   1  10
ATOM     10  C   UNL     1       2.681   5.754  19.808  0.00  0.00    +0.000 C 
BRANCH  10  11
ATOM     11  C   UNL     1       1.577   4.809  20.261  0.00  0.00    +0.000 C 
BRANCH  11  12
ATOM     12  C   UNL     1       2.217   3.652  21.030  0.00  0.00    +0.000 C 
BRANCH  12  13
ATOM     13  C   UNL     1       3.009   2.745  20.167  0.00  0.00    +0.000 A 
ATOM     14  C   UNL     1       4.348   2.431  20.236  0.00  0.00    +0.000 A 
ATOM     15  N   UNL     1       4.557   1.533  19.228  0.00  0.00    +0.000 N 
ATOM     16  C   UNL     1       3.361   1.332  18.601  0.00  0.00    +0.000 A 
ATOM     17  N   UNL     1       2.407   2.050  19.145  0.00  0.00    +0.000 NA
ATOM     18  H   UNL     1       5.432   1.089  18.989  0.00  0.00    +0.000 HD
ENDBRANCH  12  13
ENDBRANCH  11  12
ENDBRANCH  10  11
ENDBRANCH   1  10
TORSDOF 6
ENDMDL
MODEL 4
REMARK VINA RESULT:      -6.1      1.377      1.507
REMARK  Name = 
REMARK  6 active torsions:
REMARK  status: ('A' for Active; 'I' for Inactive)
REMARK    1  A    between atoms: C_2  and  C_3
REMARK    2  A    between atoms: C_6  and  O_7
REMARK    3  A    between atoms: O_7  and  C_8
REMARK    4  A    between atoms: C_8  and  C_9
REMARK    5  A    between atoms: C_9  and  C_10
REMARK    6  A    between atoms: C_10  and  C_11
REMARK                            x       y       z     vdW  Elec       q    Type
REMARK                         _______ _______ _______ _____ _____    ______ ____
ROOT
ATOM      1  O   UNL     1       3.709   6.238  19.314  0.00  0.00    +0.000 OA
ENDROOT
BRANCH   1   5
ATOM      2  C   UNL     1       6.134   5.147  16.094  0.00  0.00    +0.000 A 
ATOM      3  C   UNL     1       6.322   4.504  17.316  0.00  0.00    +0.000 A 
ATOM      4  C   UNL     1       5.530   4.852  18.409  0.00  0.00    +0.000 A 
ATOM      5  C   UNL     1       4.543   5.840  18.295  0.00  0.00    +0.000 A 
ATOM      6  C   UNL     1       4.367   6.484  17.066  0.00  0.00    +0.000 A 
ATOM      7  C   UNL     1       5.161   6.141  15.963  0.00  0.00    +0.000 A 
BRANCH   2   9
ATOM      8  O   UNL     1       7.775   5.528  14.425  0.00  0.00    +0.000 OA
ATOM      9  C   UNL     1       6.969   4.758  14.939  0.00  0.00    +0.000 C 
ENDBRANCH   2   9
ENDBRANCH   1   5
BRANCH   1  10
ATOM     10  C   UNL     1       2.374   5.740  19.206  0.00  0.00    +0.000 C 
BRANCH  10  11
ATOM     11  C   UNL     1       1.895   5.098  20.500  0.00  0.00    +0.000 C 
BRANCH  11  12
ATOM     12  C   UNL     1       1.458   3.664  20.197  0.00  0.00    +0.000 C 
BRANCH  12  13
ATOM     13  C   UNL     1       2.551   2.825  19.651  0.00  0.00    +0.000 A 
ATOM     14  C   UNL     1       3.749   2.474  20.232  0.00  0.00    +0.000 A 
ATOM     15  N   UNL     1       4.369   1.672  19.317  0.00  0.00    +0.000 N 
ATOM     16  C   UNL     1       3.539   1.560  18.238  0.00  0.00    +0.000 A 
ATOM     17  N   UNL     1       2.434   2.246  18.410  0.00  0.00    +0.000 NA
ATOM     18  H   UNL     1       5.272   1.232  19.416  0.00  0.00    +0.000 HD
ENDBRANCH  12  13
ENDBRANCH  11  12
ENDBRANCH  10  11
ENDBRANCH   1  10
TORSDOF 6
ENDMDL
MODEL 5
REMARK VINA RESULT:      -6.0      3.003      5.709
REMARK  Name = 
REMARK  6 active torsions:
REMARK  status: ('A' for Active; 'I' for Inactive)
REMARK    1  A    between atoms: C_2  and  C_3
REMARK    2  A    between atoms: C_6  and  O_7
REMARK    3  A    between atoms: O_7  and  C_8
REMARK    4  A    between atoms: C_8  and  C_9
REMARK    5  A    between atoms: C_9  and  C_10
REMARK    6  A    between atoms: C_10  and  C_11
REMARK                            x       y       z     vdW  Elec       q    Type
REMARK                         _______ _______ _______ _____ _____    ______ ____
ROOT
ATOM      1  O   UNL     1       4.762   3.413  16.808  0.00  0.00    +0.000 OA
ENDROOT
BRANCH   1   5
ATOM      2  C   UNL     1       2.152   3.100  20.053  0.00  0.00    +0.000 A 
ATOM      3  C   UNL     1       3.520   2.971  20.285  0.00  0.00    +0.000 A 
ATOM      4  C   UNL     1       4.413   3.066  19.219  0.00  0.00    +0.000 A 
ATOM      5  C   UNL     1       3.954   3.292  17.915  0.00  0.00    +0.000 A 
ATOM      6  C   UNL     1       2.579   3.414  17.692  0.00  0.00    +0.000 A 
ATOM      7  C   UNL     1       1.674   3.317  18.758  0.00  0.00    +0.000 A 
BRANCH   2   9
ATOM      8  O   UNL     1       1.517   2.461  22.247  0.00  0.00    +0.000 OA
ATOM      9  C   UNL     1       1.216   3.013  21.193  0.00  0.00    +0.000 C 
ENDBRANCH   2   9
ENDBRANCH   1   5
BRANCH   1  10
ATOM     10  C   UNL     1       4.523   4.590  16.034  0.00  0.00    +0.000 C 
BRANCH  10  11
ATOM     11  C   UNL     1       5.766   5.044  15.283  0.00  0.00    +0.000 C 
BRANCH  11  12
ATOM     12  C   UNL     1       6.998   4.597  16.071  0.00  0.00    +0.000 C 
BRANCH  12  13
ATOM     13  C   UNL     1       7.381   5.545  17.143  0.00  0.00    +0.000 A 
ATOM     14  C   UNL     1       7.634   5.293  18.473  0.00  0.00    +0.000 A 
ATOM     15  N   UNL     1       7.969   6.505  19.008  0.00  0.00    +0.000 N 
ATOM     16  C   UNL     1       7.915   7.428  18.003  0.00  0.00    +0.000 A 
ATOM     17  N   UNL     1       7.562   6.878  16.865  0.00  0.00    +0.000 NA
ATOM     18  H   UNL     1       8.217   6.691  19.969  0.00  0.00    +0.000 HD
ENDBRANCH  12  13
ENDBRANCH  11  12
ENDBRANCH  10  11
ENDBRANCH   1  10
TORSDOF 6
ENDMDL
MODEL 6
REMARK VINA RESULT:      -6.0      2.863      5.505
REMARK  Name = 
REMARK  6 active torsions:
REMARK  status: ('A' for Active; 'I' for Inactive)
REMARK    1  A    between atoms: C_2  and  C_3
REMARK    2  A    between atoms: C_6  and  O_7
REMARK    3  A    between atoms: O_7  and  C_8
REMARK    4  A    between atoms: C_8  and  C_9
REMARK    5  A    between atoms: C_9  and  C_10
REMARK    6  A    between atoms: C_10  and  C_11
REMARK                            x       y       z     vdW  Elec       q    Type
REMARK                         _______ _______ _______ _____ _____    ______ ____
ROOT
ATOM      1  O   UNL     1       3.814   6.204  17.337  0.00  0.00    +0.000 OA
ENDROOT
BRANCH   1   5
ATOM      2  C   UNL     1       1.829   3.729  20.052  0.00  0.00    +0.000 A 
ATOM      3  C   UNL     1       1.851   3.360  18.709  0.00  0.00    +0.000 A 
ATOM      4  C   UNL     1       2.502   4.170  17.780  0.00  0.00    +0.000 A 
ATOM      5  C   UNL     1       3.138   5.352  18.179  0.00  0.00    +0.000 A 
ATOM      6  C   UNL     1       3.105   5.717  19.529  0.00  0.00    +0.000 A 
ATOM      7  C   UNL     1       2.451   4.910  20.469  0.00  0.00    +0.000 A 
BRANCH   2   9
ATOM      8  O   UNL     1       1.582   2.678  22.164  0.00  0.00    +0.000 OA
ATOM      9  C   UNL     1       1.149   2.855  21.029  0.00  0.00    +0.000 C 
ENDBRANCH   2   9
ENDBRANCH   1   5
BRANCH   1  10
ATOM     10  C   UNL     1       5.193   6.382  17.666  0.00  0.00    +0.000 C 
BRANCH  10  11
ATOM     11  C   UNL     1       5.865   5.071  18.049  0.00  0.00    +0.000 C 
BRANCH  11  12
ATOM     12  C   UNL     1       7.161   4.940  17.246  0.00  0.00    +0.000 C 
BRANCH  12  13
ATOM     13  C   UNL     1       6.933   4.585  15.826  0.00  0.00    +0.000 A 
ATOM     14  C   UNL     1       6.113   3.615  15.295  0.00  0.00    +0.000 A 
ATOM     15  N   UNL     1       6.255   3.729  13.940  0.00  0.00    +0.000 N 
ATOM     16  C   UNL     1       7.132   4.748  13.703  0.00  0.00    +0.000 A 
ATOM     17  N   UNL     1       7.559   5.284  14.822  0.00  0.00    +0.000 NA
ATOM     18  H   UNL     1       5.794   3.169  13.238  0.00  0.00    +0.000 HD
ENDBRANCH  12  13
ENDBRANCH  11  12
ENDBRANCH  10  11
ENDBRANCH   1  10
TORSDOF 6
ENDMDL
MODEL 7
REMARK VINA RESULT:      -5.8      2.927      5.392
REMARK  Name = 
REMARK  6 active torsions:
REMARK  status: ('A' for Active; 'I' for Inactive)
REMARK    1  A    between atoms: C_2  and  C_3
REMARK    2  A    between atoms: C_6  and  O_7
REMARK    3  A    between atoms: O_7  and  C_8
REMARK    4  A    between atoms: C_8  and  C_9
REMARK    5  A    between atoms: C_9  and  C_10
REMARK    6  A    between atoms: C_10  and  C_11
REMARK                            x       y       z     vdW  Elec       q    Type
REMARK                         _______ _______ _______ _____ _____    ______ ____
ROOT
ATOM      1  O   UNL     1       3.554   6.757  17.384  0.00  0.00    +0.000 OA
ENDROOT
BRANCH   1   5
ATOM      2  C   UNL     1       1.835   4.036  20.045  0.00  0.00    +0.000 A 
ATOM      3  C   UNL     1       2.339   5.232  20.551  0.00  0.00    +0.000 A 
ATOM      4  C   UNL     1       2.923   6.157  19.685  0.00  0.00    +0.000 A 
ATOM      5  C   UNL     1       3.008   5.900  18.312  0.00  0.00    +0.000 A 
ATOM      6  C   UNL     1       2.505   4.694  17.815  0.00  0.00    +0.000 A 
ATOM      7  C   UNL     1       1.918   3.758  18.678  0.00  0.00    +0.000 A 
BRANCH   2   9
ATOM      8  O   UNL     1       1.668   2.830  22.080  0.00  0.00    +0.000 OA
ATOM      9  C   UNL     1       1.205   3.071  20.969  0.00  0.00    +0.000 C 
ENDBRANCH   2   9
ENDBRANCH   1   5
BRANCH   1  10
ATOM     10  C   UNL     1       4.742   6.266  16.760  0.00  0.00    +0.000 C 
BRANCH  10  11
ATOM     11  C   UNL     1       5.982   6.525  17.604  0.00  0.00    +0.000 C 
BRANCH  11  12
ATOM     12  C   UNL     1       7.008   5.431  17.303  0.00  0.00    +0.000 C 
BRANCH  12  13
ATOM     13  C   UNL     1       6.865   4.854  15.946  0.00  0.00    +0.000 A 
ATOM     14  C   UNL     1       6.097   3.789  15.533  0.00  0.00    +0.000 A 
ATOM     15  N   UNL     1       6.309   3.697  14.186  0.00  0.00    +0.000 N 
ATOM     16  C   UNL     1       7.174   4.694  13.836  0.00  0.00    +0.000 A 
ATOM     17  N   UNL     1       7.528   5.410  14.877  0.00  0.00    +0.000 NA
ATOM     18  H   UNL     1       5.899   3.021  13.557  0.00  0.00    +0.000 HD
ENDBRANCH  12  13
ENDBRANCH  11  12
ENDBRANCH  10  11
ENDBRANCH   1  10
TORSDOF 6
ENDMDL
MODEL 8
REMARK VINA RESULT:      -5.8      1.515      1.892
REMARK  Name = 
REMARK  6 active torsions:
REMARK  status: ('A' for Active; 'I' for Inactive)
REMARK    1  A    between atoms: C_2  and  C_3
REMARK    2  A    between atoms: C_6  and  O_7
REMARK    3  A    between atoms: O_7  and  C_8
REMARK    4  A    between atoms: C_8  and  C_9
REMARK    5  A    between atoms: C_9  and  C_10
REMARK    6  A    between atoms: C_10  and  C_11
REMARK                            x       y       z     vdW  Elec       q    Type
REMARK                         _______ _______ _______ _____ _____    ______ ____
ROOT
ATOM      1  O   UNL     1       3.129   6.250  18.998  0.00  0.00    +0.000 OA
ENDROOT
BRANCH   1   5
ATOM      2  C   UNL     1       5.983   5.134  16.161  0.00  0.00    +0.000 A 
ATOM      3  C   UNL     1       5.246   6.296  15.942  0.00  0.00    +0.000 A 
ATOM      4  C   UNL     1       4.283   6.689  16.870  0.00  0.00    +0.000 A 
ATOM      5  C   UNL     1       4.047   5.933  18.024  0.00  0.00    +0.000 A 
ATOM      6  C   UNL     1       4.788   4.765  18.232  0.00  0.00    +0.000 A 
ATOM      7  C   UNL     1       5.756   4.361  17.303  0.00  0.00    +0.000 A 
BRANCH   2   9
ATOM      8  O   UNL     1       7.665   5.559  14.544  0.00  0.00    +0.000 OA
ATOM      9  C   UNL     1       7.011   4.736  15.178  0.00  0.00    +0.000 C 
ENDBRANCH   2   9
ENDBRANCH   1   5
BRANCH   1  10
ATOM     10  C   UNL     1       2.948   5.234  19.987  0.00  0.00    +0.000 C 
BRANCH  10  11
ATOM     11  C   UNL     1       1.543   5.244  20.569  0.00  0.00    +0.000 C 
BRANCH  11  12
ATOM     12  C   UNL     1       0.904   3.877  20.316  0.00  0.00    +0.000 C 
BRANCH  12  13
ATOM     13  C   UNL     1       1.683   3.034  19.380  0.00  0.00    +0.000 A 
ATOM     14  C   UNL     1       2.592   2.039  19.661  0.00  0.00    +0.000 A 
ATOM     15  N   UNL     1       2.994   1.568  18.443  0.00  0.00    +0.000 N 
ATOM     16  C   UNL     1       2.323   2.274  17.486  0.00  0.00    +0.000 A 
ATOM     17  N   UNL     1       1.524   3.167  18.021  0.00  0.00    +0.000 NA
ATOM     18  H   UNL     1       3.661   0.828  18.274  0.00  0.00    +0.000 HD
ENDBRANCH  12  13
ENDBRANCH  11  12
ENDBRANCH  10  11
ENDBRANCH   1  10
TORSDOF 6
ENDMDL
MODEL 9
REMARK VINA RESULT:      -5.8      2.892      5.759
REMARK  Name = 
REMARK  6 active torsions:
REMARK  status: ('A' for Active; 'I' for Inactive)
REMARK    1  A    between atoms: C_2  and  C_3
REMARK    2  A    between atoms: C_6  and  O_7
REMARK    3  A    between atoms: O_7  and  C_8
REMARK    4  A    between atoms: C_8  and  C_9
REMARK    5  A    between atoms: C_9  and  C_10
REMARK    6  A    between atoms: C_10  and  C_11
REMARK                            x       y       z     vdW  Elec       q    Type
REMARK                         _______ _______ _______ _____ _____    ______ ____
ROOT
ATOM      1  O   UNL     1       3.613   3.754  16.210  0.00  0.00    +0.000 OA
ENDROOT
BRANCH   1   5
ATOM      2  C   UNL     1       1.835   3.107  19.933  0.00  0.00    +0.000 A 
ATOM      3  C   UNL     1       1.936   2.035  19.049  0.00  0.00    +0.000 A 
ATOM      4  C   UNL     1       2.520   2.224  17.797  0.00  0.00    +0.000 A 
ATOM      5  C   UNL     1       3.011   3.478  17.416  0.00  0.00    +0.000 A 
ATOM      6  C   UNL     1       2.900   4.550  18.308  0.00  0.00    +0.000 A 
ATOM      7  C   UNL     1       2.312   4.369  19.567  0.00  0.00    +0.000 A 
BRANCH   2   9
ATOM      8  O   UNL     1       1.901   2.807  22.285  0.00  0.00    +0.000 OA
ATOM      9  C   UNL     1       1.228   2.891  21.262  0.00  0.00    +0.000 C 
ENDBRANCH   2   9
ENDBRANCH   1   5
BRANCH   1  10
ATOM     10  C   UNL     1       4.732   4.637  16.302  0.00  0.00    +0.000 C 
BRANCH  10  11
ATOM     11  C   UNL     1       5.547   4.666  15.017  0.00  0.00    +0.000 C 
BRANCH  11  12
ATOM     12  C   UNL     1       7.031   4.668  15.386  0.00  0.00    +0.000 C 
BRANCH  12  13
ATOM     13  C   UNL     1       7.316   5.376  16.656  0.00  0.00    +0.000 A 
ATOM     14  C   UNL     1       7.534   4.852  17.911  0.00  0.00    +0.000 A 
ATOM     15  N   UNL     1       7.775   5.932  18.712  0.00  0.00    +0.000 N 
ATOM     16  C   UNL     1       7.705   7.049  17.929  0.00  0.00    +0.000 A 
ATOM     17  N   UNL     1       7.429   6.745  16.683  0.00  0.00    +0.000 NA
ATOM     18  H   UNL     1       7.976   5.914  19.701  0.00  0.00    +0.000 HD
ENDBRANCH  12  13
ENDBRANCH  11  12
ENDBRANCH  10  11
ENDBRANCH   1  10
TORSDOF 6
ENDMDL
