MODEL 1
REMARK VINA RESULT:      -8.3      0.000      0.000
REMARK  Name = 
REMARK  6 active torsions:
REMARK  status: ('A' for Active; 'I' for Inactive)
REMARK    1  A    between atoms: C_2  and  C_3
REMARK    2  A    between atoms: C_3  and  C_4
REMARK    3  A    between atoms: C_4  and  C_5
REMARK    4  A    between atoms: N_11  and  N_12
REMARK    5  A    between atoms: C_13  and  C_14
REMARK    6  A    between atoms: C_21  and  O_22
REMARK                            x       y       z     vdW  Elec       q    Type
REMARK                         _______ _______ _______ _____ _____    ______ ____
ROOT
ATOM      1  N   UNL     1       8.412   8.163  18.543  0.00  0.00    +0.000 NA
ATOM      2  C   UNL     1       8.379   9.340  17.981  0.00  0.00    +0.000 C 
ENDROOT
BRANCH   2   3
ATOM      3  C   UNL     1       9.048  10.506  18.640  0.00  0.00    +0.000 A 
ATOM      4  C   UNL     1       9.263  10.463  20.008  0.00  0.00    +0.000 A 
ATOM      5  C   UNL     1       9.894  11.536  20.614  0.00  0.00    +0.000 A 
ATOM      6  C   UNL     1      10.382  12.587  19.833  0.00  0.00    +0.000 A 
ATOM      7  C   UNL     1      11.115  13.610  20.463  0.00  0.00    +0.000 A 
ATOM      8  C   UNL     1      11.738  14.603  19.715  0.00  0.00    +0.000 A 
ATOM      9  C   UNL     1      11.577  14.604  18.336  0.00  0.00    +0.000 A 
ATOM     10  C   UNL     1      10.793  13.613  17.716  0.00  0.00    +0.000 A 
ATOM     11  C   UNL     1      10.178  12.558  18.433  0.00  0.00    +0.000 A 
ATOM     12  N   UNL     1       9.470  11.536  17.852  0.00  0.00    +0.000 NA
BRANCH  10  13
ATOM     13  O   UNL     1      10.665  13.665  16.344  0.00  0.00    +0.000 OA
ATOM     14  H   UNL     1      11.533  13.551  15.932  0.00  0.00    +0.000 HD
ENDBRANCH  10  13
ENDBRANCH   2   3
BRANCH   1  17
ATOM     15  O   UNL     1       7.980   5.511  19.655  0.00  0.00    +0.000 OA
ATOM     16  C   UNL     1       7.659   5.809  18.506  0.00  0.00    +0.000 C 
ATOM     17  N   UNL     1       7.849   7.060  17.940  0.00  0.00    +0.000 N 
ATOM     18  H   UNL     1       7.882   7.120  16.928  0.00  0.00    +0.000 HD
BRANCH  16  19
ATOM     19  C   UNL     1       6.883   4.806  17.640  0.00  0.00    +0.000 C 
BRANCH  19  20
ATOM     20  C   UNL     1       5.849   5.341  16.641  0.00  0.00    +0.000 C 
BRANCH  20  21
ATOM     21  C   UNL     1       4.431   5.068  17.103  0.00  0.00    +0.000 A 
ATOM     22  C   UNL     1       3.656   6.086  17.680  0.00  0.00    +0.000 A 
ATOM     23  C   UNL     1       2.364   5.827  18.139  0.00  0.00    +0.000 A 
ATOM     24  C   UNL     1       1.824   4.547  18.033  0.00  0.00    +0.000 A 
ATOM     25  C   UNL     1       2.581   3.524  17.464  0.00  0.00    +0.000 A 
ATOM     26  C   UNL     1       3.876   3.783  16.999  0.00  0.00    +0.000 A 
ENDBRANCH  20  21
ENDBRANCH  19  20
ENDBRANCH  16  19
ENDBRANCH   1  17
TORSDOF 6
ENDMDL
MODEL 2
REMARK VINA RESULT:      -8.2      0.801      1.156
REMARK  Name = 
REMARK  6 active torsions:
REMARK  status: ('A' for Active; 'I' for Inactive)
REMARK    1  A    between atoms: C_2  and  C_3
REMARK    2  A    between atoms: C_3  and  C_4
REMARK    3  A    between atoms: C_4  and  C_5
REMARK    4  A    between atoms: N_11  and  N_12
REMARK    5  A    between atoms: C_13  and  C_14
REMARK    6  A    between atoms: C_21  and  O_22
REMARK                            x       y       z     vdW  Elec       q    Type
REMARK                         _______ _______ _______ _____ _____    ______ ____
ROOT
ATOM      1  N   UNL     1       8.347   8.238  18.493  0.00  0.00    +0.000 NA
ATOM      2  C   UNL     1       8.376   9.398  17.895  0.00  0.00    +0.000 C 
ENDROOT
BRANCH   2   3
ATOM      3  C   UNL     1       9.173  10.523  18.477  0.00  0.00    +0.000 A 
ATOM      4  C   UNL     1       9.358  10.566  19.850  0.00  0.00    +0.000 A 
ATOM      5  C   UNL     1      10.107  11.600  20.385  0.00  0.00    +0.000 A 
ATOM      6  C   UNL     1      10.735  12.516  19.537  0.00  0.00    +0.000 A 
ATOM      7  C   UNL     1      11.579  13.490  20.103  0.00  0.00    +0.000 A 
ATOM      8  C   UNL     1      12.333  14.333  19.297  0.00  0.00    +0.000 A 
ATOM      9  C   UNL     1      12.197  14.241  17.918  0.00  0.00    +0.000 A 
ATOM     10  C   UNL     1      11.307  13.306  17.357  0.00  0.00    +0.000 A 
ATOM     11  C   UNL     1      10.553  12.397  18.139  0.00  0.00    +0.000 A 
ATOM     12  N   UNL     1       9.733  11.425  17.622  0.00  0.00    +0.000 NA
BRANCH  10  13
ATOM     13  O   UNL     1      11.210  13.261  15.983  0.00  0.00    +0.000 OA
ATOM     14  H   UNL     1      10.473  12.689  15.728  0.00  0.00    +0.000 HD
ENDBRANCH  10  13
ENDBRANCH   2   3
BRANCH   1  17
ATOM     15  O   UNL     1       7.932   5.597  19.637  0.00  0.00    +0.000 OA
ATOM     16  C   UNL     1       7.486   5.921  18.538  0.00  0.00    +0.000 C 
ATOM     17  N   UNL     1       7.664   7.168  17.958  0.00  0.00    +0.000 N 
ATOM     18  H   UNL     1       7.575   7.237  16.951  0.00  0.00    +0.000 HD
BRANCH  16  19
ATOM     19  C   UNL     1       6.564   4.964  17.770  0.00  0.00    +0.000 C 
BRANCH  19  20
ATOM     20  C   UNL     1       5.272   5.520  17.156  0.00  0.00    +0.000 C 
BRANCH  20  21
ATOM     21  C   UNL     1       4.052   5.117  17.960  0.00  0.00    +0.000 A 
ATOM     22  C   UNL     1       3.038   4.338  17.384  0.00  0.00    +0.000 A 
ATOM     23  C   UNL     1       1.897   3.997  18.111  0.00  0.00    +0.000 A 
ATOM     24  C   UNL     1       1.748   4.432  19.427  0.00  0.00    +0.000 A 
ATOM     25  C   UNL     1       2.744   5.209  20.014  0.00  0.00    +0.000 A 
ATOM     26  C   UNL     1       3.892   5.548  19.286  0.00  0.00    +0.000 A 
ENDBRANCH  20  21
ENDBRANCH  19  20
ENDBRANCH  16  19
ENDBRANCH   1  17
TORSDOF 6
ENDMDL
MODEL 3
REMARK VINA RESULT:      -7.7      5.935      8.711
REMARK  Name = 
REMARK  6 active torsions:
REMARK  status: ('A' for Active; 'I' for Inactive)
REMARK    1  A    between atoms: C_2  and  C_3
REMARK    2  A    between atoms: C_3  and  C_4
REMARK    3  A    between atoms: C_4  and  C_5
REMARK    4  A    between atoms: N_11  and  N_12
REMARK    5  A    between atoms: C_13  and  C_14
REMARK    6  A    between atoms: C_21  and  O_22
REMARK                            x       y       z     vdW  Elec       q    Type
REMARK                         _______ _______ _______ _____ _____    ______ ____
ROOT
ATOM      1  N   UNL     1       2.074   6.768  20.207  0.00  0.00    +0.000 NA
ATOM      2  C   UNL     1       2.108   7.883  19.530  0.00  0.00    +0.000 C 
ENDROOT
BRANCH   2   3
ATOM      3  C   UNL     1       1.206   9.017  19.905  0.00  0.00    +0.000 A 
ATOM      4  C   UNL     1       0.685   9.814  18.898  0.00  0.00    +0.000 A 
ATOM      5  C   UNL     1      -0.161  10.854  19.247  0.00  0.00    +0.000 A 
ATOM      6  C   UNL     1      -0.546  11.020  20.579  0.00  0.00    +0.000 A 
ATOM      7  C   UNL     1      -1.491  12.016  20.887  0.00  0.00    +0.000 A 
ATOM      8  C   UNL     1      -2.010  12.131  22.171  0.00  0.00    +0.000 A 
ATOM      9  C   UNL     1      -1.536  11.284  23.165  0.00  0.00    +0.000 A 
ATOM     10  C   UNL     1      -0.546  10.329  22.865  0.00  0.00    +0.000 A 
ATOM     11  C   UNL     1      -0.023  10.147  21.562  0.00  0.00    +0.000 A 
ATOM     12  N   UNL     1       0.888   9.178  21.221  0.00  0.00    +0.000 NA
BRANCH  10  13
ATOM     13  O   UNL     1      -0.111   9.517  23.890  0.00  0.00    +0.000 OA
ATOM     14  H   UNL     1       0.848   9.403  23.829  0.00  0.00    +0.000 HD
ENDBRANCH  10  13
ENDBRANCH   2   3
BRANCH   1  17
ATOM     15  O   UNL     1       1.435   4.165  19.076  0.00  0.00    +0.000 OA
ATOM     16  C   UNL     1       2.581   4.495  19.377  0.00  0.00    +0.000 C 
ATOM     17  N   UNL     1       2.925   5.724  19.919  0.00  0.00    +0.000 N 
ATOM     18  H   UNL     1       3.792   5.783  20.441  0.00  0.00    +0.000 HD
BRANCH  16  19
ATOM     19  C   UNL     1       3.759   3.571  19.038  0.00  0.00    +0.000 C 
BRANCH  19  20
ATOM     20  C   UNL     1       4.424   3.700  17.661  0.00  0.00    +0.000 C 
BRANCH  20  21
ATOM     21  C   UNL     1       5.444   4.821  17.634  0.00  0.00    +0.000 A 
ATOM     22  C   UNL     1       6.686   4.676  18.269  0.00  0.00    +0.000 A 
ATOM     23  C   UNL     1       7.611   5.720  18.277  0.00  0.00    +0.000 A 
ATOM     24  C   UNL     1       7.311   6.929  17.653  0.00  0.00    +0.000 A 
ATOM     25  C   UNL     1       6.080   7.092  17.019  0.00  0.00    +0.000 A 
ATOM     26  C   UNL     1       5.152   6.042  17.007  0.00  0.00    +0.000 A 
ENDBRANCH  20  21
ENDBRANCH  19  20
ENDBRANCH  16  19
ENDBRANCH   1  17
TORSDOF 6
ENDMDL
MODEL 4
REMARK VINA RESULT:      -7.7      1.978      2.783
REMARK  Name = 
REMARK  6 active torsions:
REMARK  status: ('A' for Active; 'I' for Inactive)
REMARK    1  A    between atoms: C_2  and  C_3
REMARK    2  A    between atoms: C_3  and  C_4
REMARK    3  A    between atoms: C_4  and  C_5
REMARK    4  A    between atoms: N_11  and  N_12
REMARK    5  A    between atoms: C_13  and  C_14
REMARK    6  A    between atoms: C_21  and  O_22
REMARK                            x       y       z     vdW  Elec       q    Type
REMARK                         _______ _______ _______ _____ _____    ______ ____
ROOT
ATOM      1  N   UNL     1       7.763   8.949  17.843  0.00  0.00    +0.000 NA
ATOM      2  C   UNL     1       8.925   9.179  18.392  0.00  0.00    +0.000 C 
ENDROOT
BRANCH   2   3
ATOM      3  C   UNL     1       9.194  10.491  19.058  0.00  0.00    +0.000 A 
ATOM      4  C   UNL     1       9.543  11.577  18.271  0.00  0.00    +0.000 A 
ATOM      5  C   UNL     1       9.778  12.795  18.888  0.00  0.00    +0.000 A 
ATOM      6  C   UNL     1       9.569  12.929  20.263  0.00  0.00    +0.000 A 
ATOM      7  C   UNL     1       9.709  14.204  20.844  0.00  0.00    +0.000 A 
ATOM      8  C   UNL     1       9.380  14.418  22.177  0.00  0.00    +0.000 A 
ATOM      9  C   UNL     1       8.964  13.339  22.946  0.00  0.00    +0.000 A 
ATOM     10  C   UNL     1       8.883  12.055  22.376  0.00  0.00    +0.000 A 
ATOM     11  C   UNL     1       9.166  11.799  21.012  0.00  0.00    +0.000 A 
ATOM     12  N   UNL     1       9.025  10.575  20.408  0.00  0.00    +0.000 NA
BRANCH  10  13
ATOM     13  O   UNL     1       8.468  11.021  23.188  0.00  0.00    +0.000 OA
ATOM     14  H   UNL     1       8.909  11.084  24.047  0.00  0.00    +0.000 HD
ENDBRANCH  10  13
ENDBRANCH   2   3
BRANCH   1  17
ATOM     15  O   UNL     1       7.859   6.299  19.038  0.00  0.00    +0.000 OA
ATOM     16  C   UNL     1       7.523   6.489  17.870  0.00  0.00    +0.000 C 
ATOM     17  N   UNL     1       7.466   7.735  17.265  0.00  0.00    +0.000 N 
ATOM     18  H   UNL     1       7.521   7.770  16.253  0.00  0.00    +0.000 HD
BRANCH  16  19
ATOM     19  C   UNL     1       7.005   5.320  17.021  0.00  0.00    +0.000 C 
BRANCH  19  20
ATOM     20  C   UNL     1       5.777   5.544  16.130  0.00  0.00    +0.000 C 
BRANCH  20  21
ATOM     21  C   UNL     1       4.487   5.250  16.870  0.00  0.00    +0.000 A 
ATOM     22  C   UNL     1       3.935   3.960  16.866  0.00  0.00    +0.000 A 
ATOM     23  C   UNL     1       2.729   3.696  17.516  0.00  0.00    +0.000 A 
ATOM     24  C   UNL     1       2.052   4.717  18.180  0.00  0.00    +0.000 A 
ATOM     25  C   UNL     1       2.584   6.005  18.192  0.00  0.00    +0.000 A 
ATOM     26  C   UNL     1       3.797   6.270  17.544  0.00  0.00    +0.000 A 
ENDBRANCH  20  21
ENDBRANCH  19  20
ENDBRANCH  16  19
ENDBRANCH   1  17
TORSDOF 6
ENDMDL
MODEL 5
REMARK VINA RESULT:      -7.7      6.837      8.148
REMARK  Name = 
REMARK  6 active torsions:
REMARK  status: ('A' for Active; 'I' for Inactive)
REMARK    1  A    between atoms: C_2  and  C_3
REMARK    2  A    between atoms: C_3  and  C_4
REMARK    3  A    between atoms: C_4  and  C_5
REMARK    4  A    between atoms: N_11  and  N_12
REMARK    5  A    between atoms: C_13  and  C_14
REMARK    6  A    between atoms: C_21  and  O_22
REMARK                            x       y       z     vdW  Elec       q    Type
REMARK                         _______ _______ _______ _____ _____    ______ ____
ROOT
ATOM      1  N   UNL     1       2.818   7.243  18.211  0.00  0.00    +0.000 NA
ATOM      2  C   UNL     1       2.167   7.333  19.338  0.00  0.00    +0.000 C 
ENDROOT
BRANCH   2   3
ATOM      3  C   UNL     1       1.519   8.624  19.730  0.00  0.00    +0.000 A 
ATOM      4  C   UNL     1       1.351   9.603  18.764  0.00  0.00    +0.000 A 
ATOM      5  C   UNL     1       0.738  10.792  19.125  0.00  0.00    +0.000 A 
ATOM      6  C   UNL     1       0.222  10.945  20.414  0.00  0.00    +0.000 A 
ATOM      7  C   UNL     1      -0.491  12.120  20.719  0.00  0.00    +0.000 A 
ATOM      8  C   UNL     1      -1.141  12.261  21.939  0.00  0.00    +0.000 A 
ATOM      9  C   UNL     1      -1.027  11.246  22.880  0.00  0.00    +0.000 A 
ATOM     10  C   UNL     1      -0.263  10.099  22.594  0.00  0.00    +0.000 A 
ATOM     11  C   UNL     1       0.378   9.894  21.348  0.00  0.00    +0.000 A 
ATOM     12  N   UNL     1       1.068   8.757  21.010  0.00  0.00    +0.000 NA
BRANCH  10  13
ATOM     13  O   UNL     1      -0.182   9.126  23.566  0.00  0.00    +0.000 OA
ATOM     14  H   UNL     1      -1.060   8.751  23.724  0.00  0.00    +0.000 HD
ENDBRANCH  10  13
ENDBRANCH   2   3
BRANCH   1  17
ATOM     15  O   UNL     1       5.008   5.760  19.421  0.00  0.00    +0.000 OA
ATOM     16  C   UNL     1       4.429   5.378  18.405  0.00  0.00    +0.000 C 
ATOM     17  N   UNL     1       3.384   6.057  17.798  0.00  0.00    +0.000 N 
ATOM     18  H   UNL     1       3.206   5.871  16.817  0.00  0.00    +0.000 HD
BRANCH  16  19
ATOM     19  C   UNL     1       4.764   4.008  17.799  0.00  0.00    +0.000 C 
BRANCH  19  20
ATOM     20  C   UNL     1       3.675   2.927  17.776  0.00  0.00    +0.000 C 
BRANCH  20  21
ATOM     21  C   UNL     1       2.856   2.930  19.052  0.00  0.00    +0.000 A 
ATOM     22  C   UNL     1       3.446   2.610  20.283  0.00  0.00    +0.000 A 
ATOM     23  C   UNL     1       2.686   2.576  21.453  0.00  0.00    +0.000 A 
ATOM     24  C   UNL     1       1.322   2.859  21.412  0.00  0.00    +0.000 A 
ATOM     25  C   UNL     1       0.719   3.176  20.196  0.00  0.00    +0.000 A 
ATOM     26  C   UNL     1       1.482   3.215  19.022  0.00  0.00    +0.000 A 
ENDBRANCH  20  21
ENDBRANCH  19  20
ENDBRANCH  16  19
ENDBRANCH   1  17
TORSDOF 6
ENDMDL
MODEL 6
REMARK VINA RESULT:      -7.7      0.911      1.327
REMARK  Name = 
REMARK  6 active torsions:
REMARK  status: ('A' for Active; 'I' for Inactive)
REMARK    1  A    between atoms: C_2  and  C_3
REMARK    2  A    between atoms: C_3  and  C_4
REMARK    3  A    between atoms: C_4  and  C_5
REMARK    4  A    between atoms: N_11  and  N_12
REMARK    5  A    between atoms: C_13  and  C_14
REMARK    6  A    between atoms: C_21  and  O_22
REMARK                            x       y       z     vdW  Elec       q    Type
REMARK                         _______ _______ _______ _____ _____    ______ ____
ROOT
ATOM      1  N   UNL     1       7.826   9.491  17.793  0.00  0.00    +0.000 NA
ATOM      2  C   UNL     1       9.056   9.560  18.223  0.00  0.00    +0.000 C 
ENDROOT
BRANCH   2   3
ATOM      3  C   UNL     1       9.602  10.857  18.733  0.00  0.00    +0.000 A 
ATOM      4  C   UNL     1       9.711  11.039  20.103  0.00  0.00    +0.000 A 
ATOM      5  C   UNL     1      10.229  12.235  20.572  0.00  0.00    +0.000 A 
ATOM      6  C   UNL     1      10.715  13.184  19.670  0.00  0.00    +0.000 A 
ATOM      7  C   UNL     1      11.335  14.341  20.179  0.00  0.00    +0.000 A 
ATOM      8  C   UNL     1      11.956  15.247  19.329  0.00  0.00    +0.000 A 
ATOM      9  C   UNL     1      11.905  15.025  17.958  0.00  0.00    +0.000 A 
ATOM     10  C   UNL     1      11.231  13.899  17.451  0.00  0.00    +0.000 A 
ATOM     11  C   UNL     1      10.624  12.926  18.283  0.00  0.00    +0.000 A 
ATOM     12  N   UNL     1      10.024  11.780  17.824  0.00  0.00    +0.000 NA
BRANCH  10  13
ATOM     13  O   UNL     1      11.209  13.730  16.083  0.00  0.00    +0.000 OA
ATOM     14  H   UNL     1      12.043  13.338  15.790  0.00  0.00    +0.000 HD
ENDBRANCH  10  13
ENDBRANCH   2   3
BRANCH   1  17
ATOM     15  O   UNL     1       8.208   6.819  18.877  0.00  0.00    +0.000 OA
ATOM     16  C   UNL     1       7.484   7.046  17.909  0.00  0.00    +0.000 C 
ATOM     17  N   UNL     1       7.278   8.303  17.363  0.00  0.00    +0.000 N 
ATOM     18  H   UNL     1       6.965   8.354  16.400  0.00  0.00    +0.000 HD
BRANCH  16  19
ATOM     19  C   UNL     1       6.634   5.918  17.305  0.00  0.00    +0.000 C 
BRANCH  19  20
ATOM     20  C   UNL     1       5.237   6.255  16.769  0.00  0.00    +0.000 C 
BRANCH  20  21
ATOM     21  C   UNL     1       4.199   5.260  17.249  0.00  0.00    +0.000 A 
ATOM     22  C   UNL     1       4.400   3.881  17.092  0.00  0.00    +0.000 A 
ATOM     23  C   UNL     1       3.429   2.965  17.499  0.00  0.00    +0.000 A 
ATOM     24  C   UNL     1       2.239   3.412  18.069  0.00  0.00    +0.000 A 
ATOM     25  C   UNL     1       2.021   4.779  18.231  0.00  0.00    +0.000 A 
ATOM     26  C   UNL     1       2.997   5.699  17.827  0.00  0.00    +0.000 A 
ENDBRANCH  20  21
ENDBRANCH  19  20
ENDBRANCH  16  19
ENDBRANCH   1  17
TORSDOF 6
ENDMDL
MODEL 7
REMARK VINA RESULT:      -7.7      6.921      8.686
REMARK  Name = 
REMARK  6 active torsions:
REMARK  status: ('A' for Active; 'I' for Inactive)
REMARK    1  A    between atoms: C_2  and  C_3
REMARK    2  A    between atoms: C_3  and  C_4
REMARK    3  A    between atoms: C_4  and  C_5
REMARK    4  A    between atoms: N_11  and  N_12
REMARK    5  A    between atoms: C_13  and  C_14
REMARK    6  A    between atoms: C_21  and  O_22
REMARK                            x       y       z     vdW  Elec       q    Type
REMARK                         _______ _______ _______ _____ _____    ______ ____
ROOT
ATOM      1  N   UNL     1       2.239   7.030  20.229  0.00  0.00    +0.000 NA
ATOM      2  C   UNL     1       1.964   7.988  19.386  0.00  0.00    +0.000 C 
ENDROOT
BRANCH   2   3
ATOM      3  C   UNL     1       1.079   9.122  19.799  0.00  0.00    +0.000 A 
ATOM      4  C   UNL     1       0.543   9.939  18.817  0.00  0.00    +0.000 A 
ATOM      5  C   UNL     1      -0.287  10.979  19.201  0.00  0.00    +0.000 A 
ATOM      6  C   UNL     1      -0.641  11.127  20.544  0.00  0.00    +0.000 A 
ATOM      7  C   UNL     1      -1.572  12.124  20.890  0.00  0.00    +0.000 A 
ATOM      8  C   UNL     1      -2.061  12.223  22.187  0.00  0.00    +0.000 A 
ATOM      9  C   UNL     1      -1.572  11.356  23.155  0.00  0.00    +0.000 A 
ATOM     10  C   UNL     1      -0.596  10.399  22.818  0.00  0.00    +0.000 A 
ATOM     11  C   UNL     1      -0.103  10.234  21.501  0.00  0.00    +0.000 A 
ATOM     12  N   UNL     1       0.792   9.264  21.124  0.00  0.00    +0.000 NA
BRANCH  10  13
ATOM     13  O   UNL     1      -0.144   9.567  23.820  0.00  0.00    +0.000 OA
ATOM     14  H   UNL     1      -0.265   8.644  23.556  0.00  0.00    +0.000 HD
ENDBRANCH  10  13
ENDBRANCH   2   3
BRANCH   1  17
ATOM     15  O   UNL     1       1.582   4.260  19.633  0.00  0.00    +0.000 OA
ATOM     16  C   UNL     1       2.735   4.687  19.617  0.00  0.00    +0.000 C 
ATOM     17  N   UNL     1       3.088   5.998  19.897  0.00  0.00    +0.000 N 
ATOM     18  H   UNL     1       4.041   6.177  20.195  0.00  0.00    +0.000 HD
BRANCH  16  19
ATOM     19  C   UNL     1       3.883   3.783  19.144  0.00  0.00    +0.000 C 
BRANCH  19  20
ATOM     20  C   UNL     1       5.286   4.387  19.001  0.00  0.00    +0.000 C 
BRANCH  20  21
ATOM     21  C   UNL     1       5.725   4.443  17.551  0.00  0.00    +0.000 A 
ATOM     22  C   UNL     1       7.044   4.780  17.213  0.00  0.00    +0.000 A 
ATOM     23  C   UNL     1       7.440   4.868  15.879  0.00  0.00    +0.000 A 
ATOM     24  C   UNL     1       6.525   4.623  14.857  0.00  0.00    +0.000 A 
ATOM     25  C   UNL     1       5.210   4.290  15.174  0.00  0.00    +0.000 A 
ATOM     26  C   UNL     1       4.812   4.196  16.514  0.00  0.00    +0.000 A 
ENDBRANCH  20  21
ENDBRANCH  19  20
ENDBRANCH  16  19
ENDBRANCH   1  17
TORSDOF 6
ENDMDL
MODEL 8
REMARK VINA RESULT:      -7.7      2.156     10.365
REMARK  Name = 
REMARK  6 active torsions:
REMARK  status: ('A' for Active; 'I' for Inactive)
REMARK    1  A    between atoms: C_2  and  C_3
REMARK    2  A    between atoms: C_3  and  C_4
REMARK    3  A    between atoms: C_4  and  C_5
REMARK    4  A    between atoms: N_11  and  N_12
REMARK    5  A    between atoms: C_13  and  C_14
REMARK    6  A    between atoms: C_21  and  O_22
REMARK                            x       y       z     vdW  Elec       q    Type
REMARK                         _______ _______ _______ _____ _____    ______ ____
ROOT
ATOM      1  N   UNL     1       6.246   7.172  17.415  0.00  0.00    +0.000 NA
ATOM      2  C   UNL     1       4.949   7.191  17.554  0.00  0.00    +0.000 C 
ENDROOT
BRANCH   2   3
ATOM      3  C   UNL     1       4.177   5.908  17.580  0.00  0.00    +0.000 A 
ATOM      4  C   UNL     1       4.557   4.887  16.725  0.00  0.00    +0.000 A 
ATOM      5  C   UNL     1       3.851   3.696  16.760  0.00  0.00    +0.000 A 
ATOM      6  C   UNL     1       2.844   3.513  17.711  0.00  0.00    +0.000 A 
ATOM      7  C   UNL     1       2.218   2.255  17.796  0.00  0.00    +0.000 A 
ATOM      8  C   UNL     1       1.311   1.979  18.811  0.00  0.00    +0.000 A 
ATOM      9  C   UNL     1       0.983   2.986  19.710  0.00  0.00    +0.000 A 
ATOM     10  C   UNL     1       1.566   4.260  19.585  0.00  0.00    +0.000 A 
ATOM     11  C   UNL     1       2.529   4.572  18.594  0.00  0.00    +0.000 A 
ATOM     12  N   UNL     1       3.170   5.781  18.490  0.00  0.00    +0.000 NA
BRANCH  10  13
ATOM     13  O   UNL     1       1.202   5.222  20.503  0.00  0.00    +0.000 OA
ATOM     14  H   UNL     1       0.708   5.925  20.059  0.00  0.00    +0.000 HD
ENDBRANCH  10  13
ENDBRANCH   2   3
BRANCH   1  17
ATOM     15  O   UNL     1       8.680   7.737  18.904  0.00  0.00    +0.000 OA
ATOM     16  C   UNL     1       8.150   8.561  18.160  0.00  0.00    +0.000 C 
ATOM     17  N   UNL     1       6.991   8.330  17.436  0.00  0.00    +0.000 N 
ATOM     18  H   UNL     1       6.451   9.136  17.139  0.00  0.00    +0.000 HD
BRANCH  16  19
ATOM     19  C   UNL     1       8.842   9.904  17.884  0.00  0.00    +0.000 C 
BRANCH  19  20
ATOM     20  C   UNL     1       9.220  10.795  19.074  0.00  0.00    +0.000 C 
BRANCH  20  21
ATOM     21  C   UNL     1      10.316  11.779  18.711  0.00  0.00    +0.000 A 
ATOM     22  C   UNL     1      11.081  12.400  19.708  0.00  0.00    +0.000 A 
ATOM     23  C   UNL     1      12.065  13.333  19.377  0.00  0.00    +0.000 A 
ATOM     24  C   UNL     1      12.299  13.663  18.044  0.00  0.00    +0.000 A 
ATOM     25  C   UNL     1      11.546  13.057  17.040  0.00  0.00    +0.000 A 
ATOM     26  C   UNL     1      10.561  12.117  17.371  0.00  0.00    +0.000 A 
ENDBRANCH  20  21
ENDBRANCH  19  20
ENDBRANCH  16  19
ENDBRANCH   1  17
TORSDOF 6
ENDMDL
MODEL 9
REMARK VINA RESULT:      -7.6      1.756      2.356
REMARK  Name = 
REMARK  6 active torsions:
REMARK  status: ('A' for Active; 'I' for Inactive)
REMARK    1  A    between atoms: C_2  and  C_3
REMARK    2  A    between atoms: C_3  and  C_4
REMARK    3  A    between atoms: C_4  and  C_5
REMARK    4  A    between atoms: N_11  and  N_12
REMARK    5  A    between atoms: C_13  and  C_14
REMARK    6  A    between atoms: C_21  and  O_22
REMARK                            x       y       z     vdW  Elec       q    Type
REMARK                         _______ _______ _______ _____ _____    ______ ____
ROOT
ATOM      1  N   UNL     1       8.232   8.158  18.572  0.00  0.00    +0.000 NA
ATOM      2  C   UNL     1       8.598   9.195  17.869  0.00  0.00    +0.000 C 
ENDROOT
BRANCH   2   3
ATOM      3  C   UNL     1       9.079  10.435  18.556  0.00  0.00    +0.000 A 
ATOM      4  C   UNL     1       9.567  11.477  17.782  0.00  0.00    +0.000 A 
ATOM      5  C   UNL     1       9.998  12.629  18.418  0.00  0.00    +0.000 A 
ATOM      6  C   UNL     1       9.849  12.757  19.801  0.00  0.00    +0.000 A 
ATOM      7  C   UNL     1      10.195  13.980  20.406  0.00  0.00    +0.000 A 
ATOM      8  C   UNL     1       9.937  14.207  21.752  0.00  0.00    +0.000 A 
ATOM      9  C   UNL     1       9.384  13.183  22.510  0.00  0.00    +0.000 A 
ATOM     10  C   UNL     1       9.095  11.940  21.915  0.00  0.00    +0.000 A 
ATOM     11  C   UNL     1       9.300  11.681  20.538  0.00  0.00    +0.000 A 
ATOM     12  N   UNL     1       8.961  10.508  19.912  0.00  0.00    +0.000 NA
BRANCH  10  13
ATOM     13  O   UNL     1       8.551  10.960  22.716  0.00  0.00    +0.000 OA
ATOM     14  H   UNL     1       8.849  11.082  23.628  0.00  0.00    +0.000 HD
ENDBRANCH  10  13
ENDBRANCH   2   3
BRANCH   1  17
ATOM     15  O   UNL     1       7.878   5.534  19.774  0.00  0.00    +0.000 OA
ATOM     16  C   UNL     1       7.672   5.751  18.581  0.00  0.00    +0.000 C 
ATOM     17  N   UNL     1       7.831   6.986  17.971  0.00  0.00    +0.000 N 
ATOM     18  H   UNL     1       7.977   7.001  16.968  0.00  0.00    +0.000 HD
BRANCH  16  19
ATOM     19  C   UNL     1       7.082   4.648  17.690  0.00  0.00    +0.000 C 
BRANCH  19  20
ATOM     20  C   UNL     1       6.105   5.045  16.576  0.00  0.00    +0.000 C 
BRANCH  20  21
ATOM     21  C   UNL     1       4.662   4.916  17.025  0.00  0.00    +0.000 A 
ATOM     22  C   UNL     1       3.978   6.014  17.565  0.00  0.00    +0.000 A 
ATOM     23  C   UNL     1       2.662   5.888  18.012  0.00  0.00    +0.000 A 
ATOM     24  C   UNL     1       2.008   4.660  17.930  0.00  0.00    +0.000 A 
ATOM     25  C   UNL     1       2.674   3.557  17.399  0.00  0.00    +0.000 A 
ATOM     26  C   UNL     1       3.993   3.684  16.945  0.00  0.00    +0.000 A 
ENDBRANCH  20  21
ENDBRANCH  19  20
ENDBRANCH  16  19
ENDBRANCH   1  17
TORSDOF 6
ENDMDL
