MODEL 1
REMARK VINA RESULT:      -8.6      0.000      0.000
REMARK  Name = 
REMARK  6 active torsions:
REMARK  status: ('A' for Active; 'I' for Inactive)
REMARK    1  A    between atoms: O_1  and  C_2
REMARK    2  A    between atoms: C_6  and  C_7
REMARK    3  A    between atoms: C_8  and  C_9
REMARK    4  A    between atoms: C_9  and  N_10
REMARK    5  A    between atoms: C_13  and  C_14
REMARK    6  A    between atoms: C_14  and  C_15
REMARK                            x       y       z     vdW  Elec       q    Type
REMARK                         _______ _______ _______ _____ _____    ______ ____
ROOT
ATOM      1  C   UNL     1       8.453   8.870  18.344  0.00  0.00    +0.000 C 
ATOM      2  C   UNL     1       8.120   7.610  18.315  0.00  0.00    +0.000 C 
ENDROOT
BRANCH   1   7
ATOM      3  C   UNL     1      11.010  13.969  19.591  0.00  0.00    +0.000 A 
ATOM      4  N   UNL     1      11.126  12.724  19.972  0.00  0.00    +0.000 NA
ATOM      5  C   UNL     1      10.172  12.055  19.238  0.00  0.00    +0.000 A 
ATOM      6  C   UNL     1       9.838  10.689  19.228  0.00  0.00    +0.000 A 
ATOM      7  C   UNL     1       8.813  10.256  18.376  0.00  0.00    +0.000 A 
ATOM      8  C   UNL     1       8.134  11.161  17.552  0.00  0.00    +0.000 A 
ATOM      9  C   UNL     1       8.453  12.526  17.547  0.00  0.00    +0.000 A 
ATOM     10  C   UNL     1       9.476  12.931  18.403  0.00  0.00    +0.000 A 
ATOM     11  N   UNL     1      10.042  14.156  18.656  0.00  0.00    +0.000 N 
ATOM     12  H   UNL     1       9.799  15.040  18.238  0.00  0.00    +0.000 HD
BRANCH   3  13
ATOM     13  O   UNL     1      11.755  14.938  20.070  0.00  0.00    +0.000 OA
ATOM     14  H   UNL     1      11.813  14.700  21.010  0.00  0.00    +0.000 HD
ENDBRANCH   3  13
ENDBRANCH   1   7
BRANCH   2  15
ATOM     15  C   UNL     1       7.730   6.141  18.281  0.00  0.00    +0.000 C 
BRANCH  15  16
ATOM     16  N   UNL     1       6.487   5.980  17.510  0.00  0.00    +0.000 NA
ATOM     17  C   UNL     1       6.546   4.791  16.644  0.00  0.00    +0.000 C 
ATOM     18  C   UNL     1       5.246   4.579  15.871  0.00  0.00    +0.000 C 
ATOM     19  C   UNL     1       4.044   4.473  16.809  0.00  0.00    +0.000 C 
ATOM     20  C   UNL     1       4.015   5.744  17.673  0.00  0.00    +0.000 C 
ATOM     21  C   UNL     1       5.333   5.966  18.419  0.00  0.00    +0.000 C 
BRANCH  19  22
ATOM     22  C   UNL     1       4.086   3.163  17.637  0.00  0.00    +0.000 C 
BRANCH  22  23
ATOM     23  C   UNL     1       3.065   3.161  18.747  0.00  0.00    +0.000 A 
ATOM     24  C   UNL     1       3.481   3.104  20.083  0.00  0.00    +0.000 A 
ATOM     25  C   UNL     1       2.549   2.925  21.102  0.00  0.00    +0.000 A 
ATOM     26  C   UNL     1       1.192   2.834  20.798  0.00  0.00    +0.000 A 
ATOM     27  C   UNL     1       0.764   2.950  19.477  0.00  0.00    +0.000 A 
ATOM     28  C   UNL     1       1.695   3.119  18.453  0.00  0.00    +0.000 A 
ENDBRANCH  22  23
ENDBRANCH  19  22
ENDBRANCH  15  16
ENDBRANCH   2  15
TORSDOF 6
ENDMDL
MODEL 2
REMARK VINA RESULT:      -8.6      0.764      1.217
REMARK  Name = 
REMARK  6 active torsions:
REMARK  status: ('A' for Active; 'I' for Inactive)
REMARK    1  A    between atoms: O_1  and  C_2
REMARK    2  A    between atoms: C_6  and  C_7
REMARK    3  A    between atoms: C_8  and  C_9
REMARK    4  A    between atoms: C_9  and  N_10
REMARK    5  A    between atoms: C_13  and  C_14
REMARK    6  A    between atoms: C_14  and  C_15
REMARK                            x       y       z     vdW  Elec       q    Type
REMARK                         _______ _______ _______ _____ _____    ______ ____
ROOT
ATOM      1  C   UNL     1       8.498   8.717  18.561  0.00  0.00    +0.000 C 
ATOM      2  C   UNL     1       8.182   7.466  18.375  0.00  0.00    +0.000 C 
ENDROOT
BRANCH   1   7
ATOM      3  C   UNL     1      10.216  13.781  20.905  0.00  0.00    +0.000 A 
ATOM      4  N   UNL     1      10.067  12.546  21.305  0.00  0.00    +0.000 NA
ATOM      5  C   UNL     1       9.614  11.880  20.187  0.00  0.00    +0.000 A 
ATOM      6  C   UNL     1       9.283  10.525  20.019  0.00  0.00    +0.000 A 
ATOM      7  C   UNL     1       8.841  10.093  18.761  0.00  0.00    +0.000 A 
ATOM      8  C   UNL     1       8.732  10.991  17.693  0.00  0.00    +0.000 A 
ATOM      9  C   UNL     1       9.059  12.346  17.839  0.00  0.00    +0.000 A 
ATOM     10  C   UNL     1       9.496  12.749  19.101  0.00  0.00    +0.000 A 
ATOM     11  N   UNL     1       9.891  13.965  19.599  0.00  0.00    +0.000 N 
ATOM     12  H   UNL     1       9.939  14.843  19.105  0.00  0.00    +0.000 HD
BRANCH   3  13
ATOM     13  O   UNL     1      10.637  14.745  21.692  0.00  0.00    +0.000 OA
ATOM     14  H   UNL     1      10.885  14.253  22.494  0.00  0.00    +0.000 HD
ENDBRANCH   3  13
ENDBRANCH   1   7
BRANCH   2  15
ATOM     15  C   UNL     1       7.814   6.007  18.156  0.00  0.00    +0.000 C 
BRANCH  15  16
ATOM     16  N   UNL     1       6.463   5.923  17.578  0.00  0.00    +0.000 NA
ATOM     17  C   UNL     1       6.366   4.820  16.608  0.00  0.00    +0.000 C 
ATOM     18  C   UNL     1       4.958   4.685  16.031  0.00  0.00    +0.000 C 
ATOM     19  C   UNL     1       3.915   4.496  17.133  0.00  0.00    +0.000 C 
ATOM     20  C   UNL     1       4.043   5.680  18.104  0.00  0.00    +0.000 C 
ATOM     21  C   UNL     1       5.465   5.827  18.651  0.00  0.00    +0.000 C 
BRANCH  19  22
ATOM     22  C   UNL     1       4.062   3.114  17.820  0.00  0.00    +0.000 C 
BRANCH  22  23
ATOM     23  C   UNL     1       3.069   2.929  18.940  0.00  0.00    +0.000 A 
ATOM     24  C   UNL     1       1.695   2.969  18.674  0.00  0.00    +0.000 A 
ATOM     25  C   UNL     1       0.775   2.975  19.720  0.00  0.00    +0.000 A 
ATOM     26  C   UNL     1       1.220   2.908  21.038  0.00  0.00    +0.000 A 
ATOM     27  C   UNL     1       2.583   2.807  21.311  0.00  0.00    +0.000 A 
ATOM     28  C   UNL     1       3.506   2.811  20.266  0.00  0.00    +0.000 A 
ENDBRANCH  22  23
ENDBRANCH  19  22
ENDBRANCH  15  16
ENDBRANCH   2  15
TORSDOF 6
ENDMDL
MODEL 3
REMARK VINA RESULT:      -8.4      5.280      7.130
REMARK  Name = 
REMARK  6 active torsions:
REMARK  status: ('A' for Active; 'I' for Inactive)
REMARK    1  A    between atoms: O_1  and  C_2
REMARK    2  A    between atoms: C_6  and  C_7
REMARK    3  A    between atoms: C_8  and  C_9
REMARK    4  A    between atoms: C_9  and  N_10
REMARK    5  A    between atoms: C_13  and  C_14
REMARK    6  A    between atoms: C_14  and  C_15
REMARK                            x       y       z     vdW  Elec       q    Type
REMARK                         _______ _______ _______ _____ _____    ______ ____
ROOT
ATOM      1  C   UNL     1       1.799   6.532  20.334  0.00  0.00    +0.000 C 
ATOM      2  C   UNL     1       1.915   5.342  20.855  0.00  0.00    +0.000 C 
ENDROOT
BRANCH   1   7
ATOM      3  C   UNL     1       0.558  12.166  19.432  0.00  0.00    +0.000 A 
ATOM      4  N   UNL     1       0.392  11.293  20.391  0.00  0.00    +0.000 NA
ATOM      5  C   UNL     1       0.945  10.133  19.893  0.00  0.00    +0.000 A 
ATOM      6  C   UNL     1       1.056   8.863  20.484  0.00  0.00    +0.000 A 
ATOM      7  C   UNL     1       1.671   7.836  19.755  0.00  0.00    +0.000 A 
ATOM      8  C   UNL     1       2.166   8.068  18.467  0.00  0.00    +0.000 A 
ATOM      9  C   UNL     1       2.066   9.328  17.860  0.00  0.00    +0.000 A 
ATOM     10  C   UNL     1       1.449  10.332  18.607  0.00  0.00    +0.000 A 
ATOM     11  N   UNL     1       1.183  11.652  18.341  0.00  0.00    +0.000 N 
ATOM     12  H   UNL     1       1.402  12.164  17.501  0.00  0.00    +0.000 HD
BRANCH   3  13
ATOM     13  O   UNL     1       0.156  13.413  19.521  0.00  0.00    +0.000 OA
ATOM     14  H   UNL     1       0.594  13.818  18.752  0.00  0.00    +0.000 HD
ENDBRANCH   3  13
ENDBRANCH   1   7
BRANCH   2  15
ATOM     15  C   UNL     1       2.050   3.955  21.461  0.00  0.00    +0.000 C 
BRANCH  15  16
ATOM     16  N   UNL     1       2.612   3.034  20.461  0.00  0.00    +0.000 NA
ATOM     17  C   UNL     1       1.661   2.793  19.363  0.00  0.00    +0.000 C 
ATOM     18  C   UNL     1       2.243   1.877  18.289  0.00  0.00    +0.000 C 
ATOM     19  C   UNL     1       3.551   2.433  17.724  0.00  0.00    +0.000 C 
ATOM     20  C   UNL     1       4.514   2.644  18.903  0.00  0.00    +0.000 C 
ATOM     21  C   UNL     1       3.909   3.537  19.990  0.00  0.00    +0.000 C 
BRANCH  19  22
ATOM     22  C   UNL     1       3.307   3.714  16.887  0.00  0.00    +0.000 C 
BRANCH  22  23
ATOM     23  C   UNL     1       4.575   4.501  16.672  0.00  0.00    +0.000 A 
ATOM     24  C   UNL     1       5.652   3.925  15.986  0.00  0.00    +0.000 A 
ATOM     25  C   UNL     1       6.882   4.574  15.936  0.00  0.00    +0.000 A 
ATOM     26  C   UNL     1       7.038   5.819  16.542  0.00  0.00    +0.000 A 
ATOM     27  C   UNL     1       5.957   6.428  17.175  0.00  0.00    +0.000 A 
ATOM     28  C   UNL     1       4.726   5.775  17.237  0.00  0.00    +0.000 A 
ENDBRANCH  22  23
ENDBRANCH  19  22
ENDBRANCH  15  16
ENDBRANCH   2  15
TORSDOF 6
ENDMDL
MODEL 4
REMARK VINA RESULT:      -8.4      0.922      1.433
REMARK  Name = 
REMARK  6 active torsions:
REMARK  status: ('A' for Active; 'I' for Inactive)
REMARK    1  A    between atoms: O_1  and  C_2
REMARK    2  A    between atoms: C_6  and  C_7
REMARK    3  A    between atoms: C_8  and  C_9
REMARK    4  A    between atoms: C_9  and  N_10
REMARK    5  A    between atoms: C_13  and  C_14
REMARK    6  A    between atoms: C_14  and  C_15
REMARK                            x       y       z     vdW  Elec       q    Type
REMARK                         _______ _______ _______ _____ _____    ______ ____
ROOT
ATOM      1  C   UNL     1       8.680   8.889  18.799  0.00  0.00    +0.000 C 
ATOM      2  C   UNL     1       8.307   7.657  18.590  0.00  0.00    +0.000 C 
ENDROOT
BRANCH   1   7
ATOM      3  C   UNL     1       9.877  14.566  18.137  0.00  0.00    +0.000 A 
ATOM      4  N   UNL     1       9.406  13.596  17.397  0.00  0.00    +0.000 NA
ATOM      5  C   UNL     1       9.399  12.503  18.236  0.00  0.00    +0.000 A 
ATOM      6  C   UNL     1       8.994  11.180  17.986  0.00  0.00    +0.000 A 
ATOM      7  C   UNL     1       9.088  10.244  19.024  0.00  0.00    +0.000 A 
ATOM      8  C   UNL     1       9.574  10.615  20.284  0.00  0.00    +0.000 A 
ATOM      9  C   UNL     1       9.982  11.928  20.553  0.00  0.00    +0.000 A 
ATOM     10  C   UNL     1       9.878  12.840  19.502  0.00  0.00    +0.000 A 
ATOM     11  N   UNL     1      10.177  14.176  19.404  0.00  0.00    +0.000 N 
ATOM     12  H   UNL     1      10.549  14.775  20.124  0.00  0.00    +0.000 HD
BRANCH   3  13
ATOM     13  O   UNL     1      10.042  15.791  17.694  0.00  0.00    +0.000 OA
ATOM     14  H   UNL     1       9.827  15.692  16.751  0.00  0.00    +0.000 HD
ENDBRANCH   3  13
ENDBRANCH   1   7
BRANCH   2  15
ATOM     15  C   UNL     1       7.872   6.222  18.344  0.00  0.00    +0.000 C 
BRANCH  15  16
ATOM     16  N   UNL     1       6.575   6.214  17.650  0.00  0.00    +0.000 NA
ATOM     17  C   UNL     1       6.529   5.168  16.615  0.00  0.00    +0.000 C 
ATOM     18  C   UNL     1       5.173   5.111  15.915  0.00  0.00    +0.000 C 
ATOM     19  C   UNL     1       4.033   4.899  16.913  0.00  0.00    +0.000 C 
ATOM     20  C   UNL     1       4.112   6.026  17.955  0.00  0.00    +0.000 C 
ATOM     21  C   UNL     1       5.485   6.096  18.627  0.00  0.00    +0.000 C 
BRANCH  19  22
ATOM     22  C   UNL     1       4.080   3.479  17.532  0.00  0.00    +0.000 C 
BRANCH  22  23
ATOM     23  C   UNL     1       3.107   3.326  18.674  0.00  0.00    +0.000 A 
ATOM     24  C   UNL     1       3.577   3.110  19.975  0.00  0.00    +0.000 A 
ATOM     25  C   UNL     1       2.690   2.794  21.001  0.00  0.00    +0.000 A 
ATOM     26  C   UNL     1       1.323   2.723  20.742  0.00  0.00    +0.000 A 
ATOM     27  C   UNL     1       0.839   2.995  19.464  0.00  0.00    +0.000 A 
ATOM     28  C   UNL     1       1.726   3.301  18.432  0.00  0.00    +0.000 A 
ENDBRANCH  22  23
ENDBRANCH  19  22
ENDBRANCH  15  16
ENDBRANCH   2  15
TORSDOF 6
ENDMDL
MODEL 5
REMARK VINA RESULT:      -8.3      1.424      2.016
REMARK  Name = 
REMARK  6 active torsions:
REMARK  status: ('A' for Active; 'I' for Inactive)
REMARK    1  A    between atoms: O_1  and  C_2
REMARK    2  A    between atoms: C_6  and  C_7
REMARK    3  A    between atoms: C_8  and  C_9
REMARK    4  A    between atoms: C_9  and  N_10
REMARK    5  A    between atoms: C_13  and  C_14
REMARK    6  A    between atoms: C_14  and  C_15
REMARK                            x       y       z     vdW  Elec       q    Type
REMARK                         _______ _______ _______ _____ _____    ______ ____
ROOT
ATOM      1  C   UNL     1       8.616   9.498  18.064  0.00  0.00    +0.000 C 
ATOM      2  C   UNL     1       8.243   8.253  18.162  0.00  0.00    +0.000 C 
ENDROOT
BRANCH   1   7
ATOM      3  C   UNL     1       8.681  15.331  17.806  0.00  0.00    +0.000 A 
ATOM      4  N   UNL     1       7.782  14.391  17.938  0.00  0.00    +0.000 NA
ATOM      5  C   UNL     1       8.510  13.221  17.913  0.00  0.00    +0.000 A 
ATOM      6  C   UNL     1       8.075  11.889  18.015  0.00  0.00    +0.000 A 
ATOM      7  C   UNL     1       9.031  10.866  17.960  0.00  0.00    +0.000 A 
ATOM      8  C   UNL     1      10.390  11.162  17.807  0.00  0.00    +0.000 A 
ATOM      9  C   UNL     1      10.844  12.483  17.704  0.00  0.00    +0.000 A 
ATOM     10  C   UNL     1       9.872  13.482  17.762  0.00  0.00    +0.000 A 
ATOM     11  N   UNL     1       9.947  14.851  17.696  0.00  0.00    +0.000 N 
ATOM     12  H   UNL     1      10.776  15.415  17.587  0.00  0.00    +0.000 HD
BRANCH   3  13
ATOM     13  O   UNL     1       8.383  16.610  17.780  0.00  0.00    +0.000 OA
ATOM     14  H   UNL     1       8.941  16.930  17.051  0.00  0.00    +0.000 HD
ENDBRANCH   3  13
ENDBRANCH   1   7
BRANCH   2  15
ATOM     15  C   UNL     1       7.809   6.801  18.276  0.00  0.00    +0.000 C 
BRANCH  15  16
ATOM     16  N   UNL     1       6.598   6.585  17.468  0.00  0.00    +0.000 NA
ATOM     17  C   UNL     1       6.819   5.556  16.439  0.00  0.00    +0.000 C 
ATOM     18  C   UNL     1       5.560   5.283  15.620  0.00  0.00    +0.000 C 
ATOM     19  C   UNL     1       4.386   4.875  16.511  0.00  0.00    +0.000 C 
ATOM     20  C   UNL     1       4.183   5.988  17.551  0.00  0.00    +0.000 C 
ATOM     21  C   UNL     1       5.460   6.278  18.344  0.00  0.00    +0.000 C 
BRANCH  19  22
ATOM     22  C   UNL     1       4.612   3.476  17.139  0.00  0.00    +0.000 C 
BRANCH  22  23
ATOM     23  C   UNL     1       3.508   3.098  18.095  0.00  0.00    +0.000 A 
ATOM     24  C   UNL     1       2.185   3.021  17.644  0.00  0.00    +0.000 A 
ATOM     25  C   UNL     1       1.142   2.846  18.550  0.00  0.00    +0.000 A 
ATOM     26  C   UNL     1       1.416   2.715  19.910  0.00  0.00    +0.000 A 
ATOM     27  C   UNL     1       2.734   2.730  20.362  0.00  0.00    +0.000 A 
ATOM     28  C   UNL     1       3.780   2.916  19.458  0.00  0.00    +0.000 A 
ENDBRANCH  22  23
ENDBRANCH  19  22
ENDBRANCH  15  16
ENDBRANCH   2  15
TORSDOF 6
ENDMDL
MODEL 6
REMARK VINA RESULT:      -8.2      4.921      7.109
REMARK  Name = 
REMARK  6 active torsions:
REMARK  status: ('A' for Active; 'I' for Inactive)
REMARK    1  A    between atoms: O_1  and  C_2
REMARK    2  A    between atoms: C_6  and  C_7
REMARK    3  A    between atoms: C_8  and  C_9
REMARK    4  A    between atoms: C_9  and  N_10
REMARK    5  A    between atoms: C_13  and  C_14
REMARK    6  A    between atoms: C_14  and  C_15
REMARK                            x       y       z     vdW  Elec       q    Type
REMARK                         _______ _______ _______ _____ _____    ______ ____
ROOT
ATOM      1  C   UNL     1       1.428   6.118  20.646  0.00  0.00    +0.000 C 
ATOM      2  C   UNL     1       1.467   4.842  20.911  0.00  0.00    +0.000 C 
ENDROOT
BRANCH   1   7
ATOM      3  C   UNL     1       2.046  11.336  18.098  0.00  0.00    +0.000 A 
ATOM      4  N   UNL     1       2.381  10.100  17.837  0.00  0.00    +0.000 NA
ATOM      5  C   UNL     1       1.896   9.383  18.909  0.00  0.00    +0.000 A 
ATOM      6  C   UNL     1       1.960   8.004  19.172  0.00  0.00    +0.000 A 
ATOM      7  C   UNL     1       1.379   7.520  20.352  0.00  0.00    +0.000 A 
ATOM      8  C   UNL     1       0.747   8.388  21.250  0.00  0.00    +0.000 A 
ATOM      9  C   UNL     1       0.671   9.766  21.005  0.00  0.00    +0.000 A 
ATOM     10  C   UNL     1       1.258  10.222  19.824  0.00  0.00    +0.000 A 
ATOM     11  N   UNL     1       1.373  11.473  19.271  0.00  0.00    +0.000 N 
ATOM     12  H   UNL     1       1.030  12.342  19.647  0.00  0.00    +0.000 HD
BRANCH   3  13
ATOM     13  O   UNL     1       2.335  12.341  17.304  0.00  0.00    +0.000 OA
ATOM     14  H   UNL     1       3.041  12.790  17.800  0.00  0.00    +0.000 HD
ENDBRANCH   3  13
ENDBRANCH   1   7
BRANCH   2  15
ATOM     15  C   UNL     1       1.512   3.355  21.221  0.00  0.00    +0.000 C 
BRANCH  15  16
ATOM     16  N   UNL     1       2.348   2.670  20.222  0.00  0.00    +0.000 NA
ATOM     17  C   UNL     1       1.623   2.488  18.954  0.00  0.00    +0.000 C 
ATOM     18  C   UNL     1       2.490   1.822  17.887  0.00  0.00    +0.000 C 
ATOM     19  C   UNL     1       3.777   2.608  17.637  0.00  0.00    +0.000 C 
ATOM     20  C   UNL     1       4.505   2.751  18.983  0.00  0.00    +0.000 C 
ATOM     21  C   UNL     1       3.618   3.390  20.054  0.00  0.00    +0.000 C 
BRANCH  19  22
ATOM     22  C   UNL     1       3.486   3.964  16.944  0.00  0.00    +0.000 C 
BRANCH  22  23
ATOM     23  C   UNL     1       4.733   4.795  16.776  0.00  0.00    +0.000 A 
ATOM     24  C   UNL     1       5.827   4.285  16.066  0.00  0.00    +0.000 A 
ATOM     25  C   UNL     1       7.040   4.969  16.056  0.00  0.00    +0.000 A 
ATOM     26  C   UNL     1       7.160   6.183  16.728  0.00  0.00    +0.000 A 
ATOM     27  C   UNL     1       6.061   6.729  17.387  0.00  0.00    +0.000 A 
ATOM     28  C   UNL     1       4.847   6.041  17.408  0.00  0.00    +0.000 A 
ENDBRANCH  22  23
ENDBRANCH  19  22
ENDBRANCH  15  16
ENDBRANCH   2  15
TORSDOF 6
ENDMDL
MODEL 7
REMARK VINA RESULT:      -8.2      1.053      1.297
REMARK  Name = 
REMARK  6 active torsions:
REMARK  status: ('A' for Active; 'I' for Inactive)
REMARK    1  A    between atoms: O_1  and  C_2
REMARK    2  A    between atoms: C_6  and  C_7
REMARK    3  A    between atoms: C_8  and  C_9
REMARK    4  A    between atoms: C_9  and  N_10
REMARK    5  A    between atoms: C_13  and  C_14
REMARK    6  A    between atoms: C_14  and  C_15
REMARK                            x       y       z     vdW  Elec       q    Type
REMARK                         _______ _______ _______ _____ _____    ______ ____
ROOT
ATOM      1  C   UNL     1       8.601   8.864  18.602  0.00  0.00    +0.000 C 
ATOM      2  C   UNL     1       8.362   7.589  18.730  0.00  0.00    +0.000 C 
ENDROOT
BRANCH   1   7
ATOM      3  C   UNL     1      10.942  14.200  18.971  0.00  0.00    +0.000 A 
ATOM      4  N   UNL     1      11.210  13.006  19.430  0.00  0.00    +0.000 NA
ATOM      5  C   UNL     1      10.202  12.215  18.925  0.00  0.00    +0.000 A 
ATOM      6  C   UNL     1       9.972  10.838  19.086  0.00  0.00    +0.000 A 
ATOM      7  C   UNL     1       8.858  10.266  18.457  0.00  0.00    +0.000 A 
ATOM      8  C   UNL     1       7.991  11.047  17.685  0.00  0.00    +0.000 A 
ATOM      9  C   UNL     1       8.202  12.422  17.511  0.00  0.00    +0.000 A 
ATOM     10  C   UNL     1       9.318  12.965  18.148  0.00  0.00    +0.000 A 
ATOM     11  N   UNL     1       9.825  14.240  18.199  0.00  0.00    +0.000 N 
ATOM     12  H   UNL     1       9.454  15.065  17.754  0.00  0.00    +0.000 HD
BRANCH   3  13
ATOM     13  O   UNL     1      11.682  15.253  19.235  0.00  0.00    +0.000 OA
ATOM     14  H   UNL     1      11.042  15.841  19.671  0.00  0.00    +0.000 HD
ENDBRANCH   3  13
ENDBRANCH   1   7
BRANCH   2  15
ATOM     15  C   UNL     1       8.084   6.101  18.878  0.00  0.00    +0.000 C 
BRANCH  15  16
ATOM     16  N   UNL     1       7.060   5.694  17.903  0.00  0.00    +0.000 NA
ATOM     17  C   UNL     1       6.117   4.729  18.491  0.00  0.00    +0.000 C 
ATOM     18  C   UNL     1       5.017   4.329  17.510  0.00  0.00    +0.000 C 
ATOM     19  C   UNL     1       4.253   5.549  16.994  0.00  0.00    +0.000 C 
ATOM     20  C   UNL     1       5.277   6.511  16.372  0.00  0.00    +0.000 C 
ATOM     21  C   UNL     1       6.392   6.880  17.352  0.00  0.00    +0.000 C 
BRANCH  19  22
ATOM     22  C   UNL     1       3.397   6.195  18.114  0.00  0.00    +0.000 C 
BRANCH  22  23
ATOM     23  C   UNL     1       2.439   5.211  18.735  0.00  0.00    +0.000 A 
ATOM     24  C   UNL     1       2.439   5.008  20.120  0.00  0.00    +0.000 A 
ATOM     25  C   UNL     1       1.685   3.981  20.682  0.00  0.00    +0.000 A 
ATOM     26  C   UNL     1       0.900   3.168  19.867  0.00  0.00    +0.000 A 
ATOM     27  C   UNL     1       0.845   3.400  18.494  0.00  0.00    +0.000 A 
ATOM     28  C   UNL     1       1.607   4.422  17.928  0.00  0.00    +0.000 A 
ENDBRANCH  22  23
ENDBRANCH  19  22
ENDBRANCH  15  16
ENDBRANCH   2  15
TORSDOF 6
ENDMDL
MODEL 8
REMARK VINA RESULT:      -8.1      1.207      1.810
REMARK  Name = 
REMARK  6 active torsions:
REMARK  status: ('A' for Active; 'I' for Inactive)
REMARK    1  A    between atoms: O_1  and  C_2
REMARK    2  A    between atoms: C_6  and  C_7
REMARK    3  A    between atoms: C_8  and  C_9
REMARK    4  A    between atoms: C_9  and  N_10
REMARK    5  A    between atoms: C_13  and  C_14
REMARK    6  A    between atoms: C_14  and  C_15
REMARK                            x       y       z     vdW  Elec       q    Type
REMARK                         _______ _______ _______ _____ _____    ______ ____
ROOT
ATOM      1  C   UNL     1       8.805   9.080  18.888  0.00  0.00    +0.000 C 
ATOM      2  C   UNL     1       8.414   7.853  18.689  0.00  0.00    +0.000 C 
ENDROOT
BRANCH   1   7
ATOM      3  C   UNL     1      10.399  14.649  18.146  0.00  0.00    +0.000 A 
ATOM      4  N   UNL     1      10.033  13.650  17.385  0.00  0.00    +0.000 NA
ATOM      5  C   UNL     1       9.806  12.617  18.268  0.00  0.00    +0.000 A 
ATOM      6  C   UNL     1       9.390  11.298  18.021  0.00  0.00    +0.000 A 
ATOM      7  C   UNL     1       9.230  10.431  19.110  0.00  0.00    +0.000 A 
ATOM      8  C   UNL     1       9.478  10.866  20.417  0.00  0.00    +0.000 A 
ATOM      9  C   UNL     1       9.892  12.179  20.684  0.00  0.00    +0.000 A 
ATOM     10  C   UNL     1      10.044  13.021  19.583  0.00  0.00    +0.000 A 
ATOM     11  N   UNL     1      10.424  14.335  19.468  0.00  0.00    +0.000 N 
ATOM     12  H   UNL     1      10.678  14.966  20.211  0.00  0.00    +0.000 HD
BRANCH   3  13
ATOM     13  O   UNL     1      10.711  15.834  17.674  0.00  0.00    +0.000 OA
ATOM     14  H   UNL     1      11.009  16.295  18.476  0.00  0.00    +0.000 HD
ENDBRANCH   3  13
ENDBRANCH   1   7
BRANCH   2  15
ATOM     15  C   UNL     1       7.958   6.421  18.457  0.00  0.00    +0.000 C 
BRANCH  15  16
ATOM     16  N   UNL     1       6.779   6.419  17.575  0.00  0.00    +0.000 NA
ATOM     17  C   UNL     1       6.962   5.495  16.443  0.00  0.00    +0.000 C 
ATOM     18  C   UNL     1       5.730   5.441  15.542  0.00  0.00    +0.000 C 
ATOM     19  C   UNL     1       4.476   5.055  16.325  0.00  0.00    +0.000 C 
ATOM     20  C   UNL     1       4.319   6.060  17.477  0.00  0.00    +0.000 C 
ATOM     21  C   UNL     1       5.570   6.131  18.356  0.00  0.00    +0.000 C 
BRANCH  19  22
ATOM     22  C   UNL     1       4.534   3.579  16.795  0.00  0.00    +0.000 C 
BRANCH  22  23
ATOM     23  C   UNL     1       3.296   3.178  17.557  0.00  0.00    +0.000 A 
ATOM     24  C   UNL     1       2.114   3.916  17.416  0.00  0.00    +0.000 A 
ATOM     25  C   UNL     1       1.023   3.661  18.243  0.00  0.00    +0.000 A 
ATOM     26  C   UNL     1       1.092   2.646  19.195  0.00  0.00    +0.000 A 
ATOM     27  C   UNL     1       2.242   1.866  19.302  0.00  0.00    +0.000 A 
ATOM     28  C   UNL     1       3.340   2.126  18.482  0.00  0.00    +0.000 A 
ENDBRANCH  22  23
ENDBRANCH  19  22
ENDBRANCH  15  16
ENDBRANCH   2  15
TORSDOF 6
ENDMDL
MODEL 9
REMARK VINA RESULT:      -8.1      1.428      2.202
REMARK  Name = 
REMARK  6 active torsions:
REMARK  status: ('A' for Active; 'I' for Inactive)
REMARK    1  A    between atoms: O_1  and  C_2
REMARK    2  A    between atoms: C_6  and  C_7
REMARK    3  A    between atoms: C_8  and  C_9
REMARK    4  A    between atoms: C_9  and  N_10
REMARK    5  A    between atoms: C_13  and  C_14
REMARK    6  A    between atoms: C_14  and  C_15
REMARK                            x       y       z     vdW  Elec       q    Type
REMARK                         _______ _______ _______ _____ _____    ______ ____
ROOT
ATOM      1  C   UNL     1       8.411   8.313  18.568  0.00  0.00    +0.000 C 
ATOM      2  C   UNL     1       8.122   7.046  18.472  0.00  0.00    +0.000 C 
ENDROOT
BRANCH   1   7
ATOM      3  C   UNL     1       8.638  14.088  17.727  0.00  0.00    +0.000 A 
ATOM      4  N   UNL     1       8.029  13.066  17.184  0.00  0.00    +0.000 NA
ATOM      5  C   UNL     1       8.462  11.984  17.918  0.00  0.00    +0.000 A 
ATOM      6  C   UNL     1       8.139  10.622  17.789  0.00  0.00    +0.000 A 
ATOM      7  C   UNL     1       8.724   9.708  18.675  0.00  0.00    +0.000 A 
ATOM      8  C   UNL     1       9.612  10.138  19.668  0.00  0.00    +0.000 A 
ATOM      9  C   UNL     1       9.946  11.492  19.814  0.00  0.00    +0.000 A 
ATOM     10  C   UNL     1       9.350  12.381  18.919  0.00  0.00    +0.000 A 
ATOM     11  N   UNL     1       9.441  13.742  18.768  0.00  0.00    +0.000 N 
ATOM     12  H   UNL     1       9.993  14.383  19.315  0.00  0.00    +0.000 HD
BRANCH   3  13
ATOM     13  O   UNL     1       8.488  15.322  17.304  0.00  0.00    +0.000 OA
ATOM     14  H   UNL     1       8.226  15.184  16.378  0.00  0.00    +0.000 HD
ENDBRANCH   3  13
ENDBRANCH   1   7
BRANCH   2  15
ATOM     15  C   UNL     1       7.782   5.569  18.359  0.00  0.00    +0.000 C 
BRANCH  15  16
ATOM     16  N   UNL     1       6.537   5.408  17.591  0.00  0.00    +0.000 NA
ATOM     17  C   UNL     1       5.683   4.359  18.173  0.00  0.00    +0.000 C 
ATOM     18  C   UNL     1       4.364   4.209  17.420  0.00  0.00    +0.000 C 
ATOM     19  C   UNL     1       3.594   5.529  17.364  0.00  0.00    +0.000 C 
ATOM     20  C   UNL     1       4.518   6.581  16.731  0.00  0.00    +0.000 C 
ATOM     21  C   UNL     1       5.851   6.701  17.473  0.00  0.00    +0.000 C 
BRANCH  19  22
ATOM     22  C   UNL     1       3.064   5.934  18.764  0.00  0.00    +0.000 C 
BRANCH  22  23
ATOM     23  C   UNL     1       2.447   4.769  19.495  0.00  0.00    +0.000 A 
ATOM     24  C   UNL     1       1.447   4.003  18.882  0.00  0.00    +0.000 A 
ATOM     25  C   UNL     1       0.752   3.041  19.609  0.00  0.00    +0.000 A 
ATOM     26  C   UNL     1       1.071   2.814  20.946  0.00  0.00    +0.000 A 
ATOM     27  C   UNL     1       2.104   3.527  21.549  0.00  0.00    +0.000 A 
ATOM     28  C   UNL     1       2.796   4.499  20.826  0.00  0.00    +0.000 A 
ENDBRANCH  22  23
ENDBRANCH  19  22
ENDBRANCH  15  16
ENDBRANCH   2  15
TORSDOF 6
ENDMDL
