MODEL 1
REMARK VINA RESULT:      -8.9      0.000      0.000
REMARK  Name = 
REMARK  5 active torsions:
REMARK  status: ('A' for Active; 'I' for Inactive)
REMARK    1  A    between atoms: C_2  and  C_3
REMARK    2  A    between atoms: C_8  and  C_9
REMARK    3  A    between atoms: C_9  and  C_10
REMARK    4  A    between atoms: N_18  and  C_19
REMARK    5  A    between atoms: C_19  and  C_20
REMARK                            x       y       z     vdW  Elec       q    Type
REMARK                         _______ _______ _______ _____ _____    ______ ____
ROOT
ATOM      1  C   UNL     1       2.984   8.388  17.451  0.00  0.00    +0.000 C 
ATOM      2  C   UNL     1       3.214   7.201  18.065  0.00  0.00    +0.000 C 
ATOM      3  C   UNL     1       2.455   6.900  19.343  0.00  0.00    +0.000 C 
ATOM      4  C   UNL     1       1.902   8.161  20.003  0.00  0.00    +0.000 C 
ATOM      5  N   UNL     1       1.098   8.900  19.023  0.00  0.00    +0.000 NA
ATOM      6  C   UNL     1       1.959   9.396  17.924  0.00  0.00    +0.000 C 
ENDROOT
BRANCH   2   7
ATOM      7  C   UNL     1       4.214   6.211  17.479  0.00  0.00    +0.000 A 
ATOM      8  C   UNL     1       5.507   6.693  17.142  0.00  0.00    +0.000 A 
ATOM      9  C   UNL     1       6.493   5.862  16.613  0.00  0.00    +0.000 A 
ATOM     10  C   UNL     1       6.226   4.522  16.393  0.00  0.00    +0.000 A 
ATOM     11  C   UNL     1       4.976   4.004  16.705  0.00  0.00    +0.000 A 
ATOM     12  C   UNL     1       3.950   4.810  17.248  0.00  0.00    +0.000 A 
BRANCH  12  13
ATOM     13  C   UNL     1       2.635   4.083  17.531  0.00  0.00    +0.000 C 
BRANCH  13  14
ATOM     14  C   UNL     1       2.395   3.580  18.944  0.00  0.00    +0.000 A 
ATOM     15  C   UNL     1       3.419   3.137  19.809  0.00  0.00    +0.000 A 
ATOM     16  C   UNL     1       3.104   2.660  21.088  0.00  0.00    +0.000 A 
ATOM     17  C   UNL     1       1.777   2.632  21.524  0.00  0.00    +0.000 A 
ATOM     18  C   UNL     1       0.759   3.078  20.682  0.00  0.00    +0.000 A 
ATOM     19  C   UNL     1       1.064   3.544  19.401  0.00  0.00    +0.000 A 
ENDBRANCH  13  14
ENDBRANCH  12  13
ENDBRANCH   2   7
BRANCH   5  20
ATOM     20  C   UNL     1       0.393  10.043  19.647  0.00  0.00    +0.000 C 
BRANCH  20  21
ATOM     21  C   UNL     1      -0.851  10.430  18.885  0.00  0.00    +0.000 A 
ATOM     22  C   UNL     1      -1.207   9.736  17.716  0.00  0.00    +0.000 A 
ATOM     23  C   UNL     1      -2.363  10.086  17.013  0.00  0.00    +0.000 A 
ATOM     24  C   UNL     1      -3.171  11.130  17.471  0.00  0.00    +0.000 A 
ATOM     25  C   UNL     1      -2.822  11.826  18.633  0.00  0.00    +0.000 A 
ATOM     26  C   UNL     1      -1.663  11.479  19.339  0.00  0.00    +0.000 A 
ENDBRANCH  20  21
ENDBRANCH   5  20
TORSDOF 5
ENDMDL
MODEL 2
REMARK VINA RESULT:      -8.9      0.981      1.999
REMARK  Name = 
REMARK  5 active torsions:
REMARK  status: ('A' for Active; 'I' for Inactive)
REMARK    1  A    between atoms: C_2  and  C_3
REMARK    2  A    between atoms: C_8  and  C_9
REMARK    3  A    between atoms: C_9  and  C_10
REMARK    4  A    between atoms: N_18  and  C_19
REMARK    5  A    between atoms: C_19  and  C_20
REMARK                            x       y       z     vdW  Elec       q    Type
REMARK                         _______ _______ _______ _____ _____    ______ ____
ROOT
ATOM      1  C   UNL     1       2.890   6.653  19.384  0.00  0.00    +0.000 C 
ATOM      2  C   UNL     1       3.331   6.920  18.130  0.00  0.00    +0.000 C 
ATOM      3  C   UNL     1       2.787   8.151  17.430  0.00  0.00    +0.000 C 
ATOM      4  C   UNL     1       1.480   8.642  18.048  0.00  0.00    +0.000 C 
ATOM      5  N   UNL     1       1.678   8.846  19.486  0.00  0.00    +0.000 NA
ATOM      6  C   UNL     1       1.948   7.551  20.155  0.00  0.00    +0.000 C 
ENDROOT
BRANCH   2   7
ATOM      7  C   UNL     1       4.339   5.998  17.455  0.00  0.00    +0.000 A 
ATOM      8  C   UNL     1       5.623   6.526  17.151  0.00  0.00    +0.000 A 
ATOM      9  C   UNL     1       6.616   5.756  16.546  0.00  0.00    +0.000 A 
ATOM     10  C   UNL     1       6.366   4.436  16.216  0.00  0.00    +0.000 A 
ATOM     11  C   UNL     1       5.126   3.876  16.491  0.00  0.00    +0.000 A 
ATOM     12  C   UNL     1       4.093   4.618  17.108  0.00  0.00    +0.000 A 
BRANCH  12  13
ATOM     13  C   UNL     1       2.791   3.850  17.338  0.00  0.00    +0.000 C 
BRANCH  13  14
ATOM     14  C   UNL     1       2.444   3.457  18.764  0.00  0.00    +0.000 A 
ATOM     15  C   UNL     1       1.156   3.585  19.326  0.00  0.00    +0.000 A 
ATOM     16  C   UNL     1       0.930   3.226  20.661  0.00  0.00    +0.000 A 
ATOM     17  C   UNL     1       1.974   2.724  21.443  0.00  0.00    +0.000 A 
ATOM     18  C   UNL     1       3.248   2.582  20.893  0.00  0.00    +0.000 A 
ATOM     19  C   UNL     1       3.482   2.949  19.566  0.00  0.00    +0.000 A 
ENDBRANCH  13  14
ENDBRANCH  12  13
ENDBRANCH   2   7
BRANCH   5  20
ATOM     20  C   UNL     1       0.499   9.484  20.115  0.00  0.00    +0.000 C 
BRANCH  20  21
ATOM     21  C   UNL     1       0.167  10.815  19.484  0.00  0.00    +0.000 A 
ATOM     22  C   UNL     1       1.075  11.883  19.571  0.00  0.00    +0.000 A 
ATOM     23  C   UNL     1       0.775  13.114  18.980  0.00  0.00    +0.000 A 
ATOM     24  C   UNL     1      -0.432  13.287  18.299  0.00  0.00    +0.000 A 
ATOM     25  C   UNL     1      -1.341  12.228  18.208  0.00  0.00    +0.000 A 
ATOM     26  C   UNL     1      -1.045  10.994  18.801  0.00  0.00    +0.000 A 
ENDBRANCH  20  21
ENDBRANCH   5  20
TORSDOF 5
ENDMDL
MODEL 3
REMARK VINA RESULT:      -8.6      1.365      3.779
REMARK  Name = 
REMARK  5 active torsions:
REMARK  status: ('A' for Active; 'I' for Inactive)
REMARK    1  A    between atoms: C_2  and  C_3
REMARK    2  A    between atoms: C_8  and  C_9
REMARK    3  A    between atoms: C_9  and  C_10
REMARK    4  A    between atoms: N_18  and  C_19
REMARK    5  A    between atoms: C_19  and  C_20
REMARK                            x       y       z     vdW  Elec       q    Type
REMARK                         _______ _______ _______ _____ _____    ______ ____
ROOT
ATOM      1  C   UNL     1       2.480   7.013  17.948  0.00  0.00    +0.000 C 
ATOM      2  C   UNL     1       2.269   6.089  18.919  0.00  0.00    +0.000 C 
ATOM      3  C   UNL     1       1.647   6.555  20.222  0.00  0.00    +0.000 C 
ATOM      4  C   UNL     1       1.787   8.061  20.428  0.00  0.00    +0.000 C 
ATOM      5  N   UNL     1       1.243   8.756  19.257  0.00  0.00    +0.000 NA
ATOM      6  C   UNL     1       2.064   8.462  18.060  0.00  0.00    +0.000 C 
ENDROOT
BRANCH   2   7
ATOM      7  C   UNL     1       2.654   4.632  18.694  0.00  0.00    +0.000 A 
ATOM      8  C   UNL     1       1.947   3.638  19.422  0.00  0.00    +0.000 A 
ATOM      9  C   UNL     1       2.219   2.278  19.275  0.00  0.00    +0.000 A 
ATOM     10  C   UNL     1       3.207   1.859  18.402  0.00  0.00    +0.000 A 
ATOM     11  C   UNL     1       3.926   2.793  17.668  0.00  0.00    +0.000 A 
ATOM     12  C   UNL     1       3.680   4.180  17.783  0.00  0.00    +0.000 A 
BRANCH  12  13
ATOM     13  C   UNL     1       4.561   5.071  16.906  0.00  0.00    +0.000 C 
BRANCH  13  14
ATOM     14  C   UNL     1       5.805   5.674  17.535  0.00  0.00    +0.000 A 
ATOM     15  C   UNL     1       6.464   5.130  18.659  0.00  0.00    +0.000 A 
ATOM     16  C   UNL     1       7.590   5.769  19.194  0.00  0.00    +0.000 A 
ATOM     17  C   UNL     1       8.079   6.941  18.612  0.00  0.00    +0.000 A 
ATOM     18  C   UNL     1       7.443   7.480  17.494  0.00  0.00    +0.000 A 
ATOM     19  C   UNL     1       6.313   6.855  16.963  0.00  0.00    +0.000 A 
ENDBRANCH  13  14
ENDBRANCH  12  13
ENDBRANCH   2   7
BRANCH   5  20
ATOM     20  C   UNL     1       1.191  10.221  19.468  0.00  0.00    +0.000 C 
BRANCH  20  21
ATOM     21  C   UNL     1      -0.197  10.778  19.265  0.00  0.00    +0.000 A 
ATOM     22  C   UNL     1      -0.950  10.404  18.140  0.00  0.00    +0.000 A 
ATOM     23  C   UNL     1      -2.240  10.910  17.954  0.00  0.00    +0.000 A 
ATOM     24  C   UNL     1      -2.786  11.793  18.888  0.00  0.00    +0.000 A 
ATOM     25  C   UNL     1      -2.042  12.171  20.011  0.00  0.00    +0.000 A 
ATOM     26  C   UNL     1      -0.748  11.667  20.199  0.00  0.00    +0.000 A 
ENDBRANCH  20  21
ENDBRANCH   5  20
TORSDOF 5
ENDMDL
MODEL 4
REMARK VINA RESULT:      -8.5      1.687      2.751
REMARK  Name = 
REMARK  5 active torsions:
REMARK  status: ('A' for Active; 'I' for Inactive)
REMARK    1  A    between atoms: C_2  and  C_3
REMARK    2  A    between atoms: C_8  and  C_9
REMARK    3  A    between atoms: C_9  and  C_10
REMARK    4  A    between atoms: N_18  and  C_19
REMARK    5  A    between atoms: C_19  and  C_20
REMARK                            x       y       z     vdW  Elec       q    Type
REMARK                         _______ _______ _______ _____ _____    ______ ____
ROOT
ATOM      1  C   UNL     1       2.481   7.053  19.684  0.00  0.00    +0.000 C 
ATOM      2  C   UNL     1       2.826   7.327  18.401  0.00  0.00    +0.000 C 
ATOM      3  C   UNL     1       2.206   8.543  17.740  0.00  0.00    +0.000 C 
ATOM      4  C   UNL     1       0.934   9.006  18.448  0.00  0.00    +0.000 C 
ATOM      5  N   UNL     1       1.228   9.218  19.869  0.00  0.00    +0.000 NA
ATOM      6  C   UNL     1       1.574   7.931  20.518  0.00  0.00    +0.000 C 
ENDROOT
BRANCH   2   7
ATOM      7  C   UNL     1       3.806   6.427  17.658  0.00  0.00    +0.000 A 
ATOM      8  C   UNL     1       5.050   6.984  17.260  0.00  0.00    +0.000 A 
ATOM      9  C   UNL     1       6.016   6.237  16.587  0.00  0.00    +0.000 A 
ATOM     10  C   UNL     1       5.775   4.909  16.281  0.00  0.00    +0.000 A 
ATOM     11  C   UNL     1       4.573   4.319  16.648  0.00  0.00    +0.000 A 
ATOM     12  C   UNL     1       3.570   5.039  17.335  0.00  0.00    +0.000 A 
BRANCH  12  13
ATOM     13  C   UNL     1       2.307   4.240  17.663  0.00  0.00    +0.000 C 
BRANCH  13  14
ATOM     14  C   UNL     1       2.189   3.643  19.054  0.00  0.00    +0.000 A 
ATOM     15  C   UNL     1       0.974   3.535  19.765  0.00  0.00    +0.000 A 
ATOM     16  C   UNL     1       0.960   2.998  21.059  0.00  0.00    +0.000 A 
ATOM     17  C   UNL     1       2.144   2.552  21.651  0.00  0.00    +0.000 A 
ATOM     18  C   UNL     1       3.348   2.643  20.953  0.00  0.00    +0.000 A 
ATOM     19  C   UNL     1       3.371   3.189  19.667  0.00  0.00    +0.000 A 
ENDBRANCH  13  14
ENDBRANCH  12  13
ENDBRANCH   2   7
BRANCH   5  20
ATOM     20  C   UNL     1       0.082   9.830  20.577  0.00  0.00    +0.000 C 
BRANCH  20  21
ATOM     21  C   UNL     1       0.313  11.291  20.881  0.00  0.00    +0.000 A 
ATOM     22  C   UNL     1      -0.484  11.948  21.832  0.00  0.00    +0.000 A 
ATOM     23  C   UNL     1      -0.267  13.298  22.123  0.00  0.00    +0.000 A 
ATOM     24  C   UNL     1       0.746  14.001  21.465  0.00  0.00    +0.000 A 
ATOM     25  C   UNL     1       1.543  13.353  20.515  0.00  0.00    +0.000 A 
ATOM     26  C   UNL     1       1.326  12.001  20.220  0.00  0.00    +0.000 A 
ENDBRANCH  20  21
ENDBRANCH   5  20
TORSDOF 5
ENDMDL
MODEL 5
REMARK VINA RESULT:      -8.5      1.353      4.061
REMARK  Name = 
REMARK  5 active torsions:
REMARK  status: ('A' for Active; 'I' for Inactive)
REMARK    1  A    between atoms: C_2  and  C_3
REMARK    2  A    between atoms: C_8  and  C_9
REMARK    3  A    between atoms: C_9  and  C_10
REMARK    4  A    between atoms: N_18  and  C_19
REMARK    5  A    between atoms: C_19  and  C_20
REMARK                            x       y       z     vdW  Elec       q    Type
REMARK                         _______ _______ _______ _____ _____    ______ ____
ROOT
ATOM      1  C   UNL     1       2.472   7.229  18.652  0.00  0.00    +0.000 C 
ATOM      2  C   UNL     1       2.187   6.549  19.791  0.00  0.00    +0.000 C 
ATOM      3  C   UNL     1       1.381   7.259  20.862  0.00  0.00    +0.000 C 
ATOM      4  C   UNL     1       1.415   8.778  20.706  0.00  0.00    +0.000 C 
ATOM      5  N   UNL     1       0.988   9.127  19.347  0.00  0.00    +0.000 NA
ATOM      6  C   UNL     1       1.969   8.625  18.357  0.00  0.00    +0.000 C 
ENDROOT
BRANCH   2   7
ATOM      7  C   UNL     1       2.673   5.117  19.975  0.00  0.00    +0.000 A 
ATOM      8  C   UNL     1       2.178   4.385  21.088  0.00  0.00    +0.000 A 
ATOM      9  C   UNL     1       2.554   3.065  21.333  0.00  0.00    +0.000 A 
ATOM     10  C   UNL     1       3.442   2.428  20.484  0.00  0.00    +0.000 A 
ATOM     11  C   UNL     1       3.954   3.102  19.383  0.00  0.00    +0.000 A 
ATOM     12  C   UNL     1       3.595   4.438  19.095  0.00  0.00    +0.000 A 
BRANCH  12  13
ATOM     13  C   UNL     1       4.252   5.031  17.848  0.00  0.00    +0.000 C 
BRANCH  13  14
ATOM     14  C   UNL     1       5.575   5.757  18.022  0.00  0.00    +0.000 A 
ATOM     15  C   UNL     1       5.995   6.836  17.214  0.00  0.00    +0.000 A 
ATOM     16  C   UNL     1       7.246   7.430  17.425  0.00  0.00    +0.000 A 
ATOM     17  C   UNL     1       8.083   6.968  18.445  0.00  0.00    +0.000 A 
ATOM     18  C   UNL     1       7.673   5.910  19.256  0.00  0.00    +0.000 A 
ATOM     19  C   UNL     1       6.431   5.307  19.043  0.00  0.00    +0.000 A 
ENDBRANCH  13  14
ENDBRANCH  12  13
ENDBRANCH   2   7
BRANCH   5  20
ATOM     20  C   UNL     1       0.834  10.591  19.184  0.00  0.00    +0.000 C 
BRANCH  20  21
ATOM     21  C   UNL     1      -0.607  10.994  18.983  0.00  0.00    +0.000 A 
ATOM     22  C   UNL     1      -1.187  11.972  19.806  0.00  0.00    +0.000 A 
ATOM     23  C   UNL     1      -2.519  12.355  19.617  0.00  0.00    +0.000 A 
ATOM     24  C   UNL     1      -3.279  11.762  18.606  0.00  0.00    +0.000 A 
ATOM     25  C   UNL     1      -2.708  10.786  17.782  0.00  0.00    +0.000 A 
ATOM     26  C   UNL     1      -1.376  10.399  17.971  0.00  0.00    +0.000 A 
ENDBRANCH  20  21
ENDBRANCH   5  20
TORSDOF 5
ENDMDL
MODEL 6
REMARK VINA RESULT:      -8.4      1.806      8.312
REMARK  Name = 
REMARK  5 active torsions:
REMARK  status: ('A' for Active; 'I' for Inactive)
REMARK    1  A    between atoms: C_2  and  C_3
REMARK    2  A    between atoms: C_8  and  C_9
REMARK    3  A    between atoms: C_9  and  C_10
REMARK    4  A    between atoms: N_18  and  C_19
REMARK    5  A    between atoms: C_19  and  C_20
REMARK                            x       y       z     vdW  Elec       q    Type
REMARK                         _______ _______ _______ _____ _____    ______ ____
ROOT
ATOM      1  C   UNL     1       1.735   7.456  20.603  0.00  0.00    +0.000 C 
ATOM      2  C   UNL     1       1.217   8.599  20.088  0.00  0.00    +0.000 C 
ATOM      3  C   UNL     1       1.506   8.921  18.634  0.00  0.00    +0.000 C 
ATOM      4  C   UNL     1       2.719   8.162  18.099  0.00  0.00    +0.000 C 
ATOM      5  N   UNL     1       2.528   6.728  18.338  0.00  0.00    +0.000 NA
ATOM      6  C   UNL     1       2.519   6.447  19.793  0.00  0.00    +0.000 C 
ENDROOT
BRANCH   2   7
ATOM      7  C   UNL     1       0.376   9.525  20.958  0.00  0.00    +0.000 A 
ATOM      8  C   UNL     1       0.274   9.224  22.343  0.00  0.00    +0.000 A 
ATOM      9  C   UNL     1      -0.461  10.019  23.221  0.00  0.00    +0.000 A 
ATOM     10  C   UNL     1      -1.127  11.138  22.753  0.00  0.00    +0.000 A 
ATOM     11  C   UNL     1      -1.059  11.472  21.407  0.00  0.00    +0.000 A 
ATOM     12  C   UNL     1      -0.321  10.697  20.484  0.00  0.00    +0.000 A 
BRANCH  12  13
ATOM     13  C   UNL     1      -0.352  11.204  19.041  0.00  0.00    +0.000 C 
BRANCH  13  14
ATOM     14  C   UNL     1      -1.642  11.030  18.258  0.00  0.00    +0.000 A 
ATOM     15  C   UNL     1      -2.814  11.782  18.489  0.00  0.00    +0.000 A 
ATOM     16  C   UNL     1      -3.971  11.535  17.739  0.00  0.00    +0.000 A 
ATOM     17  C   UNL     1      -3.971  10.551  16.746  0.00  0.00    +0.000 A 
ATOM     18  C   UNL     1      -2.815   9.810  16.501  0.00  0.00    +0.000 A 
ATOM     19  C   UNL     1      -1.662  10.043  17.254  0.00  0.00    +0.000 A 
ENDBRANCH  13  14
ENDBRANCH  12  13
ENDBRANCH   2   7
BRANCH   5  20
ATOM     20  C   UNL     1       3.588   5.922  17.691  0.00  0.00    +0.000 C 
BRANCH  20  21
ATOM     21  C   UNL     1       3.462   4.452  18.011  0.00  0.00    +0.000 A 
ATOM     22  C   UNL     1       2.423   3.693  17.447  0.00  0.00    +0.000 A 
ATOM     23  C   UNL     1       2.310   2.330  17.735  0.00  0.00    +0.000 A 
ATOM     24  C   UNL     1       3.231   1.715  18.587  0.00  0.00    +0.000 A 
ATOM     25  C   UNL     1       4.267   2.465  19.153  0.00  0.00    +0.000 A 
ATOM     26  C   UNL     1       4.383   3.831  18.869  0.00  0.00    +0.000 A 
ENDBRANCH  20  21
ENDBRANCH   5  20
TORSDOF 5
ENDMDL
MODEL 7
REMARK VINA RESULT:      -8.4      1.806      8.288
REMARK  Name = 
REMARK  5 active torsions:
REMARK  status: ('A' for Active; 'I' for Inactive)
REMARK    1  A    between atoms: C_2  and  C_3
REMARK    2  A    between atoms: C_8  and  C_9
REMARK    3  A    between atoms: C_9  and  C_10
REMARK    4  A    between atoms: N_18  and  C_19
REMARK    5  A    between atoms: C_19  and  C_20
REMARK                            x       y       z     vdW  Elec       q    Type
REMARK                         _______ _______ _______ _____ _____    ______ ____
ROOT
ATOM      1  C   UNL     1       1.756   7.418  20.555  0.00  0.00    +0.000 C 
ATOM      2  C   UNL     1       1.254   8.574  20.054  0.00  0.00    +0.000 C 
ATOM      3  C   UNL     1       1.558   8.915  18.608  0.00  0.00    +0.000 C 
ATOM      4  C   UNL     1       2.766   8.151  18.070  0.00  0.00    +0.000 C 
ATOM      5  N   UNL     1       2.557   6.716  18.285  0.00  0.00    +0.000 NA
ATOM      6  C   UNL     1       2.535   6.413  19.735  0.00  0.00    +0.000 C 
ENDROOT
BRANCH   2   7
ATOM      7  C   UNL     1       0.417   9.495  20.933  0.00  0.00    +0.000 A 
ATOM      8  C   UNL     1       0.323   9.189  22.317  0.00  0.00    +0.000 A 
ATOM      9  C   UNL     1      -0.408   9.979  23.203  0.00  0.00    +0.000 A 
ATOM     10  C   UNL     1      -1.077  11.100  22.743  0.00  0.00    +0.000 A 
ATOM     11  C   UNL     1      -1.016  11.440  21.398  0.00  0.00    +0.000 A 
ATOM     12  C   UNL     1      -0.283  10.670  20.467  0.00  0.00    +0.000 A 
BRANCH  12  13
ATOM     13  C   UNL     1      -0.323  11.182  19.027  0.00  0.00    +0.000 C 
BRANCH  13  14
ATOM     14  C   UNL     1      -1.585  10.930  18.220  0.00  0.00    +0.000 A 
ATOM     15  C   UNL     1      -1.693   9.949  17.211  0.00  0.00    +0.000 A 
ATOM     16  C   UNL     1      -2.887   9.804  16.494  0.00  0.00    +0.000 A 
ATOM     17  C   UNL     1      -3.987  10.617  16.781  0.00  0.00    +0.000 A 
ATOM     18  C   UNL     1      -3.894  11.581  17.786  0.00  0.00    +0.000 A 
ATOM     19  C   UNL     1      -2.702  11.739  18.496  0.00  0.00    +0.000 A 
ENDBRANCH  13  14
ENDBRANCH  12  13
ENDBRANCH   2   7
BRANCH   5  20
ATOM     20  C   UNL     1       3.612   5.908  17.632  0.00  0.00    +0.000 C 
BRANCH  20  21
ATOM     21  C   UNL     1       3.495   4.440  17.965  0.00  0.00    +0.000 A 
ATOM     22  C   UNL     1       4.397   3.847  18.865  0.00  0.00    +0.000 A 
ATOM     23  C   UNL     1       4.286   2.490  19.183  0.00  0.00    +0.000 A 
ATOM     24  C   UNL     1       3.276   1.717  18.605  0.00  0.00    +0.000 A 
ATOM     25  C   UNL     1       2.375   2.301  17.708  0.00  0.00    +0.000 A 
ATOM     26  C   UNL     1       2.485   3.659  17.386  0.00  0.00    +0.000 A 
ENDBRANCH  20  21
ENDBRANCH   5  20
TORSDOF 5
ENDMDL
MODEL 8
REMARK VINA RESULT:      -8.4      1.009      1.747
REMARK  Name = 
REMARK  5 active torsions:
REMARK  status: ('A' for Active; 'I' for Inactive)
REMARK    1  A    between atoms: C_2  and  C_3
REMARK    2  A    between atoms: C_8  and  C_9
REMARK    3  A    between atoms: C_9  and  C_10
REMARK    4  A    between atoms: N_18  and  C_19
REMARK    5  A    between atoms: C_19  and  C_20
REMARK                            x       y       z     vdW  Elec       q    Type
REMARK                         _______ _______ _______ _____ _____    ______ ____
ROOT
ATOM      1  C   UNL     1       2.545   8.327  17.861  0.00  0.00    +0.000 C 
ATOM      2  C   UNL     1       2.911   7.118  18.356  0.00  0.00    +0.000 C 
ATOM      3  C   UNL     1       2.382   6.717  19.720  0.00  0.00    +0.000 C 
ATOM      4  C   UNL     1       1.907   7.917  20.537  0.00  0.00    +0.000 C 
ATOM      5  N   UNL     1       0.930   8.675  19.747  0.00  0.00    +0.000 NA
ATOM      6  C   UNL     1       1.582   9.264  18.555  0.00  0.00    +0.000 C 
ENDROOT
BRANCH   2   7
ATOM      7  C   UNL     1       3.830   6.203  17.555  0.00  0.00    +0.000 A 
ATOM      8  C   UNL     1       5.066   6.735  17.102  0.00  0.00    +0.000 A 
ATOM      9  C   UNL     1       5.979   5.972  16.374  0.00  0.00    +0.000 A 
ATOM     10  C   UNL     1       5.691   4.654  16.066  0.00  0.00    +0.000 A 
ATOM     11  C   UNL     1       4.495   4.089  16.487  0.00  0.00    +0.000 A 
ATOM     12  C   UNL     1       3.545   4.825  17.231  0.00  0.00    +0.000 A 
BRANCH  12  13
ATOM     13  C   UNL     1       2.281   4.053  17.612  0.00  0.00    +0.000 C 
BRANCH  13  14
ATOM     14  C   UNL     1       2.182   3.513  19.029  0.00  0.00    +0.000 A 
ATOM     15  C   UNL     1       0.975   3.415  19.754  0.00  0.00    +0.000 A 
ATOM     16  C   UNL     1       0.979   2.933  21.069  0.00  0.00    +0.000 A 
ATOM     17  C   UNL     1       2.175   2.531  21.669  0.00  0.00    +0.000 A 
ATOM     18  C   UNL     1       3.372   2.612  20.958  0.00  0.00    +0.000 A 
ATOM     19  C   UNL     1       3.376   3.103  19.650  0.00  0.00    +0.000 A 
ENDBRANCH  13  14
ENDBRANCH  12  13
ENDBRANCH   2   7
BRANCH   5  20
ATOM     20  C   UNL     1       0.303   9.752  20.545  0.00  0.00    +0.000 C 
BRANCH  20  21
ATOM     21  C   UNL     1      -0.038  10.959  19.705  0.00  0.00    +0.000 A 
ATOM     22  C   UNL     1       0.777  12.103  19.750  0.00  0.00    +0.000 A 
ATOM     23  C   UNL     1       0.469  13.219  18.967  0.00  0.00    +0.000 A 
ATOM     24  C   UNL     1      -0.653  13.202  18.135  0.00  0.00    +0.000 A 
ATOM     25  C   UNL     1      -1.469  12.067  18.086  0.00  0.00    +0.000 A 
ATOM     26  C   UNL     1      -1.165  10.948  18.871  0.00  0.00    +0.000 A 
ENDBRANCH  20  21
ENDBRANCH   5  20
TORSDOF 5
ENDMDL
MODEL 9
REMARK VINA RESULT:      -8.4      1.318      3.873
REMARK  Name = 
REMARK  5 active torsions:
REMARK  status: ('A' for Active; 'I' for Inactive)
REMARK    1  A    between atoms: C_2  and  C_3
REMARK    2  A    between atoms: C_8  and  C_9
REMARK    3  A    between atoms: C_9  and  C_10
REMARK    4  A    between atoms: N_18  and  C_19
REMARK    5  A    between atoms: C_19  and  C_20
REMARK                            x       y       z     vdW  Elec       q    Type
REMARK                         _______ _______ _______ _____ _____    ______ ____
ROOT
ATOM      1  C   UNL     1       2.495   7.118  18.197  0.00  0.00    +0.000 C 
ATOM      2  C   UNL     1       2.285   6.349  19.295  0.00  0.00    +0.000 C 
ATOM      3  C   UNL     1       1.592   6.983  20.486  0.00  0.00    +0.000 C 
ATOM      4  C   UNL     1       1.658   8.509  20.454  0.00  0.00    +0.000 C 
ATOM      5  N   UNL     1       1.131   8.982  19.170  0.00  0.00    +0.000 NA
ATOM      6  C   UNL     1       2.012   8.545  18.062  0.00  0.00    +0.000 C 
ENDROOT
BRANCH   2   7
ATOM      7  C   UNL     1       2.743   4.896  19.317  0.00  0.00    +0.000 A 
ATOM      8  C   UNL     1       2.155   4.029  20.277  0.00  0.00    +0.000 A 
ATOM      9  C   UNL     1       2.498   2.681  20.367  0.00  0.00    +0.000 A 
ATOM     10  C   UNL     1       3.444   2.148  19.509  0.00  0.00    +0.000 A 
ATOM     11  C   UNL     1       4.047   2.955  18.554  0.00  0.00    +0.000 A 
ATOM     12  C   UNL     1       3.725   4.325  18.426  0.00  0.00    +0.000 A 
BRANCH  12  13
ATOM     13  C   UNL     1       4.483   5.069  17.325  0.00  0.00    +0.000 C 
BRANCH  13  14
ATOM     14  C   UNL     1       5.751   5.808  17.716  0.00  0.00    +0.000 A 
ATOM     15  C   UNL     1       6.194   6.997  17.097  0.00  0.00    +0.000 A 
ATOM     16  C   UNL     1       7.395   7.597  17.499  0.00  0.00    +0.000 A 
ATOM     17  C   UNL     1       8.156   7.032  18.526  0.00  0.00    +0.000 A 
ATOM     18  C   UNL     1       7.721   5.864  19.153  0.00  0.00    +0.000 A 
ATOM     19  C   UNL     1       6.531   5.254  18.748  0.00  0.00    +0.000 A 
ENDBRANCH  13  14
ENDBRANCH  12  13
ENDBRANCH   2   7
BRANCH   5  20
ATOM     20  C   UNL     1       1.007  10.458  19.143  0.00  0.00    +0.000 C 
BRANCH  20  21
ATOM     21  C   UNL     1      -0.423  10.907  18.965  0.00  0.00    +0.000 A 
ATOM     22  C   UNL     1      -1.240  10.295  18.000  0.00  0.00    +0.000 A 
ATOM     23  C   UNL     1      -2.568  10.702  17.839  0.00  0.00    +0.000 A 
ATOM     24  C   UNL     1      -3.088  11.722  18.640  0.00  0.00    +0.000 A 
ATOM     25  C   UNL     1      -2.280  12.336  19.602  0.00  0.00    +0.000 A 
ATOM     26  C   UNL     1      -0.949  11.933  19.764  0.00  0.00    +0.000 A 
ENDBRANCH  20  21
ENDBRANCH   5  20
TORSDOF 5
ENDMDL
