MODEL 1
REMARK VINA RESULT:      -7.4      0.000      0.000
REMARK  Name = 
REMARK  3 active torsions:
REMARK  status: ('A' for Active; 'I' for Inactive)
REMARK    1  A    between atoms: C_2  and  C_3
REMARK    2  A    between atoms: N_5  and  C_6
REMARK    3  A    between atoms: C_6  and  C_7
REMARK                            x       y       z     vdW  Elec       q    Type
REMARK                         _______ _______ _______ _____ _____    ______ ____
ROOT
ATOM      1  C   UNL     1       2.212   6.409  19.770  0.00  0.00    +0.000 A 
ATOM      2  C   UNL     1       3.155   6.656  18.789  0.00  0.00    +0.000 A 
ATOM      3  N   UNL     1       3.462   5.459  18.187  0.00  0.00    +0.000 N 
ATOM      4  C   UNL     1       2.707   4.443  18.746  0.00  0.00    +0.000 A 
ATOM      5  C   UNL     1       2.645   3.070  18.458  0.00  0.00    +0.000 A 
ATOM      6  C   UNL     1       1.769   2.276  19.204  0.00  0.00    +0.000 A 
ATOM      7  C   UNL     1       0.980   2.828  20.208  0.00  0.00    +0.000 A 
ATOM      8  C   UNL     1       1.047   4.195  20.493  0.00  0.00    +0.000 A 
ATOM      9  C   UNL     1       1.917   5.021  19.749  0.00  0.00    +0.000 A 
ENDROOT
BRANCH   1  11
ATOM     10  N   UNL     1       1.190   8.206  21.329  0.00  0.00    +0.000 NA
ATOM     11  C   UNL     1       1.652   7.401  20.631  0.00  0.00    +0.000 C 
ENDBRANCH   1  11
BRANCH   3  12
ATOM     12  C   UNL     1       4.464   5.300  17.128  0.00  0.00    +0.000 C 
BRANCH  12  13
ATOM     13  C   UNL     1       5.812   5.812  17.569  0.00  0.00    +0.000 A 
ATOM     14  C   UNL     1       6.519   5.162  18.593  0.00  0.00    +0.000 A 
ATOM     15  C   UNL     1       7.671   5.732  19.133  0.00  0.00    +0.000 A 
ATOM     16  C   UNL     1       8.165   6.926  18.615  0.00  0.00    +0.000 A 
ATOM     17  C   UNL     1       7.529   7.529  17.530  0.00  0.00    +0.000 A 
ATOM     18  C   UNL     1       6.356   6.977  17.012  0.00  0.00    +0.000 A 
ENDBRANCH  12  13
ENDBRANCH   3  12
TORSDOF 3
ENDMDL
MODEL 2
REMARK VINA RESULT:      -7.3      2.560      5.732
REMARK  Name = 
REMARK  3 active torsions:
REMARK  status: ('A' for Active; 'I' for Inactive)
REMARK    1  A    between atoms: C_2  and  C_3
REMARK    2  A    between atoms: N_5  and  C_6
REMARK    3  A    between atoms: C_6  and  C_7
REMARK                            x       y       z     vdW  Elec       q    Type
REMARK                         _______ _______ _______ _____ _____    ______ ____
ROOT
ATOM      1  C   UNL     1       5.357   4.796  16.309  0.00  0.00    +0.000 A 
ATOM      2  C   UNL     1       4.811   3.532  16.433  0.00  0.00    +0.000 A 
ATOM      3  N   UNL     1       3.627   3.648  17.121  0.00  0.00    +0.000 N 
ATOM      4  C   UNL     1       3.384   4.978  17.419  0.00  0.00    +0.000 A 
ATOM      5  C   UNL     1       2.311   5.597  18.080  0.00  0.00    +0.000 A 
ATOM      6  C   UNL     1       2.342   6.986  18.236  0.00  0.00    +0.000 A 
ATOM      7  C   UNL     1       3.409   7.737  17.755  0.00  0.00    +0.000 A 
ATOM      8  C   UNL     1       4.476   7.116  17.099  0.00  0.00    +0.000 A 
ATOM      9  C   UNL     1       4.466   5.716  16.921  0.00  0.00    +0.000 A 
ENDROOT
BRANCH   1  11
ATOM     10  N   UNL     1       7.612   5.319  15.148  0.00  0.00    +0.000 NA
ATOM     11  C   UNL     1       6.600   5.089  15.668  0.00  0.00    +0.000 C 
ENDBRANCH   1  11
BRANCH   3  12
ATOM     12  C   UNL     1       2.775   2.516  17.496  0.00  0.00    +0.000 C 
BRANCH  12  13
ATOM     13  C   UNL     1       2.457   2.535  18.971  0.00  0.00    +0.000 A 
ATOM     14  C   UNL     1       1.136   2.705  19.412  0.00  0.00    +0.000 A 
ATOM     15  C   UNL     1       0.859   2.910  20.762  0.00  0.00    +0.000 A 
ATOM     16  C   UNL     1       1.891   2.887  21.696  0.00  0.00    +0.000 A 
ATOM     17  C   UNL     1       3.195   2.617  21.284  0.00  0.00    +0.000 A 
ATOM     18  C   UNL     1       3.479   2.446  19.927  0.00  0.00    +0.000 A 
ENDBRANCH  12  13
ENDBRANCH   3  12
TORSDOF 3
ENDMDL
MODEL 3
REMARK VINA RESULT:      -7.3      1.879      5.807
REMARK  Name = 
REMARK  3 active torsions:
REMARK  status: ('A' for Active; 'I' for Inactive)
REMARK    1  A    between atoms: C_2  and  C_3
REMARK    2  A    between atoms: N_5  and  C_6
REMARK    3  A    between atoms: C_6  and  C_7
REMARK                            x       y       z     vdW  Elec       q    Type
REMARK                         _______ _______ _______ _____ _____    ______ ____
ROOT
ATOM      1  C   UNL     1       6.357   5.363  18.838  0.00  0.00    +0.000 A 
ATOM      2  C   UNL     1       5.053   5.660  19.191  0.00  0.00    +0.000 A 
ATOM      3  N   UNL     1       4.281   5.591  18.055  0.00  0.00    +0.000 N 
ATOM      4  C   UNL     1       5.065   5.225  16.975  0.00  0.00    +0.000 A 
ATOM      5  C   UNL     1       4.738   5.005  15.628  0.00  0.00    +0.000 A 
ATOM      6  C   UNL     1       5.762   4.636  14.750  0.00  0.00    +0.000 A 
ATOM      7  C   UNL     1       7.072   4.495  15.195  0.00  0.00    +0.000 A 
ATOM      8  C   UNL     1       7.393   4.717  16.538  0.00  0.00    +0.000 A 
ATOM      9  C   UNL     1       6.377   5.082  17.447  0.00  0.00    +0.000 A 
ENDROOT
BRANCH   1  11
ATOM     10  N   UNL     1       8.365   5.340  20.472  0.00  0.00    +0.000 NA
ATOM     11  C   UNL     1       7.463   5.347  19.742  0.00  0.00    +0.000 C 
ENDBRANCH   1  11
BRANCH   3  12
ATOM     12  C   UNL     1       2.847   5.892  18.012  0.00  0.00    +0.000 C 
BRANCH  12  13
ATOM     13  C   UNL     1       2.041   4.808  18.683  0.00  0.00    +0.000 A 
ATOM     14  C   UNL     1       1.739   4.890  20.051  0.00  0.00    +0.000 A 
ATOM     15  C   UNL     1       1.160   3.811  20.716  0.00  0.00    +0.000 A 
ATOM     16  C   UNL     1       0.819   2.661  20.011  0.00  0.00    +0.000 A 
ATOM     17  C   UNL     1       1.020   2.605  18.633  0.00  0.00    +0.000 A 
ATOM     18  C   UNL     1       1.632   3.672  17.971  0.00  0.00    +0.000 A 
ENDBRANCH  12  13
ENDBRANCH   3  12
TORSDOF 3
ENDMDL
MODEL 4
REMARK VINA RESULT:      -7.1      2.867      3.687
REMARK  Name = 
REMARK  3 active torsions:
REMARK  status: ('A' for Active; 'I' for Inactive)
REMARK    1  A    between atoms: C_2  and  C_3
REMARK    2  A    between atoms: N_5  and  C_6
REMARK    3  A    between atoms: C_6  and  C_7
REMARK                            x       y       z     vdW  Elec       q    Type
REMARK                         _______ _______ _______ _____ _____    ______ ____
ROOT
ATOM      1  C   UNL     1       3.658   6.462  17.504  0.00  0.00    +0.000 A 
ATOM      2  C   UNL     1       4.934   6.319  16.990  0.00  0.00    +0.000 A 
ATOM      3  N   UNL     1       5.196   4.974  16.877  0.00  0.00    +0.000 N 
ATOM      4  C   UNL     1       4.094   4.244  17.284  0.00  0.00    +0.000 A 
ATOM      5  C   UNL     1       3.868   2.859  17.332  0.00  0.00    +0.000 A 
ATOM      6  C   UNL     1       2.631   2.405  17.799  0.00  0.00    +0.000 A 
ATOM      7  C   UNL     1       1.649   3.300  18.211  0.00  0.00    +0.000 A 
ATOM      8  C   UNL     1       1.879   4.678  18.164  0.00  0.00    +0.000 A 
ATOM      9  C   UNL     1       3.117   5.163  17.688  0.00  0.00    +0.000 A 
ENDROOT
BRANCH   1  11
ATOM     10  N   UNL     1       2.520   8.732  18.012  0.00  0.00    +0.000 NA
ATOM     11  C   UNL     1       3.027   7.712  17.783  0.00  0.00    +0.000 C 
ENDBRANCH   1  11
BRANCH   3  12
ATOM     12  C   UNL     1       6.472   4.418  16.415  0.00  0.00    +0.000 C 
BRANCH  12  13
ATOM     13  C   UNL     1       6.565   4.438  14.910  0.00  0.00    +0.000 A 
ATOM     14  C   UNL     1       5.737   3.611  14.136  0.00  0.00    +0.000 A 
ATOM     15  C   UNL     1       5.943   3.485  12.763  0.00  0.00    +0.000 A 
ATOM     16  C   UNL     1       6.939   4.231  12.138  0.00  0.00    +0.000 A 
ATOM     17  C   UNL     1       7.701   5.132  12.879  0.00  0.00    +0.000 A 
ATOM     18  C   UNL     1       7.519   5.233  14.260  0.00  0.00    +0.000 A 
ENDBRANCH  12  13
ENDBRANCH   3  12
TORSDOF 3
ENDMDL
MODEL 5
REMARK VINA RESULT:      -7.1      1.508      2.908
REMARK  Name = 
REMARK  3 active torsions:
REMARK  status: ('A' for Active; 'I' for Inactive)
REMARK    1  A    between atoms: C_2  and  C_3
REMARK    2  A    between atoms: N_5  and  C_6
REMARK    3  A    between atoms: C_6  and  C_7
REMARK                            x       y       z     vdW  Elec       q    Type
REMARK                         _______ _______ _______ _____ _____    ______ ____
ROOT
ATOM      1  C   UNL     1       2.542   4.148  20.343  0.00  0.00    +0.000 A 
ATOM      2  C   UNL     1       3.440   3.817  19.345  0.00  0.00    +0.000 A 
ATOM      3  N   UNL     1       3.650   4.937  18.576  0.00  0.00    +0.000 N 
ATOM      4  C   UNL     1       2.921   5.999  19.082  0.00  0.00    +0.000 A 
ATOM      5  C   UNL     1       2.824   7.336  18.665  0.00  0.00    +0.000 A 
ATOM      6  C   UNL     1       1.992   8.196  19.388  0.00  0.00    +0.000 A 
ATOM      7  C   UNL     1       1.274   7.741  20.490  0.00  0.00    +0.000 A 
ATOM      8  C   UNL     1       1.373   6.408  20.900  0.00  0.00    +0.000 A 
ATOM      9  C   UNL     1       2.213   5.520  20.192  0.00  0.00    +0.000 A 
ENDROOT
BRANCH   1  11
ATOM     10  N   UNL     1       1.668   2.514  22.151  0.00  0.00    +0.000 NA
ATOM     11  C   UNL     1       2.058   3.245  21.337  0.00  0.00    +0.000 C 
ENDBRANCH   1  11
BRANCH   3  12
ATOM     12  C   UNL     1       4.503   4.973  17.384  0.00  0.00    +0.000 C 
BRANCH  12  13
ATOM     13  C   UNL     1       5.811   5.668  17.669  0.00  0.00    +0.000 A 
ATOM     14  C   UNL     1       6.668   5.188  18.670  0.00  0.00    +0.000 A 
ATOM     15  C   UNL     1       7.783   5.926  19.065  0.00  0.00    +0.000 A 
ATOM     16  C   UNL     1       8.088   7.122  18.423  0.00  0.00    +0.000 A 
ATOM     17  C   UNL     1       7.302   7.560  17.358  0.00  0.00    +0.000 A 
ATOM     18  C   UNL     1       6.166   6.839  16.984  0.00  0.00    +0.000 A 
ENDBRANCH  12  13
ENDBRANCH   3  12
TORSDOF 3
ENDMDL
MODEL 6
REMARK VINA RESULT:      -7.0      2.564      5.774
REMARK  Name = 
REMARK  3 active torsions:
REMARK  status: ('A' for Active; 'I' for Inactive)
REMARK    1  A    between atoms: C_2  and  C_3
REMARK    2  A    between atoms: N_5  and  C_6
REMARK    3  A    between atoms: C_6  and  C_7
REMARK                            x       y       z     vdW  Elec       q    Type
REMARK                         _______ _______ _______ _____ _____    ______ ____
ROOT
ATOM      1  C   UNL     1       5.421   4.790  16.284  0.00  0.00    +0.000 A 
ATOM      2  C   UNL     1       4.878   3.531  16.465  0.00  0.00    +0.000 A 
ATOM      3  N   UNL     1       3.707   3.672  17.171  0.00  0.00    +0.000 N 
ATOM      4  C   UNL     1       3.468   5.012  17.423  0.00  0.00    +0.000 A 
ATOM      5  C   UNL     1       2.407   5.654  18.080  0.00  0.00    +0.000 A 
ATOM      6  C   UNL     1       2.439   7.048  18.184  0.00  0.00    +0.000 A 
ATOM      7  C   UNL     1       3.496   7.782  17.655  0.00  0.00    +0.000 A 
ATOM      8  C   UNL     1       4.551   7.138  17.003  0.00  0.00    +0.000 A 
ATOM      9  C   UNL     1       4.540   5.731  16.877  0.00  0.00    +0.000 A 
ENDROOT
BRANCH   1  11
ATOM     10  N   UNL     1       7.651   5.270  15.060  0.00  0.00    +0.000 NA
ATOM     11  C   UNL     1       6.650   5.059  15.610  0.00  0.00    +0.000 C 
ENDBRANCH   1  11
BRANCH   3  12
ATOM     12  C   UNL     1       2.863   2.554  17.604  0.00  0.00    +0.000 C 
BRANCH  12  13
ATOM     13  C   UNL     1       2.450   2.707  19.046  0.00  0.00    +0.000 A 
ATOM     14  C   UNL     1       3.397   2.583  20.074  0.00  0.00    +0.000 A 
ATOM     15  C   UNL     1       2.996   2.537  21.408  0.00  0.00    +0.000 A 
ATOM     16  C   UNL     1       1.650   2.676  21.735  0.00  0.00    +0.000 A 
ATOM     17  C   UNL     1       0.711   2.901  20.730  0.00  0.00    +0.000 A 
ATOM     18  C   UNL     1       1.107   2.913  19.391  0.00  0.00    +0.000 A 
ENDBRANCH  12  13
ENDBRANCH   3  12
TORSDOF 3
ENDMDL
MODEL 7
REMARK VINA RESULT:      -7.0      0.230      1.158
REMARK  Name = 
REMARK  3 active torsions:
REMARK  status: ('A' for Active; 'I' for Inactive)
REMARK    1  A    between atoms: C_2  and  C_3
REMARK    2  A    between atoms: N_5  and  C_6
REMARK    3  A    between atoms: C_6  and  C_7
REMARK                            x       y       z     vdW  Elec       q    Type
REMARK                         _______ _______ _______ _____ _____    ______ ____
ROOT
ATOM      1  C   UNL     1       2.080   6.317  19.874  0.00  0.00    +0.000 A 
ATOM      2  C   UNL     1       3.064   6.600  18.944  0.00  0.00    +0.000 A 
ATOM      3  N   UNL     1       3.458   5.415  18.371  0.00  0.00    +0.000 N 
ATOM      4  C   UNL     1       2.721   4.369  18.897  0.00  0.00    +0.000 A 
ATOM      5  C   UNL     1       2.739   2.993  18.619  0.00  0.00    +0.000 A 
ATOM      6  C   UNL     1       1.860   2.164  19.323  0.00  0.00    +0.000 A 
ATOM      7  C   UNL     1       0.993   2.685  20.278  0.00  0.00    +0.000 A 
ATOM      8  C   UNL     1       0.980   4.055  20.552  0.00  0.00    +0.000 A 
ATOM      9  C   UNL     1       1.851   4.916  19.849  0.00  0.00    +0.000 A 
ENDROOT
BRANCH   1  11
ATOM     10  N   UNL     1       0.891   8.075  21.356  0.00  0.00    +0.000 NA
ATOM     11  C   UNL     1       1.428   7.288  20.693  0.00  0.00    +0.000 C 
ENDBRANCH   1  11
BRANCH   3  12
ATOM     12  C   UNL     1       4.524   5.296  17.371  0.00  0.00    +0.000 C 
BRANCH  12  13
ATOM     13  C   UNL     1       5.794   5.959  17.842  0.00  0.00    +0.000 A 
ATOM     14  C   UNL     1       6.286   7.098  17.187  0.00  0.00    +0.000 A 
ATOM     15  C   UNL     1       7.547   7.605  17.494  0.00  0.00    +0.000 A 
ATOM     16  C   UNL     1       8.306   7.017  18.502  0.00  0.00    +0.000 A 
ATOM     17  C   UNL     1       7.787   5.948  19.230  0.00  0.00    +0.000 A 
ATOM     18  C   UNL     1       6.537   5.418  18.899  0.00  0.00    +0.000 A 
ENDBRANCH  12  13
ENDBRANCH   3  12
TORSDOF 3
ENDMDL
MODEL 8
REMARK VINA RESULT:      -7.0      1.911      5.916
REMARK  Name = 
REMARK  3 active torsions:
REMARK  status: ('A' for Active; 'I' for Inactive)
REMARK    1  A    between atoms: C_2  and  C_3
REMARK    2  A    between atoms: N_5  and  C_6
REMARK    3  A    between atoms: C_6  and  C_7
REMARK                            x       y       z     vdW  Elec       q    Type
REMARK                         _______ _______ _______ _____ _____    ______ ____
ROOT
ATOM      1  C   UNL     1       6.477   5.341  18.703  0.00  0.00    +0.000 A 
ATOM      2  C   UNL     1       5.176   5.584  19.104  0.00  0.00    +0.000 A 
ATOM      3  N   UNL     1       4.368   5.497  17.996  0.00  0.00    +0.000 N 
ATOM      4  C   UNL     1       5.126   5.171  16.885  0.00  0.00    +0.000 A 
ATOM      5  C   UNL     1       4.759   4.950  15.548  0.00  0.00    +0.000 A 
ATOM      6  C   UNL     1       5.764   4.628  14.631  0.00  0.00    +0.000 A 
ATOM      7  C   UNL     1       7.094   4.533  15.028  0.00  0.00    +0.000 A 
ATOM      8  C   UNL     1       7.454   4.755  16.361  0.00  0.00    +0.000 A 
ATOM      9  C   UNL     1       6.458   5.073  17.309  0.00  0.00    +0.000 A 
ENDROOT
BRANCH   1  11
ATOM     10  N   UNL     1       8.537   5.380  20.271  0.00  0.00    +0.000 NA
ATOM     11  C   UNL     1       7.614   5.359  19.567  0.00  0.00    +0.000 C 
ENDBRANCH   1  11
BRANCH   3  12
ATOM     12  C   UNL     1       2.923   5.743  18.006  0.00  0.00    +0.000 C 
BRANCH  12  13
ATOM     13  C   UNL     1       2.185   4.642  18.727  0.00  0.00    +0.000 A 
ATOM     14  C   UNL     1       1.795   3.481  18.042  0.00  0.00    +0.000 A 
ATOM     15  C   UNL     1       0.956   2.547  18.647  0.00  0.00    +0.000 A 
ATOM     16  C   UNL     1       0.546   2.731  19.964  0.00  0.00    +0.000 A 
ATOM     17  C   UNL     1       1.008   3.829  20.689  0.00  0.00    +0.000 A 
ATOM     18  C   UNL     1       1.821   4.783  20.073  0.00  0.00    +0.000 A 
ENDBRANCH  12  13
ENDBRANCH   3  12
TORSDOF 3
ENDMDL
MODEL 9
REMARK VINA RESULT:      -6.9      2.012      3.431
REMARK  Name = 
REMARK  3 active torsions:
REMARK  status: ('A' for Active; 'I' for Inactive)
REMARK    1  A    between atoms: C_2  and  C_3
REMARK    2  A    between atoms: N_5  and  C_6
REMARK    3  A    between atoms: C_6  and  C_7
REMARK                            x       y       z     vdW  Elec       q    Type
REMARK                         _______ _______ _______ _____ _____    ______ ____
ROOT
ATOM      1  C   UNL     1       2.132   3.721  20.212  0.00  0.00    +0.000 A 
ATOM      2  C   UNL     1       2.627   3.096  19.082  0.00  0.00    +0.000 A 
ATOM      3  N   UNL     1       2.883   4.065  18.141  0.00  0.00    +0.000 N 
ATOM      4  C   UNL     1       2.588   5.314  18.659  0.00  0.00    +0.000 A 
ATOM      5  C   UNL     1       2.702   6.597  18.101  0.00  0.00    +0.000 A 
ATOM      6  C   UNL     1       2.320   7.694  18.879  0.00  0.00    +0.000 A 
ATOM      7  C   UNL     1       1.835   7.522  20.171  0.00  0.00    +0.000 A 
ATOM      8  C   UNL     1       1.721   6.242  20.722  0.00  0.00    +0.000 A 
ATOM      9  C   UNL     1       2.108   5.117  19.961  0.00  0.00    +0.000 A 
ENDROOT
BRANCH   1  11
ATOM     10  N   UNL     1       1.397   2.504  22.375  0.00  0.00    +0.000 NA
ATOM     11  C   UNL     1       1.730   3.048  21.406  0.00  0.00    +0.000 C 
ENDBRANCH   1  11
BRANCH   3  12
ATOM     12  C   UNL     1       3.372   3.792  16.786  0.00  0.00    +0.000 C 
BRANCH  12  13
ATOM     13  C   UNL     1       4.806   4.231  16.623  0.00  0.00    +0.000 A 
ATOM     14  C   UNL     1       5.340   4.452  15.344  0.00  0.00    +0.000 A 
ATOM     15  C   UNL     1       6.705   4.675  15.174  0.00  0.00    +0.000 A 
ATOM     16  C   UNL     1       7.543   4.741  16.284  0.00  0.00    +0.000 A 
ATOM     17  C   UNL     1       7.009   4.624  17.566  0.00  0.00    +0.000 A 
ATOM     18  C   UNL     1       5.647   4.366  17.736  0.00  0.00    +0.000 A 
ENDBRANCH  12  13
ENDBRANCH   3  12
TORSDOF 3
ENDMDL
