MODEL 1
REMARK VINA RESULT:      -8.9      0.000      0.000
REMARK  Name = 
REMARK  5 active torsions:
REMARK  status: ('A' for Active; 'I' for Inactive)
REMARK    1  A    between atoms: C_2  and  C_9
REMARK    2  A    between atoms: N_3  and  C_4
REMARK    3  A    between atoms: C_11  and  N_12
REMARK    4  A    between atoms: C_17  and  N_18
REMARK    5  A    between atoms: N_18  and  C_19
REMARK                            x       y       z     vdW  Elec       q    Type
REMARK                         _______ _______ _______ _____ _____    ______ ____
ROOT
ATOM      1  N   UNL     1       1.186   9.228  19.794  0.00  0.00    +0.000 N 
ATOM      2  N   UNL     1       1.202   9.988  18.665  0.00  0.00    +0.000 NA
ATOM      3  C   UNL     1       1.968   9.306  17.816  0.00  0.00    +0.000 A 
ATOM      4  C   UNL     1       2.337   8.046  18.316  0.00  0.00    +0.000 A 
ATOM      5  C   UNL     1       3.008   6.927  17.803  0.00  0.00    +0.000 A 
ATOM      6  C   UNL     1       3.145   5.762  18.581  0.00  0.00    +0.000 A 
ATOM      7  C   UNL     1       2.590   5.744  19.864  0.00  0.00    +0.000 A 
ATOM      8  F   UNL     1       2.670   4.631  20.610  0.00  0.00    +0.000 F 
ATOM      9  C   UNL     1       1.938   6.853  20.407  0.00  0.00    +0.000 A 
ATOM     10  C   UNL     1       1.829   8.007  19.609  0.00  0.00    +0.000 A 
ENDROOT
BRANCH   1  13
ATOM     11  C   UNL     1      -0.749  11.046  22.357  0.00  0.00    +0.000 A 
ATOM     12  C   UNL     1      -0.237  10.860  21.088  0.00  0.00    +0.000 A 
ATOM     13  C   UNL     1       0.508   9.653  20.970  0.00  0.00    +0.000 A 
ATOM     14  C   UNL     1       0.487   8.916  22.135  0.00  0.00    +0.000 A 
ATOM     15  S   UNL     1      -0.311   9.753  23.396  0.00  0.00    +0.000 S 
BRANCH  11  17
ATOM     16  O   UNL     1      -1.113  13.283  22.999  0.00  0.00    +0.000 OA
ATOM     17  C   UNL     1      -1.570  12.167  22.791  0.00  0.00    +0.000 C 
ATOM     18  N   UNL     1      -2.907  11.890  22.976  0.00  0.00    +0.000 N 
ATOM     19  H   UNL     1      -3.227  10.949  22.780  0.00  0.00    +0.000 HD
BRANCH  18  20
ATOM     20  C   UNL     1      -3.857  12.914  23.346  0.00  0.00    +0.000 C 
ATOM     21  C   UNL     1      -4.806  13.256  22.221  0.00  0.00    +0.000 C 
ATOM     22  C   UNL     1      -5.962  13.888  22.958  0.00  0.00    +0.000 C 
ATOM     23  O   UNL     1      -6.056  13.224  24.223  0.00  0.00    +0.000 OA
ATOM     24  C   UNL     1      -4.825  12.519  24.461  0.00  0.00    +0.000 C 
ENDBRANCH  18  20
ENDBRANCH  11  17
ENDBRANCH   1  13
BRANCH   6  25
ATOM     25  N   UNL     1       3.795   4.605  18.063  0.00  0.00    +0.000 N 
ATOM     26  H   UNL     1       3.104   3.910  17.770  0.00  0.00    +0.000 HD
BRANCH  25  27
ATOM     27  C   UNL     1       4.934   4.620  17.230  0.00  0.00    +0.000 A 
ATOM     28  C   UNL     1       4.798   4.309  15.866  0.00  0.00    +0.000 A 
ATOM     29  C   UNL     1       5.913   4.155  15.046  0.00  0.00    +0.000 A 
ATOM     30  C   UNL     1       7.185   4.369  15.568  0.00  0.00    +0.000 A 
ATOM     31  C   UNL     1       7.339   4.768  16.896  0.00  0.00    +0.000 A 
ATOM     32  C   UNL     1       6.219   4.897  17.722  0.00  0.00    +0.000 A 
ATOM     33 CL   UNL     1       6.455   5.364  19.371  0.00  0.00    +0.000 Cl
ENDBRANCH  25  27
ENDBRANCH   6  25
TORSDOF 5
ENDMDL
MODEL 2
REMARK VINA RESULT:      -8.5      4.654     11.294
REMARK  Name = 
REMARK  5 active torsions:
REMARK  status: ('A' for Active; 'I' for Inactive)
REMARK    1  A    between atoms: C_2  and  C_9
REMARK    2  A    between atoms: N_3  and  C_4
REMARK    3  A    between atoms: C_11  and  N_12
REMARK    4  A    between atoms: C_17  and  N_18
REMARK    5  A    between atoms: N_18  and  C_19
REMARK                            x       y       z     vdW  Elec       q    Type
REMARK                         _______ _______ _______ _____ _____    ______ ____
ROOT
ATOM      1  N   UNL     1       0.578   9.407  21.241  0.00  0.00    +0.000 N 
ATOM      2  N   UNL     1       0.737   8.846  22.470  0.00  0.00    +0.000 NA
ATOM      3  C   UNL     1       0.023   9.620  23.284  0.00  0.00    +0.000 A 
ATOM      4  C   UNL     1      -0.716  10.594  22.591  0.00  0.00    +0.000 A 
ATOM      5  C   UNL     1      -1.684  11.547  22.939  0.00  0.00    +0.000 A 
ATOM      6  C   UNL     1      -2.293  12.337  21.946  0.00  0.00    +0.000 A 
ATOM      7  C   UNL     1      -1.920  12.142  20.613  0.00  0.00    +0.000 A 
ATOM      8  F   UNL     1      -2.515  12.853  19.642  0.00  0.00    +0.000 F 
ATOM      9  C   UNL     1      -0.942  11.217  20.242  0.00  0.00    +0.000 A 
ATOM     10  C   UNL     1      -0.342  10.452  21.259  0.00  0.00    +0.000 A 
ENDROOT
BRANCH   1  13
ATOM     11  C   UNL     1       2.511   7.409  18.814  0.00  0.00    +0.000 A 
ATOM     12  C   UNL     1       1.909   7.635  20.036  0.00  0.00    +0.000 A 
ATOM     13  C   UNL     1       1.243   8.891  20.093  0.00  0.00    +0.000 A 
ATOM     14  C   UNL     1       1.295   9.560  18.889  0.00  0.00    +0.000 A 
ATOM     15  S   UNL     1       2.265   8.732  17.750  0.00  0.00    +0.000 S 
BRANCH  11  17
ATOM     16  O   UNL     1       2.800   5.083  18.575  0.00  0.00    +0.000 OA
ATOM     17  C   UNL     1       3.249   6.213  18.433  0.00  0.00    +0.000 C 
ATOM     18  N   UNL     1       4.508   6.430  17.916  0.00  0.00    +0.000 N 
ATOM     19  H   UNL     1       4.820   7.388  17.817  0.00  0.00    +0.000 HD
BRANCH  18  20
ATOM     20  C   UNL     1       5.336   5.346  17.437  0.00  0.00    +0.000 C 
ATOM     21  C   UNL     1       5.357   5.259  15.929  0.00  0.00    +0.000 C 
ATOM     22  C   UNL     1       6.623   4.475  15.672  0.00  0.00    +0.000 C 
ATOM     23  O   UNL     1       7.550   4.842  16.700  0.00  0.00    +0.000 OA
ATOM     24  C   UNL     1       6.822   5.481  17.764  0.00  0.00    +0.000 C 
ENDBRANCH  18  20
ENDBRANCH  11  17
ENDBRANCH   1  13
BRANCH   6  25
ATOM     25  N   UNL     1      -3.301  13.286  22.278  0.00  0.00    +0.000 N 
ATOM     26  H   UNL     1      -3.154  14.157  21.762  0.00  0.00    +0.000 HD
BRANCH  25  27
ATOM     27  C   UNL     1      -4.669  12.987  22.456  0.00  0.00    +0.000 A 
ATOM     28  C   UNL     1      -5.521  12.953  21.338  0.00  0.00    +0.000 A 
ATOM     29  C   UNL     1      -6.899  12.822  21.485  0.00  0.00    +0.000 A 
ATOM     30  C   UNL     1      -7.444  12.664  22.755  0.00  0.00    +0.000 A 
ATOM     31  C   UNL     1      -6.609  12.604  23.872  0.00  0.00    +0.000 A 
ATOM     32  C   UNL     1      -5.229  12.760  23.722  0.00  0.00    +0.000 A 
ATOM     33 CL   UNL     1      -4.231  12.709  25.135  0.00  0.00    +0.000 Cl
ENDBRANCH  25  27
ENDBRANCH   6  25
TORSDOF 5
ENDMDL
MODEL 3
REMARK VINA RESULT:      -8.5      1.094      1.107
REMARK  Name = 
REMARK  5 active torsions:
REMARK  status: ('A' for Active; 'I' for Inactive)
REMARK    1  A    between atoms: C_2  and  C_9
REMARK    2  A    between atoms: N_3  and  C_4
REMARK    3  A    between atoms: C_11  and  N_12
REMARK    4  A    between atoms: C_17  and  N_18
REMARK    5  A    between atoms: N_18  and  C_19
REMARK                            x       y       z     vdW  Elec       q    Type
REMARK                         _______ _______ _______ _____ _____    ______ ____
ROOT
ATOM      1  N   UNL     1       1.142   9.500  19.600  0.00  0.00    +0.000 N 
ATOM      2  N   UNL     1       1.178  10.131  18.395  0.00  0.00    +0.000 NA
ATOM      3  C   UNL     1       1.963   9.363  17.642  0.00  0.00    +0.000 A 
ATOM      4  C   UNL     1       2.326   8.168  18.286  0.00  0.00    +0.000 A 
ATOM      5  C   UNL     1       3.010   7.002  17.913  0.00  0.00    +0.000 A 
ATOM      6  C   UNL     1       3.133   5.930  18.818  0.00  0.00    +0.000 A 
ATOM      7  C   UNL     1       2.553   6.052  20.084  0.00  0.00    +0.000 A 
ATOM      8  F   UNL     1       2.620   5.029  20.950  0.00  0.00    +0.000 F 
ATOM      9  C   UNL     1       1.887   7.211  20.487  0.00  0.00    +0.000 A 
ATOM     10  C   UNL     1       1.791   8.269  19.565  0.00  0.00    +0.000 A 
ENDROOT
BRANCH   1  13
ATOM     11  C   UNL     1      -0.442  11.694  22.110  0.00  0.00    +0.000 A 
ATOM     12  C   UNL     1       0.229  11.440  20.930  0.00  0.00    +0.000 A 
ATOM     13  C   UNL     1       0.438  10.050  20.709  0.00  0.00    +0.000 A 
ATOM     14  C   UNL     1      -0.139   9.276  21.693  0.00  0.00    +0.000 A 
ATOM     15  S   UNL     1      -0.804  10.237  22.941  0.00  0.00    +0.000 S 
BRANCH  11  17
ATOM     16  O   UNL     1      -0.010  13.878  22.880  0.00  0.00    +0.000 OA
ATOM     17  C   UNL     1      -0.826  13.007  22.609  0.00  0.00    +0.000 C 
ATOM     18  N   UNL     1      -2.179  13.207  22.779  0.00  0.00    +0.000 N 
ATOM     19  H   UNL     1      -2.804  12.451  22.529  0.00  0.00    +0.000 HD
BRANCH  18  20
ATOM     20  C   UNL     1      -2.716  14.479  23.208  0.00  0.00    +0.000 C 
ATOM     21  C   UNL     1      -3.999  14.834  22.494  0.00  0.00    +0.000 C 
ATOM     22  C   UNL     1      -4.617  15.845  23.430  0.00  0.00    +0.000 C 
ATOM     23  O   UNL     1      -4.247  15.457  24.758  0.00  0.00    +0.000 OA
ATOM     24  C   UNL     1      -3.150  14.530  24.673  0.00  0.00    +0.000 C 
ENDBRANCH  18  20
ENDBRANCH  11  17
ENDBRANCH   1  13
BRANCH   6  25
ATOM     25  N   UNL     1       3.797   4.727  18.445  0.00  0.00    +0.000 N 
ATOM     26  H   UNL     1       3.118   3.971  18.319  0.00  0.00    +0.000 HD
BRANCH  25  27
ATOM     27  C   UNL     1       4.875   4.643  17.537  0.00  0.00    +0.000 A 
ATOM     28  C   UNL     1       4.632   4.255  16.208  0.00  0.00    +0.000 A 
ATOM     29  C   UNL     1       5.681   4.005  15.327  0.00  0.00    +0.000 A 
ATOM     30  C   UNL     1       6.993   4.197  15.747  0.00  0.00    +0.000 A 
ATOM     31  C   UNL     1       7.254   4.669  17.034  0.00  0.00    +0.000 A 
ATOM     32  C   UNL     1       6.201   4.896  17.922  0.00  0.00    +0.000 A 
ATOM     33 CL   UNL     1       6.568   5.452  19.519  0.00  0.00    +0.000 Cl
ENDBRANCH  25  27
ENDBRANCH   6  25
TORSDOF 5
ENDMDL
MODEL 4
REMARK VINA RESULT:      -8.5      1.439      1.743
REMARK  Name = 
REMARK  5 active torsions:
REMARK  status: ('A' for Active; 'I' for Inactive)
REMARK    1  A    between atoms: C_2  and  C_9
REMARK    2  A    between atoms: N_3  and  C_4
REMARK    3  A    between atoms: C_11  and  N_12
REMARK    4  A    between atoms: C_17  and  N_18
REMARK    5  A    between atoms: N_18  and  C_19
REMARK                            x       y       z     vdW  Elec       q    Type
REMARK                         _______ _______ _______ _____ _____    ______ ____
ROOT
ATOM      1  N   UNL     1       1.107   9.346  19.633  0.00  0.00    +0.000 N 
ATOM      2  N   UNL     1       1.189  10.004  18.445  0.00  0.00    +0.000 NA
ATOM      3  C   UNL     1       2.020   9.264  17.713  0.00  0.00    +0.000 A 
ATOM      4  C   UNL     1       2.371   8.061  18.347  0.00  0.00    +0.000 A 
ATOM      5  C   UNL     1       3.089   6.913  17.981  0.00  0.00    +0.000 A 
ATOM      6  C   UNL     1       3.187   5.823  18.867  0.00  0.00    +0.000 A 
ATOM      7  C   UNL     1       2.547   5.909  20.107  0.00  0.00    +0.000 A 
ATOM      8  F   UNL     1       2.590   4.868  20.953  0.00  0.00    +0.000 F 
ATOM      9  C   UNL     1       1.845   7.048  20.504  0.00  0.00    +0.000 A 
ATOM     10  C   UNL     1       1.776   8.125  19.602  0.00  0.00    +0.000 A 
ENDROOT
BRANCH   1  13
ATOM     11  C   UNL     1      -0.956  11.381  21.918  0.00  0.00    +0.000 A 
ATOM     12  C   UNL     1      -0.336  11.110  20.715  0.00  0.00    +0.000 A 
ATOM     13  C   UNL     1       0.344   9.860  20.719  0.00  0.00    +0.000 A 
ATOM     14  C   UNL     1       0.168   9.179  21.905  0.00  0.00    +0.000 A 
ATOM     15  S   UNL     1      -0.696  10.114  23.046  0.00  0.00    +0.000 S 
BRANCH  11  17
ATOM     16  O   UNL     1      -2.793  12.831  21.645  0.00  0.00    +0.000 OA
ATOM     17  C   UNL     1      -1.748  12.564  22.225  0.00  0.00    +0.000 C 
ATOM     18  N   UNL     1      -1.236  13.386  23.204  0.00  0.00    +0.000 N 
ATOM     19  H   UNL     1      -0.371  13.107  23.652  0.00  0.00    +0.000 HD
BRANCH  18  20
ATOM     20  C   UNL     1      -1.939  14.564  23.659  0.00  0.00    +0.000 C 
ATOM     21  C   UNL     1      -3.077  14.231  24.597  0.00  0.00    +0.000 C 
ATOM     22  C   UNL     1      -3.288  15.540  25.321  0.00  0.00    +0.000 C 
ATOM     23  O   UNL     1      -2.002  16.160  25.434  0.00  0.00    +0.000 OA
ATOM     24  C   UNL     1      -1.105  15.522  24.508  0.00  0.00    +0.000 C 
ENDBRANCH  18  20
ENDBRANCH  11  17
ENDBRANCH   1  13
BRANCH   6  25
ATOM     25  N   UNL     1       3.886   4.639  18.499  0.00  0.00    +0.000 N 
ATOM     26  H   UNL     1       3.232   3.858  18.395  0.00  0.00    +0.000 HD
BRANCH  25  27
ATOM     27  C   UNL     1       4.951   4.579  17.575  0.00  0.00    +0.000 A 
ATOM     28  C   UNL     1       4.699   4.167  16.254  0.00  0.00    +0.000 A 
ATOM     29  C   UNL     1       5.740   3.941  15.358  0.00  0.00    +0.000 A 
ATOM     30  C   UNL     1       7.052   4.180  15.753  0.00  0.00    +0.000 A 
ATOM     31  C   UNL     1       7.319   4.676  17.030  0.00  0.00    +0.000 A 
ATOM     32  C   UNL     1       6.274   4.879  17.934  0.00  0.00    +0.000 A 
ATOM     33 CL   UNL     1       6.650   5.466  19.518  0.00  0.00    +0.000 Cl
ENDBRANCH  25  27
ENDBRANCH   6  25
TORSDOF 5
ENDMDL
MODEL 5
REMARK VINA RESULT:      -8.5      4.594     10.837
REMARK  Name = 
REMARK  5 active torsions:
REMARK  status: ('A' for Active; 'I' for Inactive)
REMARK    1  A    between atoms: C_2  and  C_9
REMARK    2  A    between atoms: N_3  and  C_4
REMARK    3  A    between atoms: C_11  and  N_12
REMARK    4  A    between atoms: C_17  and  N_18
REMARK    5  A    between atoms: N_18  and  C_19
REMARK                            x       y       z     vdW  Elec       q    Type
REMARK                         _______ _______ _______ _____ _____    ______ ____
ROOT
ATOM      1  N   UNL     1       1.477   8.473  19.505  0.00  0.00    +0.000 N 
ATOM      2  N   UNL     1       1.455   9.230  18.374  0.00  0.00    +0.000 NA
ATOM      3  C   UNL     1       0.689  10.273  18.689  0.00  0.00    +0.000 A 
ATOM      4  C   UNL     1       0.326  10.285  20.046  0.00  0.00    +0.000 A 
ATOM      5  C   UNL     1      -0.343  11.182  20.892  0.00  0.00    +0.000 A 
ATOM      6  C   UNL     1      -0.472  10.903  22.265  0.00  0.00    +0.000 A 
ATOM      7  C   UNL     1       0.087   9.722  22.764  0.00  0.00    +0.000 A 
ATOM      8  F   UNL     1       0.015   9.452  24.076  0.00  0.00    +0.000 F 
ATOM      9  C   UNL     1       0.737   8.801  21.939  0.00  0.00    +0.000 A 
ATOM     10  C   UNL     1       0.838   9.104  20.569  0.00  0.00    +0.000 A 
ENDROOT
BRANCH   1  13
ATOM     11  C   UNL     1       3.669   5.560  18.926  0.00  0.00    +0.000 A 
ATOM     12  C   UNL     1       3.227   6.848  18.692  0.00  0.00    +0.000 A 
ATOM     13  C   UNL     1       2.157   7.224  19.553  0.00  0.00    +0.000 A 
ATOM     14  C   UNL     1       1.857   6.237  20.467  0.00  0.00    +0.000 A 
ATOM     15  S   UNL     1       2.771   4.819  20.187  0.00  0.00    +0.000 S 
BRANCH  11  17
ATOM     16  O   UNL     1       5.520   4.110  18.787  0.00  0.00    +0.000 OA
ATOM     17  C   UNL     1       4.759   4.891  18.231  0.00  0.00    +0.000 C 
ATOM     18  N   UNL     1       4.898   5.207  16.898  0.00  0.00    +0.000 N 
ATOM     19  H   UNL     1       4.232   5.855  16.493  0.00  0.00    +0.000 HD
BRANCH  18  20
ATOM     20  C   UNL     1       5.895   4.578  16.061  0.00  0.00    +0.000 C 
ATOM     21  C   UNL     1       5.435   4.424  14.630  0.00  0.00    +0.000 C 
ATOM     22  C   UNL     1       6.741   4.270  13.889  0.00  0.00    +0.000 C 
ATOM     23  O   UNL     1       7.706   5.067  14.584  0.00  0.00    +0.000 OA
ATOM     24  C   UNL     1       7.186   5.376  15.890  0.00  0.00    +0.000 C 
ENDBRANCH  18  20
ENDBRANCH  11  17
ENDBRANCH   1  13
BRANCH   6  25
ATOM     25  N   UNL     1      -1.119  11.818  23.143  0.00  0.00    +0.000 N 
ATOM     26  H   UNL     1      -0.452  12.190  23.824  0.00  0.00    +0.000 HD
BRANCH  25  27
ATOM     27  C   UNL     1      -2.083  12.772  22.753  0.00  0.00    +0.000 A 
ATOM     28  C   UNL     1      -3.435  12.396  22.670  0.00  0.00    +0.000 A 
ATOM     29  C   UNL     1      -4.391  13.257  22.137  0.00  0.00    +0.000 A 
ATOM     30  C   UNL     1      -4.018  14.534  21.732  0.00  0.00    +0.000 A 
ATOM     31  C   UNL     1      -2.698  14.961  21.889  0.00  0.00    +0.000 A 
ATOM     32  C   UNL     1      -1.737  14.087  22.402  0.00  0.00    +0.000 A 
ATOM     33 CL   UNL     1      -0.106  14.644  22.553  0.00  0.00    +0.000 Cl
ENDBRANCH  25  27
ENDBRANCH   6  25
TORSDOF 5
ENDMDL
MODEL 6
REMARK VINA RESULT:      -8.4      1.051      1.461
REMARK  Name = 
REMARK  5 active torsions:
REMARK  status: ('A' for Active; 'I' for Inactive)
REMARK    1  A    between atoms: C_2  and  C_9
REMARK    2  A    between atoms: N_3  and  C_4
REMARK    3  A    between atoms: C_11  and  N_12
REMARK    4  A    between atoms: C_17  and  N_18
REMARK    5  A    between atoms: N_18  and  C_19
REMARK                            x       y       z     vdW  Elec       q    Type
REMARK                         _______ _______ _______ _____ _____    ______ ____
ROOT
ATOM      1  N   UNL     1       1.015   9.643  19.800  0.00  0.00    +0.000 N 
ATOM      2  N   UNL     1       1.031  10.489  18.735  0.00  0.00    +0.000 NA
ATOM      3  C   UNL     1       1.833   9.896  17.852  0.00  0.00    +0.000 A 
ATOM      4  C   UNL     1       2.228   8.612  18.262  0.00  0.00    +0.000 A 
ATOM      5  C   UNL     1       2.941   7.554  17.678  0.00  0.00    +0.000 A 
ATOM      6  C   UNL     1       3.095   6.336  18.366  0.00  0.00    +0.000 A 
ATOM      7  C   UNL     1       2.516   6.203  19.631  0.00  0.00    +0.000 A 
ATOM      8  F   UNL     1       2.612   5.038  20.291  0.00  0.00    +0.000 F 
ATOM      9  C   UNL     1       1.821   7.249  20.244  0.00  0.00    +0.000 A 
ATOM     10  C   UNL     1       1.696   8.458  19.536  0.00  0.00    +0.000 A 
ENDROOT
BRANCH   1  13
ATOM     11  C   UNL     1      -0.984  11.222  22.471  0.00  0.00    +0.000 A 
ATOM     12  C   UNL     1      -0.430  11.158  21.208  0.00  0.00    +0.000 A 
ATOM     13  C   UNL     1       0.301   9.957  20.991  0.00  0.00    +0.000 A 
ATOM     14  C   UNL     1       0.228   9.104  22.072  0.00  0.00    +0.000 A 
ATOM     15  S   UNL     1      -0.601   9.821  23.385  0.00  0.00    +0.000 S 
BRANCH  11  17
ATOM     16  O   UNL     1      -1.377  13.443  23.149  0.00  0.00    +0.000 OA
ATOM     17  C   UNL     1      -1.804  12.306  22.991  0.00  0.00    +0.000 C 
ATOM     18  N   UNL     1      -3.099  11.970  23.319  0.00  0.00    +0.000 N 
ATOM     19  H   UNL     1      -3.395  11.015  23.158  0.00  0.00    +0.000 HD
BRANCH  18  20
ATOM     20  C   UNL     1      -4.050  12.953  23.789  0.00  0.00    +0.000 C 
ATOM     21  C   UNL     1      -4.704  13.711  22.658  0.00  0.00    +0.000 C 
ATOM     22  C   UNL     1      -5.959  14.240  23.311  0.00  0.00    +0.000 C 
ATOM     23  O   UNL     1      -6.368  13.260  24.272  0.00  0.00    +0.000 OA
ATOM     24  C   UNL     1      -5.261  12.375  24.520  0.00  0.00    +0.000 C 
ENDBRANCH  18  20
ENDBRANCH  11  17
ENDBRANCH   1  13
BRANCH   6  25
ATOM     25  N   UNL     1       3.788   5.242  17.775  0.00  0.00    +0.000 N 
ATOM     26  H   UNL     1       3.412   5.043  16.845  0.00  0.00    +0.000 HD
BRANCH  25  27
ATOM     27  C   UNL     1       5.181   5.027  17.853  0.00  0.00    +0.000 A 
ATOM     28  C   UNL     1       5.848   5.243  19.071  0.00  0.00    +0.000 A 
ATOM     29  C   UNL     1       7.238   5.199  19.151  0.00  0.00    +0.000 A 
ATOM     30  C   UNL     1       7.982   4.880  18.020  0.00  0.00    +0.000 A 
ATOM     31  C   UNL     1       7.336   4.573  16.821  0.00  0.00    +0.000 A 
ATOM     32  C   UNL     1       5.944   4.641  16.739  0.00  0.00    +0.000 A 
ATOM     33 CL   UNL     1       5.184   4.282  15.227  0.00  0.00    +0.000 Cl
ENDBRANCH  25  27
ENDBRANCH   6  25
TORSDOF 5
ENDMDL
MODEL 7
REMARK VINA RESULT:      -8.3      4.931     11.052
REMARK  Name = 
REMARK  5 active torsions:
REMARK  status: ('A' for Active; 'I' for Inactive)
REMARK    1  A    between atoms: C_2  and  C_9
REMARK    2  A    between atoms: N_3  and  C_4
REMARK    3  A    between atoms: C_11  and  N_12
REMARK    4  A    between atoms: C_17  and  N_18
REMARK    5  A    between atoms: N_18  and  C_19
REMARK                            x       y       z     vdW  Elec       q    Type
REMARK                         _______ _______ _______ _____ _____    ______ ____
ROOT
ATOM      1  N   UNL     1       0.470   9.535  21.286  0.00  0.00    +0.000 N 
ATOM      2  N   UNL     1       0.648   8.958  22.506  0.00  0.00    +0.000 NA
ATOM      3  C   UNL     1      -0.067   9.713  23.338  0.00  0.00    +0.000 A 
ATOM      4  C   UNL     1      -0.824  10.687  22.666  0.00  0.00    +0.000 A 
ATOM      5  C   UNL     1      -1.799  11.624  23.037  0.00  0.00    +0.000 A 
ATOM      6  C   UNL     1      -2.428  12.421  22.061  0.00  0.00    +0.000 A 
ATOM      7  C   UNL     1      -2.065  12.250  20.722  0.00  0.00    +0.000 A 
ATOM      8  F   UNL     1      -2.679  12.967  19.768  0.00  0.00    +0.000 F 
ATOM      9  C   UNL     1      -1.081  11.341  20.329  0.00  0.00    +0.000 A 
ATOM     10  C   UNL     1      -0.462  10.569  21.329  0.00  0.00    +0.000 A 
ENDROOT
BRANCH   1  13
ATOM     11  C   UNL     1       2.406   7.597  18.813  0.00  0.00    +0.000 A 
ATOM     12  C   UNL     1       1.816   7.800  20.045  0.00  0.00    +0.000 A 
ATOM     13  C   UNL     1       1.130   9.044  20.125  0.00  0.00    +0.000 A 
ATOM     14  C   UNL     1       1.156   9.728  18.928  0.00  0.00    +0.000 A 
ATOM     15  S   UNL     1       2.126   8.928  17.768  0.00  0.00    +0.000 S 
BRANCH  11  17
ATOM     16  O   UNL     1       4.258   6.485  17.874  0.00  0.00    +0.000 OA
ATOM     17  C   UNL     1       3.159   6.419  18.410  0.00  0.00    +0.000 C 
ATOM     18  N   UNL     1       2.547   5.209  18.652  0.00  0.00    +0.000 N 
ATOM     19  H   UNL     1       1.641   5.219  19.105  0.00  0.00    +0.000 HD
BRANCH  18  20
ATOM     20  C   UNL     1       3.197   3.950  18.362  0.00  0.00    +0.000 C 
ATOM     21  C   UNL     1       3.956   3.406  19.550  0.00  0.00    +0.000 C 
ATOM     22  C   UNL     1       4.072   1.939  19.210  0.00  0.00    +0.000 C 
ATOM     23  O   UNL     1       2.883   1.587  18.494  0.00  0.00    +0.000 OA
ATOM     24  C   UNL     1       2.247   2.796  18.043  0.00  0.00    +0.000 C 
ENDBRANCH  18  20
ENDBRANCH  11  17
ENDBRANCH   1  13
BRANCH   6  25
ATOM     25  N   UNL     1      -3.443  13.353  22.417  0.00  0.00    +0.000 N 
ATOM     26  H   UNL     1      -3.283  14.249  21.949  0.00  0.00    +0.000 HD
BRANCH  25  27
ATOM     27  C   UNL     1      -4.815  13.048  22.547  0.00  0.00    +0.000 A 
ATOM     28  C   UNL     1      -5.647  13.106  21.415  0.00  0.00    +0.000 A 
ATOM     29  C   UNL     1      -7.028  12.970  21.527  0.00  0.00    +0.000 A 
ATOM     30  C   UNL     1      -7.595  12.714  22.771  0.00  0.00    +0.000 A 
ATOM     31  C   UNL     1      -6.781  12.562  23.894  0.00  0.00    +0.000 A 
ATOM     32  C   UNL     1      -5.398  12.723  23.782  0.00  0.00    +0.000 A 
ATOM     33 CL   UNL     1      -4.426  12.556  25.203  0.00  0.00    +0.000 Cl
ENDBRANCH  25  27
ENDBRANCH   6  25
TORSDOF 5
ENDMDL
MODEL 8
REMARK VINA RESULT:      -8.3      4.636     11.318
REMARK  Name = 
REMARK  5 active torsions:
REMARK  status: ('A' for Active; 'I' for Inactive)
REMARK    1  A    between atoms: C_2  and  C_9
REMARK    2  A    between atoms: N_3  and  C_4
REMARK    3  A    between atoms: C_11  and  N_12
REMARK    4  A    between atoms: C_17  and  N_18
REMARK    5  A    between atoms: N_18  and  C_19
REMARK                            x       y       z     vdW  Elec       q    Type
REMARK                         _______ _______ _______ _____ _____    ______ ____
ROOT
ATOM      1  N   UNL     1       0.490   9.438  21.257  0.00  0.00    +0.000 N 
ATOM      2  N   UNL     1       0.581   8.881  22.495  0.00  0.00    +0.000 NA
ATOM      3  C   UNL     1      -0.143   9.683  23.274  0.00  0.00    +0.000 A 
ATOM      4  C   UNL     1      -0.823  10.673  22.544  0.00  0.00    +0.000 A 
ATOM      5  C   UNL     1      -1.775  11.657  22.845  0.00  0.00    +0.000 A 
ATOM      6  C   UNL     1      -2.319  12.458  21.823  0.00  0.00    +0.000 A 
ATOM      7  C   UNL     1      -1.896  12.242  20.508  0.00  0.00    +0.000 A 
ATOM      8  F   UNL     1      -2.429  12.963  19.509  0.00  0.00    +0.000 F 
ATOM      9  C   UNL     1      -0.932  11.285  20.184  0.00  0.00    +0.000 A 
ATOM     10  C   UNL     1      -0.399  10.510  21.230  0.00  0.00    +0.000 A 
ENDROOT
BRANCH   1  13
ATOM     11  C   UNL     1       2.536   7.410  18.950  0.00  0.00    +0.000 A 
ATOM     12  C   UNL     1       1.917   7.674  20.156  0.00  0.00    +0.000 A 
ATOM     13  C   UNL     1       1.186   8.894  20.141  0.00  0.00    +0.000 A 
ATOM     14  C   UNL     1       1.209   9.497  18.901  0.00  0.00    +0.000 A 
ATOM     15  S   UNL     1       2.226   8.657  17.812  0.00  0.00    +0.000 S 
BRANCH  11  17
ATOM     16  O   UNL     1       3.124   5.137  19.135  0.00  0.00    +0.000 OA
ATOM     17  C   UNL     1       3.337   6.236  18.638  0.00  0.00    +0.000 C 
ATOM     18  N   UNL     1       4.375   6.439  17.756  0.00  0.00    +0.000 N 
ATOM     19  H   UNL     1       4.495   7.370  17.373  0.00  0.00    +0.000 HD
BRANCH  18  20
ATOM     20  C   UNL     1       5.220   5.357  17.304  0.00  0.00    +0.000 C 
ATOM     21  C   UNL     1       5.469   5.403  15.814  0.00  0.00    +0.000 C 
ATOM     22  C   UNL     1       6.724   4.574  15.674  0.00  0.00    +0.000 C 
ATOM     23  O   UNL     1       7.497   4.796  16.859  0.00  0.00    +0.000 OA
ATOM     24  C   UNL     1       6.643   5.378  17.859  0.00  0.00    +0.000 C 
ENDBRANCH  18  20
ENDBRANCH  11  17
ENDBRANCH   1  13
BRANCH   6  25
ATOM     25  N   UNL     1      -3.310  13.439  22.107  0.00  0.00    +0.000 N 
ATOM     26  H   UNL     1      -3.249  14.211  21.438  0.00  0.00    +0.000 HD
BRANCH  25  27
ATOM     27  C   UNL     1      -4.639  13.161  22.491  0.00  0.00    +0.000 A 
ATOM     28  C   UNL     1      -4.961  13.071  23.857  0.00  0.00    +0.000 A 
ATOM     29  C   UNL     1      -6.218  12.642  24.276  0.00  0.00    +0.000 A 
ATOM     30  C   UNL     1      -7.195  12.350  23.330  0.00  0.00    +0.000 A 
ATOM     31  C   UNL     1      -6.927  12.519  21.971  0.00  0.00    +0.000 A 
ATOM     32  C   UNL     1      -5.658  12.926  21.554  0.00  0.00    +0.000 A 
ATOM     33 CL   UNL     1      -5.357  13.095  19.859  0.00  0.00    +0.000 Cl
ENDBRANCH  25  27
ENDBRANCH   6  25
TORSDOF 5
ENDMDL
MODEL 9
REMARK VINA RESULT:      -8.3      4.806     10.802
REMARK  Name = 
REMARK  5 active torsions:
REMARK  status: ('A' for Active; 'I' for Inactive)
REMARK    1  A    between atoms: C_2  and  C_9
REMARK    2  A    between atoms: N_3  and  C_4
REMARK    3  A    between atoms: C_11  and  N_12
REMARK    4  A    between atoms: C_17  and  N_18
REMARK    5  A    between atoms: N_18  and  C_19
REMARK                            x       y       z     vdW  Elec       q    Type
REMARK                         _______ _______ _______ _____ _____    ______ ____
ROOT
ATOM      1  N   UNL     1       1.347   8.510  20.415  0.00  0.00    +0.000 N 
ATOM      2  N   UNL     1       1.421   8.804  21.742  0.00  0.00    +0.000 NA
ATOM      3  C   UNL     1       0.695   9.913  21.876  0.00  0.00    +0.000 A 
ATOM      4  C   UNL     1       0.032  10.270  20.690  0.00  0.00    +0.000 A 
ATOM      5  C   UNL     1      -0.916  11.239  20.330  0.00  0.00    +0.000 A 
ATOM      6  C   UNL     1      -1.442  11.269  19.025  0.00  0.00    +0.000 A 
ATOM      7  C   UNL     1      -1.008  10.309  18.106  0.00  0.00    +0.000 A 
ATOM      8  F   UNL     1      -1.525  10.289  16.868  0.00  0.00    +0.000 F 
ATOM      9  C   UNL     1      -0.049   9.348  18.432  0.00  0.00    +0.000 A 
ATOM     10  C   UNL     1       0.467   9.353  19.741  0.00  0.00    +0.000 A 
ENDROOT
BRANCH   1  13
ATOM     11  C   UNL     1       3.440   6.253  18.378  0.00  0.00    +0.000 A 
ATOM     12  C   UNL     1       2.932   7.485  18.742  0.00  0.00    +0.000 A 
ATOM     13  C   UNL     1       2.049   7.406  19.856  0.00  0.00    +0.000 A 
ATOM     14  C   UNL     1       1.960   6.124  20.356  0.00  0.00    +0.000 A 
ATOM     15  S   UNL     1       2.830   5.010  19.392  0.00  0.00    +0.000 S 
BRANCH  11  17
ATOM     16  O   UNL     1       4.683   6.852  16.469  0.00  0.00    +0.000 OA
ATOM     17  C   UNL     1       4.382   6.002  17.297  0.00  0.00    +0.000 C 
ATOM     18  N   UNL     1       4.907   4.730  17.248  0.00  0.00    +0.000 N 
ATOM     19  H   UNL     1       4.624   4.073  17.966  0.00  0.00    +0.000 HD
BRANCH  18  20
ATOM     20  C   UNL     1       5.900   4.348  16.269  0.00  0.00    +0.000 C 
ATOM     21  C   UNL     1       5.360   4.376  14.858  0.00  0.00    +0.000 C 
ATOM     22  C   UNL     1       6.622   4.479  14.035  0.00  0.00    +0.000 C 
ATOM     23  O   UNL     1       7.552   5.252  14.802  0.00  0.00    +0.000 OA
ATOM     24  C   UNL     1       7.095   5.294  16.165  0.00  0.00    +0.000 C 
ENDBRANCH  18  20
ENDBRANCH  11  17
ENDBRANCH   1  13
BRANCH   6  25
ATOM     25  N   UNL     1      -2.428  12.226  18.653  0.00  0.00    +0.000 N 
ATOM     26  H   UNL     1      -2.340  12.460  17.660  0.00  0.00    +0.000 HD
BRANCH  25  27
ATOM     27  C   UNL     1      -3.771  12.218  19.089  0.00  0.00    +0.000 A 
ATOM     28  C   UNL     1      -4.087  12.717  20.365  0.00  0.00    +0.000 A 
ATOM     29  C   UNL     1      -5.367  12.581  20.895  0.00  0.00    +0.000 A 
ATOM     30  C   UNL     1      -6.370  11.994  20.131  0.00  0.00    +0.000 A 
ATOM     31  C   UNL     1      -6.102  11.574  18.828  0.00  0.00    +0.000 A 
ATOM     32  C   UNL     1      -4.811  11.690  18.308  0.00  0.00    +0.000 A 
ATOM     33 CL   UNL     1      -4.512  11.130  16.698  0.00  0.00    +0.000 Cl
ENDBRANCH  25  27
ENDBRANCH   6  25
TORSDOF 5
ENDMDL
