MODEL 1
REMARK VINA RESULT:      -8.6      0.000      0.000
REMARK  Name = 
REMARK  4 active torsions:
REMARK  status: ('A' for Active; 'I' for Inactive)
REMARK    1  A    between atoms: N_2  and  C_4
REMARK    2  A    between atoms: C_8  and  C_9
REMARK    3  A    between atoms: N_10  and  N_11
REMARK    4  A    between atoms: N_11  and  C_12
REMARK                            x       y       z     vdW  Elec       q    Type
REMARK                         _______ _______ _______ _____ _____    ______ ____
ROOT
ATOM      1  N   UNL     1       4.900   4.965  18.034  0.00  0.00    +0.000 N 
ATOM      2  H   UNL     1       5.137   5.923  18.307  0.00  0.00    +0.000 HD
ENDROOT
BRANCH   1   3
ATOM      3  C   UNL     1       3.460   5.155  17.824  0.00  0.00    +0.000 A 
ATOM      4  N   UNL     1       3.187   6.475  17.710  0.00  0.00    +0.000 NA
ATOM      5  N   UNL     1       2.645   7.121  18.777  0.00  0.00    +0.000 NA
ATOM      6  C   UNL     1       2.396   6.393  19.909  0.00  0.00    +0.000 A 
ATOM      7 CL   UNL     1       1.484   7.300  21.081  0.00  0.00    +0.000 Cl
ATOM      8  C   UNL     1       2.463   4.994  19.964  0.00  0.00    +0.000 A 
ATOM      9  C   UNL     1       1.986   4.235  21.024  0.00  0.00    +0.000 A 
ATOM     10  C   UNL     1       1.084   3.228  20.726  0.00  0.00    +0.000 A 
ATOM     11  C   UNL     1       0.783   2.996  19.386  0.00  0.00    +0.000 A 
ATOM     12  C   UNL     1       1.590   3.551  18.381  0.00  0.00    +0.000 A 
ATOM     13  C   UNL     1       2.634   4.438  18.700  0.00  0.00    +0.000 A 
ENDBRANCH   1   3
BRANCH   1  15
ATOM     14  C   UNL     1       5.285   5.095  15.833  0.00  0.00    +0.000 C 
ATOM     15  N   UNL     1       5.689   4.614  16.965  0.00  0.00    +0.000 NA
BRANCH  14  20
ATOM     16  C   UNL     1       5.909   3.441  12.466  0.00  0.00    +0.000 A 
ATOM     17  C   UNL     1       7.168   3.969  12.160  0.00  0.00    +0.000 A 
ATOM     18  C   UNL     1       7.776   4.891  13.025  0.00  0.00    +0.000 A 
ATOM     19  C   UNL     1       7.133   5.250  14.213  0.00  0.00    +0.000 A 
ATOM     20  C   UNL     1       5.896   4.693  14.547  0.00  0.00    +0.000 A 
ATOM     21  C   UNL     1       5.259   3.797  13.679  0.00  0.00    +0.000 A 
BRANCH  16  23
ATOM     22  O   UNL     1       4.160   2.805  11.082  0.00  0.00    +0.000 OA
ATOM     23  N   UNL     1       5.279   2.502  11.541  0.00  0.00    +0.000 N 
ATOM     24  O   UNL     1       5.883   1.450  11.280  0.00  0.00    +0.000 OA
ENDBRANCH  16  23
ENDBRANCH  14  20
ENDBRANCH   1  15
TORSDOF 4
ENDMDL
MODEL 2
REMARK VINA RESULT:      -8.5      5.228      7.924
REMARK  Name = 
REMARK  4 active torsions:
REMARK  status: ('A' for Active; 'I' for Inactive)
REMARK    1  A    between atoms: N_2  and  C_4
REMARK    2  A    between atoms: C_8  and  C_9
REMARK    3  A    between atoms: N_10  and  N_11
REMARK    4  A    between atoms: N_11  and  C_12
REMARK                            x       y       z     vdW  Elec       q    Type
REMARK                         _______ _______ _______ _____ _____    ______ ____
ROOT
ATOM      1  N   UNL     1       3.306   4.179  19.062  0.00  0.00    +0.000 N 
ATOM      2  H   UNL     1       2.694   3.443  18.700  0.00  0.00    +0.000 HD
ENDROOT
BRANCH   1   3
ATOM      3  C   UNL     1       4.568   3.712  18.477  0.00  0.00    +0.000 A 
ATOM      4  N   UNL     1       5.548   3.763  19.407  0.00  0.00    +0.000 NA
ATOM      5  N   UNL     1       6.442   4.788  19.354  0.00  0.00    +0.000 NA
ATOM      6  C   UNL     1       6.304   5.708  18.351  0.00  0.00    +0.000 A 
ATOM      7 CL   UNL     1       7.656   6.800  18.276  0.00  0.00    +0.000 Cl
ATOM      8  C   UNL     1       5.440   5.544  17.259  0.00  0.00    +0.000 A 
ATOM      9  C   UNL     1       5.464   6.343  16.124  0.00  0.00    +0.000 A 
ATOM     10  C   UNL     1       5.587   5.703  14.903  0.00  0.00    +0.000 A 
ATOM     11  C   UNL     1       5.598   4.311  14.892  0.00  0.00    +0.000 A 
ATOM     12  C   UNL     1       5.193   3.599  16.032  0.00  0.00    +0.000 A 
ATOM     13  C   UNL     1       4.886   4.268  17.230  0.00  0.00    +0.000 A 
ENDBRANCH   1   3
BRANCH   1  15
ATOM     14  C   UNL     1       2.790   6.288  19.607  0.00  0.00    +0.000 C 
ATOM     15  N   UNL     1       2.799   5.394  18.670  0.00  0.00    +0.000 NA
BRANCH  14  20
ATOM     16  C   UNL     1       0.898   9.517  20.274  0.00  0.00    +0.000 A 
ATOM     17  C   UNL     1       0.864  10.056  18.983  0.00  0.00    +0.000 A 
ATOM     18  C   UNL     1       1.499   9.390  17.924  0.00  0.00    +0.000 A 
ATOM     19  C   UNL     1       2.130   8.166  18.159  0.00  0.00    +0.000 A 
ATOM     20  C   UNL     1       2.128   7.599  19.435  0.00  0.00    +0.000 A 
ATOM     21  C   UNL     1       1.530   8.267  20.512  0.00  0.00    +0.000 A 
BRANCH  16  23
ATOM     22  O   UNL     1       0.742  10.110  22.511  0.00  0.00    +0.000 OA
ATOM     23  N   UNL     1       0.254  10.237  21.370  0.00  0.00    +0.000 N 
ATOM     24  O   UNL     1      -0.750  10.917  21.109  0.00  0.00    +0.000 OA
ENDBRANCH  16  23
ENDBRANCH  14  20
ENDBRANCH   1  15
TORSDOF 4
ENDMDL
MODEL 3
REMARK VINA RESULT:      -8.3      1.791      2.438
REMARK  Name = 
REMARK  4 active torsions:
REMARK  status: ('A' for Active; 'I' for Inactive)
REMARK    1  A    between atoms: N_2  and  C_4
REMARK    2  A    between atoms: C_8  and  C_9
REMARK    3  A    between atoms: N_10  and  N_11
REMARK    4  A    between atoms: N_11  and  C_12
REMARK                            x       y       z     vdW  Elec       q    Type
REMARK                         _______ _______ _______ _____ _____    ______ ____
ROOT
ATOM      1  N   UNL     1       4.693   6.136  18.053  0.00  0.00    +0.000 N 
ATOM      2  H   UNL     1       3.732   6.056  17.708  0.00  0.00    +0.000 HD
ENDROOT
BRANCH   1   3
ATOM      3  C   UNL     1       4.561   5.291  19.245  0.00  0.00    +0.000 A 
ATOM      4  N   UNL     1       5.565   4.386  19.274  0.00  0.00    +0.000 NA
ATOM      5  N   UNL     1       5.296   3.104  18.905  0.00  0.00    +0.000 NA
ATOM      6  C   UNL     1       4.015   2.799  18.533  0.00  0.00    +0.000 A 
ATOM      7 CL   UNL     1       3.784   1.086  18.333  0.00  0.00    +0.000 Cl
ATOM      8  C   UNL     1       2.926   3.664  18.713  0.00  0.00    +0.000 A 
ATOM      9  C   UNL     1       1.600   3.283  18.565  0.00  0.00    +0.000 A 
ATOM     10  C   UNL     1       0.749   3.531  19.628  0.00  0.00    +0.000 A 
ATOM     11  C   UNL     1       1.259   4.212  20.730  0.00  0.00    +0.000 A 
ATOM     12  C   UNL     1       2.489   4.881  20.631  0.00  0.00    +0.000 A 
ATOM     13  C   UNL     1       3.276   4.778  19.470  0.00  0.00    +0.000 A 
ENDBRANCH   1   3
BRANCH   1  15
ATOM     14  C   UNL     1       4.972   5.609  15.896  0.00  0.00    +0.000 C 
ATOM     15  N   UNL     1       5.545   5.746  17.049  0.00  0.00    +0.000 NA
BRANCH  14  20
ATOM     16  C   UNL     1       5.774   3.650  12.737  0.00  0.00    +0.000 A 
ATOM     17  C   UNL     1       7.129   3.965  12.588  0.00  0.00    +0.000 A 
ATOM     18  C   UNL     1       7.751   4.847  13.484  0.00  0.00    +0.000 A 
ATOM     19  C   UNL     1       7.019   5.378  14.549  0.00  0.00    +0.000 A 
ATOM     20  C   UNL     1       5.679   5.033  14.731  0.00  0.00    +0.000 A 
ATOM     21  C   UNL     1       5.031   4.182  13.826  0.00  0.00    +0.000 A 
BRANCH  16  23
ATOM     22  O   UNL     1       4.019   3.080  11.332  0.00  0.00    +0.000 OA
ATOM     23  N   UNL     1       5.135   2.750  11.780  0.00  0.00    +0.000 N 
ATOM     24  O   UNL     1       5.728   1.703  11.481  0.00  0.00    +0.000 OA
ENDBRANCH  16  23
ENDBRANCH  14  20
ENDBRANCH   1  15
TORSDOF 4
ENDMDL
MODEL 4
REMARK VINA RESULT:      -8.1      5.990      8.406
REMARK  Name = 
REMARK  4 active torsions:
REMARK  status: ('A' for Active; 'I' for Inactive)
REMARK    1  A    between atoms: N_2  and  C_4
REMARK    2  A    between atoms: C_8  and  C_9
REMARK    3  A    between atoms: N_10  and  N_11
REMARK    4  A    between atoms: N_11  and  C_12
REMARK                            x       y       z     vdW  Elec       q    Type
REMARK                         _______ _______ _______ _____ _____    ______ ____
ROOT
ATOM      1  N   UNL     1       3.444   6.523  18.111  0.00  0.00    +0.000 N 
ATOM      2  H   UNL     1       4.399   6.876  17.995  0.00  0.00    +0.000 HD
ENDROOT
BRANCH   1   3
ATOM      3  C   UNL     1       3.696   5.596  19.220  0.00  0.00    +0.000 A 
ATOM      4  N   UNL     1       4.910   5.020  19.067  0.00  0.00    +0.000 NA
ATOM      5  N   UNL     1       4.969   3.744  18.598  0.00  0.00    +0.000 NA
ATOM      6  C   UNL     1       3.791   3.108  18.318  0.00  0.00    +0.000 A 
ATOM      7 CL   UNL     1       4.027   1.420  17.970  0.00  0.00    +0.000 Cl
ATOM      8  C   UNL     1       2.532   3.606  18.682  0.00  0.00    +0.000 A 
ATOM      9  C   UNL     1       1.358   2.869  18.619  0.00  0.00    +0.000 A 
ATOM     10  C   UNL     1       0.601   2.786  19.776  0.00  0.00    +0.000 A 
ATOM     11  C   UNL     1       1.026   3.507  20.889  0.00  0.00    +0.000 A 
ATOM     12  C   UNL     1       1.998   4.509  20.744  0.00  0.00    +0.000 A 
ATOM     13  C   UNL     1       2.641   4.719  19.510  0.00  0.00    +0.000 A 
ENDBRANCH   1   3
BRANCH   1  15
ATOM     14  C   UNL     1       2.318   7.807  19.559  0.00  0.00    +0.000 C 
ATOM     15  N   UNL     1       2.610   7.596  18.315  0.00  0.00    +0.000 NA
BRANCH  14  20
ATOM     16  C   UNL     1      -0.028   9.957  21.639  0.00  0.00    +0.000 A 
ATOM     17  C   UNL     1      -0.666  10.680  20.625  0.00  0.00    +0.000 A 
ATOM     18  C   UNL     1      -0.292  10.497  19.285  0.00  0.00    +0.000 A 
ATOM     19  C   UNL     1       0.694   9.560  18.967  0.00  0.00    +0.000 A 
ATOM     20  C   UNL     1       1.303   8.801  19.969  0.00  0.00    +0.000 A 
ATOM     21  C   UNL     1       0.967   8.996  21.315  0.00  0.00    +0.000 A 
BRANCH  16  23
ATOM     22  O   UNL     1      -1.398  10.911  23.249  0.00  0.00    +0.000 OA
ATOM     23  N   UNL     1      -0.413  10.178  23.031  0.00  0.00    +0.000 N 
ATOM     24  O   UNL     1       0.271   9.642  23.916  0.00  0.00    +0.000 OA
ENDBRANCH  16  23
ENDBRANCH  14  20
ENDBRANCH   1  15
TORSDOF 4
ENDMDL
MODEL 5
REMARK VINA RESULT:      -7.9      5.500      8.449
REMARK  Name = 
REMARK  4 active torsions:
REMARK  status: ('A' for Active; 'I' for Inactive)
REMARK    1  A    between atoms: N_2  and  C_4
REMARK    2  A    between atoms: C_8  and  C_9
REMARK    3  A    between atoms: N_10  and  N_11
REMARK    4  A    between atoms: N_11  and  C_12
REMARK                            x       y       z     vdW  Elec       q    Type
REMARK                         _______ _______ _______ _____ _____    ______ ____
ROOT
ATOM      1  N   UNL     1       3.729   7.670  17.126  0.00  0.00    +0.000 N 
ATOM      2  H   UNL     1       4.212   8.549  16.923  0.00  0.00    +0.000 HD
ENDROOT
BRANCH   1   3
ATOM      3  C   UNL     1       4.888   6.891  17.577  0.00  0.00    +0.000 A 
ATOM      4  N   UNL     1       5.913   7.054  16.710  0.00  0.00    +0.000 NA
ATOM      5  N   UNL     1       6.176   6.060  15.820  0.00  0.00    +0.000 NA
ATOM      6  C   UNL     1       5.393   4.939  15.860  0.00  0.00    +0.000 A 
ATOM      7 CL   UNL     1       6.010   3.674  14.838  0.00  0.00    +0.000 Cl
ATOM      8  C   UNL     1       4.482   4.662  16.890  0.00  0.00    +0.000 A 
ATOM      9  C   UNL     1       3.863   3.434  17.069  0.00  0.00    +0.000 A 
ATOM     10  C   UNL     1       3.987   2.838  18.313  0.00  0.00    +0.000 A 
ATOM     11  C   UNL     1       4.651   3.543  19.312  0.00  0.00    +0.000 A 
ATOM     12  C   UNL     1       4.906   4.914  19.150  0.00  0.00    +0.000 A 
ATOM     13  C   UNL     1       4.606   5.566  17.941  0.00  0.00    +0.000 A 
ENDBRANCH   1   3
BRANCH   1  15
ATOM     14  C   UNL     1       2.052   9.012  17.752  0.00  0.00    +0.000 C 
ATOM     15  N   UNL     1       2.713   7.930  18.013  0.00  0.00    +0.000 NA
BRANCH  14  20
ATOM     16  C   UNL     1       0.226  10.104  20.903  0.00  0.00    +0.000 A 
ATOM     17  C   UNL     1      -0.973  10.564  20.349  0.00  0.00    +0.000 A 
ATOM     18  C   UNL     1      -1.154  10.561  18.957  0.00  0.00    +0.000 A 
ATOM     19  C   UNL     1      -0.144  10.059  18.132  0.00  0.00    +0.000 A 
ATOM     20  C   UNL     1       1.037   9.555  18.682  0.00  0.00    +0.000 A 
ATOM     21  C   UNL     1       1.249   9.583  20.066  0.00  0.00    +0.000 A 
BRANCH  16  23
ATOM     22  O   UNL     1      -0.324  10.907  23.009  0.00  0.00    +0.000 OA
ATOM     23  N   UNL     1       0.407  10.138  22.353  0.00  0.00    +0.000 N 
ATOM     24  O   UNL     1       1.287   9.417  22.846  0.00  0.00    +0.000 OA
ENDBRANCH  16  23
ENDBRANCH  14  20
ENDBRANCH   1  15
TORSDOF 4
ENDMDL
MODEL 6
REMARK VINA RESULT:      -7.9      5.814      8.780
REMARK  Name = 
REMARK  4 active torsions:
REMARK  status: ('A' for Active; 'I' for Inactive)
REMARK    1  A    between atoms: N_2  and  C_4
REMARK    2  A    between atoms: C_8  and  C_9
REMARK    3  A    between atoms: N_10  and  N_11
REMARK    4  A    between atoms: N_11  and  C_12
REMARK                            x       y       z     vdW  Elec       q    Type
REMARK                         _______ _______ _______ _____ _____    ______ ____
ROOT
ATOM      1  N   UNL     1       2.320   7.492  17.431  0.00  0.00    +0.000 N 
ATOM      2  H   UNL     1       3.148   7.890  16.978  0.00  0.00    +0.000 HD
ENDROOT
BRANCH   1   3
ATOM      3  C   UNL     1       3.001   6.717  18.474  0.00  0.00    +0.000 A 
ATOM      4  N   UNL     1       4.264   6.434  18.080  0.00  0.00    +0.000 NA
ATOM      5  N   UNL     1       4.537   5.182  17.622  0.00  0.00    +0.000 NA
ATOM      6  C   UNL     1       3.516   4.272  17.597  0.00  0.00    +0.000 A 
ATOM      7 CL   UNL     1       4.080   2.668  17.225  0.00  0.00    +0.000 Cl
ATOM      8  C   UNL     1       2.271   4.482  18.207  0.00  0.00    +0.000 A 
ATOM      9  C   UNL     1       1.321   3.487  18.395  0.00  0.00    +0.000 A 
ATOM     10  C   UNL     1       0.850   3.298  19.683  0.00  0.00    +0.000 A 
ATOM     11  C   UNL     1       1.298   4.164  20.677  0.00  0.00    +0.000 A 
ATOM     12  C   UNL     1       1.952   5.355  20.325  0.00  0.00    +0.000 A 
ATOM     13  C   UNL     1       2.268   5.636  18.984  0.00  0.00    +0.000 A 
ENDBRANCH   1   3
BRANCH   1  15
ATOM     14  C   UNL     1       1.636   8.899  19.031  0.00  0.00    +0.000 C 
ATOM     15  N   UNL     1       1.492   8.524  17.800  0.00  0.00    +0.000 NA
BRANCH  14  20
ATOM     16  C   UNL     1      -0.494  10.759  21.572  0.00  0.00    +0.000 A 
ATOM     17  C   UNL     1      -1.054  11.745  20.753  0.00  0.00    +0.000 A 
ATOM     18  C   UNL     1      -0.694  11.824  19.399  0.00  0.00    +0.000 A 
ATOM     19  C   UNL     1       0.195  10.889  18.866  0.00  0.00    +0.000 A 
ATOM     20  C   UNL     1       0.723   9.874  19.667  0.00  0.00    +0.000 A 
ATOM     21  C   UNL     1       0.403   9.800  21.029  0.00  0.00    +0.000 A 
BRANCH  16  23
ATOM     22  O   UNL     1      -1.879  11.330  23.343  0.00  0.00    +0.000 OA
ATOM     23  N   UNL     1      -0.860  10.707  22.986  0.00  0.00    +0.000 N 
ATOM     24  O   UNL     1      -0.128  10.063  23.753  0.00  0.00    +0.000 OA
ENDBRANCH  16  23
ENDBRANCH  14  20
ENDBRANCH   1  15
TORSDOF 4
ENDMDL
MODEL 7
REMARK VINA RESULT:      -7.9      5.305      7.779
REMARK  Name = 
REMARK  4 active torsions:
REMARK  status: ('A' for Active; 'I' for Inactive)
REMARK    1  A    between atoms: N_2  and  C_4
REMARK    2  A    between atoms: C_8  and  C_9
REMARK    3  A    between atoms: N_10  and  N_11
REMARK    4  A    between atoms: N_11  and  C_12
REMARK                            x       y       z     vdW  Elec       q    Type
REMARK                         _______ _______ _______ _____ _____    ______ ____
ROOT
ATOM      1  N   UNL     1       3.230   6.981  18.468  0.00  0.00    +0.000 N 
ATOM      2  H   UNL     1       4.113   7.499  18.449  0.00  0.00    +0.000 HD
ENDROOT
BRANCH   1   3
ATOM      3  C   UNL     1       3.632   5.912  19.389  0.00  0.00    +0.000 A 
ATOM      4  N   UNL     1       4.822   5.400  19.002  0.00  0.00    +0.000 NA
ATOM      5  N   UNL     1       4.835   4.207  18.347  0.00  0.00    +0.000 NA
ATOM      6  C   UNL     1       3.637   3.583  18.127  0.00  0.00    +0.000 A 
ATOM      7 CL   UNL     1       3.844   1.970  17.509  0.00  0.00    +0.000 Cl
ATOM      8  C   UNL     1       2.430   3.987  18.716  0.00  0.00    +0.000 A 
ATOM      9  C   UNL     1       1.266   3.232  18.695  0.00  0.00    +0.000 A 
ATOM     10  C   UNL     1       0.665   2.962  19.913  0.00  0.00    +0.000 A 
ATOM     11  C   UNL     1       1.221   3.528  21.056  0.00  0.00    +0.000 A 
ATOM     12  C   UNL     1       2.157   4.568  20.938  0.00  0.00    +0.000 A 
ATOM     13  C   UNL     1       2.633   4.972  19.678  0.00  0.00    +0.000 A 
ENDBRANCH   1   3
BRANCH   1  15
ATOM     14  C   UNL     1       1.871   8.671  17.914  0.00  0.00    +0.000 C 
ATOM     15  N   UNL     1       2.231   7.846  18.845  0.00  0.00    +0.000 NA
BRANCH  14  20
ATOM     16  C   UNL     1      -1.281  10.778  18.205  0.00  0.00    +0.000 A 
ATOM     17  C   UNL     1      -0.733  11.983  18.657  0.00  0.00    +0.000 A 
ATOM     18  C   UNL     1       0.644  12.081  18.909  0.00  0.00    +0.000 A 
ATOM     19  C   UNL     1       1.469  10.980  18.668  0.00  0.00    +0.000 A 
ATOM     20  C   UNL     1       0.936   9.788  18.174  0.00  0.00    +0.000 A 
ATOM     21  C   UNL     1      -0.441   9.660  17.950  0.00  0.00    +0.000 A 
BRANCH  16  23
ATOM     22  O   UNL     1      -3.428  11.645  18.338  0.00  0.00    +0.000 OA
ATOM     23  N   UNL     1      -2.720  10.685  17.973  0.00  0.00    +0.000 N 
ATOM     24  O   UNL     1      -3.159   9.653  17.444  0.00  0.00    +0.000 OA
ENDBRANCH  16  23
ENDBRANCH  14  20
ENDBRANCH   1  15
TORSDOF 4
ENDMDL
MODEL 8
REMARK VINA RESULT:      -7.8      5.454      8.732
REMARK  Name = 
REMARK  4 active torsions:
REMARK  status: ('A' for Active; 'I' for Inactive)
REMARK    1  A    between atoms: N_2  and  C_4
REMARK    2  A    between atoms: C_8  and  C_9
REMARK    3  A    between atoms: N_10  and  N_11
REMARK    4  A    between atoms: N_11  and  C_12
REMARK                            x       y       z     vdW  Elec       q    Type
REMARK                         _______ _______ _______ _____ _____    ______ ____
ROOT
ATOM      1  N   UNL     1       3.221   7.024  17.638  0.00  0.00    +0.000 N 
ATOM      2  H   UNL     1       4.118   7.485  17.462  0.00  0.00    +0.000 HD
ENDROOT
BRANCH   1   3
ATOM      3  C   UNL     1       3.725   5.668  17.886  0.00  0.00    +0.000 A 
ATOM      4  N   UNL     1       4.001   5.518  19.201  0.00  0.00    +0.000 NA
ATOM      5  N   UNL     1       5.299   5.574  19.604  0.00  0.00    +0.000 NA
ATOM      6  C   UNL     1       6.259   5.769  18.649  0.00  0.00    +0.000 A 
ATOM      7 CL   UNL     1       7.865   5.568  19.287  0.00  0.00    +0.000 Cl
ATOM      8  C   UNL     1       6.011   5.701  17.271  0.00  0.00    +0.000 A 
ATOM      9  C   UNL     1       7.005   5.658  16.304  0.00  0.00    +0.000 A 
ATOM     10  C   UNL     1       6.961   4.612  15.397  0.00  0.00    +0.000 A 
ATOM     11  C   UNL     1       5.886   3.730  15.467  0.00  0.00    +0.000 A 
ATOM     12  C   UNL     1       4.751   4.070  16.220  0.00  0.00    +0.000 A 
ATOM     13  C   UNL     1       4.726   5.237  17.004  0.00  0.00    +0.000 A 
ENDBRANCH   1   3
BRANCH   1  15
ATOM     14  C   UNL     1       1.793   8.637  18.246  0.00  0.00    +0.000 C 
ATOM     15  N   UNL     1       2.582   7.694  18.653  0.00  0.00    +0.000 NA
BRANCH  14  20
ATOM     16  C   UNL     1       0.313  10.207  21.375  0.00  0.00    +0.000 A 
ATOM     17  C   UNL     1      -0.119  11.433  20.857  0.00  0.00    +0.000 A 
ATOM     18  C   UNL     1       0.120  11.754  19.513  0.00  0.00    +0.000 A 
ATOM     19  C   UNL     1       0.757  10.827  18.685  0.00  0.00    +0.000 A 
ATOM     20  C   UNL     1       1.150   9.583  19.184  0.00  0.00    +0.000 A 
ATOM     21  C   UNL     1       0.951   9.259  20.532  0.00  0.00    +0.000 A 
BRANCH  16  23
ATOM     22  O   UNL     1      -1.079  10.049  23.224  0.00  0.00    +0.000 OA
ATOM     23  N   UNL     1       0.078   9.900  22.784  0.00  0.00    +0.000 N 
ATOM     24  O   UNL     1       1.044   9.527  23.467  0.00  0.00    +0.000 OA
ENDBRANCH  16  23
ENDBRANCH  14  20
ENDBRANCH   1  15
TORSDOF 4
ENDMDL
MODEL 9
REMARK VINA RESULT:      -7.8      5.893      8.422
REMARK  Name = 
REMARK  4 active torsions:
REMARK  status: ('A' for Active; 'I' for Inactive)
REMARK    1  A    between atoms: N_2  and  C_4
REMARK    2  A    between atoms: C_8  and  C_9
REMARK    3  A    between atoms: N_10  and  N_11
REMARK    4  A    between atoms: N_11  and  C_12
REMARK                            x       y       z     vdW  Elec       q    Type
REMARK                         _______ _______ _______ _____ _____    ______ ____
ROOT
ATOM      1  N   UNL     1       3.196   7.076  17.829  0.00  0.00    +0.000 N 
ATOM      2  H   UNL     1       3.949   7.759  17.947  0.00  0.00    +0.000 HD
ENDROOT
BRANCH   1   3
ATOM      3  C   UNL     1       3.587   6.144  18.893  0.00  0.00    +0.000 A 
ATOM      4  N   UNL     1       4.800   5.615  18.612  0.00  0.00    +0.000 NA
ATOM      5  N   UNL     1       4.857   4.348  18.119  0.00  0.00    +0.000 NA
ATOM      6  C   UNL     1       3.680   3.673  17.946  0.00  0.00    +0.000 A 
ATOM      7 CL   UNL     1       3.940   1.999  17.549  0.00  0.00    +0.000 Cl
ATOM      8  C   UNL     1       2.446   4.121  18.439  0.00  0.00    +0.000 A 
ATOM      9  C   UNL     1       1.298   3.342  18.480  0.00  0.00    +0.000 A 
ATOM     10  C   UNL     1       0.663   3.217  19.704  0.00  0.00    +0.000 A 
ATOM     11  C   UNL     1       1.169   3.940  20.781  0.00  0.00    +0.000 A 
ATOM     12  C   UNL     1       2.087   4.977  20.557  0.00  0.00    +0.000 A 
ATOM     13  C   UNL     1       2.597   5.226  19.271  0.00  0.00    +0.000 A 
ENDBRANCH   1   3
BRANCH   1  15
ATOM     14  C   UNL     1       2.084   8.912  18.462  0.00  0.00    +0.000 C 
ATOM     15  N   UNL     1       1.995   7.736  17.928  0.00  0.00    +0.000 NA
BRANCH  14  20
ATOM     16  C   UNL     1      -0.396  11.119  20.314  0.00  0.00    +0.000 A 
ATOM     17  C   UNL     1      -1.445  11.145  19.388  0.00  0.00    +0.000 A 
ATOM     18  C   UNL     1      -1.314  10.489  18.155  0.00  0.00    +0.000 A 
ATOM     19  C   UNL     1      -0.145   9.776  17.874  0.00  0.00    +0.000 A 
ATOM     20  C   UNL     1       0.887   9.708  18.812  0.00  0.00    +0.000 A 
ATOM     21  C   UNL     1       0.789  10.386  20.034  0.00  0.00    +0.000 A 
BRANCH  16  23
ATOM     22  O   UNL     1       0.366  12.624  21.906  0.00  0.00    +0.000 OA
ATOM     23  N   UNL     1      -0.540  11.830  21.582  0.00  0.00    +0.000 N 
ATOM     24  O   UNL     1      -1.542  11.591  22.273  0.00  0.00    +0.000 OA
ENDBRANCH  16  23
ENDBRANCH  14  20
ENDBRANCH   1  15
TORSDOF 4
ENDMDL
