MODEL 1
REMARK VINA RESULT:      -8.7      0.000      0.000
REMARK  Name = 
REMARK  5 active torsions:
REMARK  status: ('A' for Active; 'I' for Inactive)
REMARK    1  A    between atoms: C_2  and  C_3
REMARK    2  A    between atoms: C_3  and  O_4
REMARK    3  A    between atoms: O_4  and  C_5
REMARK    4  A    between atoms: N_12  and  C_13
REMARK    5  A    between atoms: C_16  and  C_17
REMARK                            x       y       z     vdW  Elec       q    Type
REMARK                         _______ _______ _______ _____ _____    ______ ____
ROOT
ATOM      1  C   UNL     1       6.523   5.889  17.865  0.00  0.00    +0.000 A 
ATOM      2  C   UNL     1       6.227   7.030  17.121  0.00  0.00    +0.000 A 
ATOM      3  C   UNL     1       6.981   8.195  17.281  0.00  0.00    +0.000 A 
ATOM      4  C   UNL     1       8.047   8.256  18.188  0.00  0.00    +0.000 A 
ATOM      5  C   UNL     1       8.396   7.089  18.876  0.00  0.00    +0.000 A 
ATOM      6  C   UNL     1       7.636   5.916  18.716  0.00  0.00    +0.000 A 
ENDROOT
BRANCH   4   7
ATOM      7  C   UNL     1       8.678   9.553  18.408  0.00  0.00    +0.000 A 
ATOM      8  N   UNL     1       8.594  10.618  17.626  0.00  0.00    +0.000 NA
ATOM      9  C   UNL     1       9.265  11.586  18.314  0.00  0.00    +0.000 A 
ATOM     10  C   UNL     1       9.496  12.928  17.996  0.00  0.00    +0.000 A 
ATOM     11  C   UNL     1      10.247  13.687  18.897  0.00  0.00    +0.000 A 
ATOM     12 CL   UNL     1      10.594  15.331  18.519  0.00  0.00    +0.000 Cl
ATOM     13  C   UNL     1      10.731  13.138  20.093  0.00  0.00    +0.000 A 
ATOM     14  C   UNL     1      10.484  11.798  20.434  0.00  0.00    +0.000 A 
ATOM     15  C   UNL     1       9.752  11.067  19.505  0.00  0.00    +0.000 A 
ATOM     16  O   UNL     1       9.378   9.753  19.573  0.00  0.00    +0.000 OA
ENDBRANCH   4   7
BRANCH   1  19
ATOM     17  O   UNL     1       5.861   4.071  15.620  0.00  0.00    +0.000 OA
ATOM     18  C   UNL     1       5.364   3.979  16.741  0.00  0.00    +0.000 C 
ATOM     19  N   UNL     1       5.713   4.730  17.857  0.00  0.00    +0.000 N 
ATOM     20  H   UNL     1       5.307   4.456  18.743  0.00  0.00    +0.000 HD
BRANCH  18  21
ATOM     21  C   UNL     1       4.205   3.014  16.983  0.00  0.00    +0.000 C 
BRANCH  21  22
ATOM     22  O   UNL     1       2.956   3.691  16.972  0.00  0.00    +0.000 OA
BRANCH  22  23
ATOM     23  C   UNL     1       2.309   3.756  18.179  0.00  0.00    +0.000 A 
ATOM     24  C   UNL     1       1.685   2.682  18.822  0.00  0.00    +0.000 A 
ATOM     25  C   UNL     1       1.037   2.869  20.046  0.00  0.00    +0.000 A 
ATOM     26  C   UNL     1       1.017   4.127  20.639  0.00  0.00    +0.000 A 
ATOM     27  C   UNL     1       1.665   5.191  20.015  0.00  0.00    +0.000 A 
ATOM     28 CL   UNL     1       1.648   6.745  20.755  0.00  0.00    +0.000 Cl
ATOM     29  C   UNL     1       2.318   5.008  18.796  0.00  0.00    +0.000 A 
ENDBRANCH  22  23
ENDBRANCH  21  22
ENDBRANCH  18  21
ENDBRANCH   1  19
TORSDOF 5
ENDMDL
MODEL 2
REMARK VINA RESULT:      -8.6      0.988      1.323
REMARK  Name = 
REMARK  5 active torsions:
REMARK  status: ('A' for Active; 'I' for Inactive)
REMARK    1  A    between atoms: C_2  and  C_3
REMARK    2  A    between atoms: C_3  and  O_4
REMARK    3  A    between atoms: O_4  and  C_5
REMARK    4  A    between atoms: N_12  and  C_13
REMARK    5  A    between atoms: C_16  and  C_17
REMARK                            x       y       z     vdW  Elec       q    Type
REMARK                         _______ _______ _______ _____ _____    ______ ____
ROOT
ATOM      1  C   UNL     1       6.436   5.508  17.733  0.00  0.00    +0.000 A 
ATOM      2  C   UNL     1       6.121   6.633  16.974  0.00  0.00    +0.000 A 
ATOM      3  C   UNL     1       6.840   7.820  17.134  0.00  0.00    +0.000 A 
ATOM      4  C   UNL     1       7.889   7.920  18.057  0.00  0.00    +0.000 A 
ATOM      5  C   UNL     1       8.260   6.770  18.761  0.00  0.00    +0.000 A 
ATOM      6  C   UNL     1       7.535   5.575  18.602  0.00  0.00    +0.000 A 
ENDROOT
BRANCH   4   7
ATOM      7  C   UNL     1       8.481   9.237  18.272  0.00  0.00    +0.000 A 
ATOM      8  N   UNL     1       8.303  10.317  17.529  0.00  0.00    +0.000 NA
ATOM      9  C   UNL     1       8.978  11.295  18.200  0.00  0.00    +0.000 A 
ATOM     10  C   UNL     1       9.133  12.653  17.907  0.00  0.00    +0.000 A 
ATOM     11  C   UNL     1       9.910  13.419  18.780  0.00  0.00    +0.000 A 
ATOM     12 CL   UNL     1      10.165  15.085  18.428  0.00  0.00    +0.000 Cl
ATOM     13  C   UNL     1      10.493  12.859  19.925  0.00  0.00    +0.000 A 
ATOM     14  C   UNL     1      10.324  11.502  20.243  0.00  0.00    +0.000 A 
ATOM     15  C   UNL     1       9.562  10.765  19.342  0.00  0.00    +0.000 A 
ATOM     16  O   UNL     1       9.246   9.435  19.395  0.00  0.00    +0.000 OA
ENDBRANCH   4   7
BRANCH   1  19
ATOM     17  O   UNL     1       5.069   4.172  15.470  0.00  0.00    +0.000 OA
ATOM     18  C   UNL     1       4.962   3.811  16.640  0.00  0.00    +0.000 C 
ATOM     19  N   UNL     1       5.659   4.328  17.725  0.00  0.00    +0.000 N 
ATOM     20  H   UNL     1       5.561   3.845  18.610  0.00  0.00    +0.000 HD
BRANCH  18  21
ATOM     21  C   UNL     1       3.937   2.742  17.016  0.00  0.00    +0.000 C 
BRANCH  21  22
ATOM     22  O   UNL     1       2.627   3.286  17.096  0.00  0.00    +0.000 OA
BRANCH  22  23
ATOM     23  C   UNL     1       2.310   3.889  18.286  0.00  0.00    +0.000 A 
ATOM     24  C   UNL     1       2.228   5.269  18.498  0.00  0.00    +0.000 A 
ATOM     25  C   UNL     1       1.914   5.774  19.763  0.00  0.00    +0.000 A 
ATOM     26  C   UNL     1       1.671   4.903  20.820  0.00  0.00    +0.000 A 
ATOM     27  C   UNL     1       1.722   3.528  20.604  0.00  0.00    +0.000 A 
ATOM     28 CL   UNL     1       1.411   2.451  21.910  0.00  0.00    +0.000 Cl
ATOM     29  C   UNL     1       2.029   3.019  19.341  0.00  0.00    +0.000 A 
ENDBRANCH  22  23
ENDBRANCH  21  22
ENDBRANCH  18  21
ENDBRANCH   1  19
TORSDOF 5
ENDMDL
MODEL 3
REMARK VINA RESULT:      -8.2      6.026      8.684
REMARK  Name = 
REMARK  5 active torsions:
REMARK  status: ('A' for Active; 'I' for Inactive)
REMARK    1  A    between atoms: C_2  and  C_3
REMARK    2  A    between atoms: C_3  and  O_4
REMARK    3  A    between atoms: O_4  and  C_5
REMARK    4  A    between atoms: N_12  and  C_13
REMARK    5  A    between atoms: C_16  and  C_17
REMARK                            x       y       z     vdW  Elec       q    Type
REMARK                         _______ _______ _______ _____ _____    ______ ____
ROOT
ATOM      1  C   UNL     1       2.806   7.015  18.330  0.00  0.00    +0.000 A 
ATOM      2  C   UNL     1       2.470   8.204  17.685  0.00  0.00    +0.000 A 
ATOM      3  C   UNL     1       1.722   9.182  18.344  0.00  0.00    +0.000 A 
ATOM      4  C   UNL     1       1.285   9.001  19.663  0.00  0.00    +0.000 A 
ATOM      5  C   UNL     1       1.690   7.845  20.339  0.00  0.00    +0.000 A 
ATOM      6  C   UNL     1       2.442   6.859  19.675  0.00  0.00    +0.000 A 
ENDROOT
BRANCH   4   7
ATOM      7  C   UNL     1       0.379   9.998  20.221  0.00  0.00    +0.000 A 
ATOM      8  N   UNL     1      -0.431  10.800  19.546  0.00  0.00    +0.000 NA
ATOM      9  C   UNL     1      -1.129  11.457  20.517  0.00  0.00    +0.000 A 
ATOM     10  C   UNL     1      -2.138  12.418  20.412  0.00  0.00    +0.000 A 
ATOM     11  C   UNL     1      -2.662  12.939  21.599  0.00  0.00    +0.000 A 
ATOM     12 CL   UNL     1      -3.874  14.160  21.512  0.00  0.00    +0.000 Cl
ATOM     13  C   UNL     1      -2.216  12.499  22.852  0.00  0.00    +0.000 A 
ATOM     14  C   UNL     1      -1.219  11.516  22.969  0.00  0.00    +0.000 A 
ATOM     15  C   UNL     1      -0.706  11.035  21.769  0.00  0.00    +0.000 A 
ATOM     16  O   UNL     1       0.268  10.093  21.587  0.00  0.00    +0.000 OA
ENDBRANCH   4   7
BRANCH   1  19
ATOM     17  O   UNL     1       5.641   6.680  17.534  0.00  0.00    +0.000 OA
ATOM     18  C   UNL     1       4.752   5.883  17.242  0.00  0.00    +0.000 C 
ATOM     19  N   UNL     1       3.433   5.931  17.675  0.00  0.00    +0.000 N 
ATOM     20  H   UNL     1       2.845   5.136  17.455  0.00  0.00    +0.000 HD
BRANCH  18  21
ATOM     21  C   UNL     1       5.040   4.747  16.262  0.00  0.00    +0.000 C 
BRANCH  21  22
ATOM     22  O   UNL     1       6.424   4.675  15.946  0.00  0.00    +0.000 OA
BRANCH  22  23
ATOM     23  C   UNL     1       6.721   4.614  14.608  0.00  0.00    +0.000 A 
ATOM     24  C   UNL     1       7.661   5.414  13.950  0.00  0.00    +0.000 A 
ATOM     25  C   UNL     1       7.869   5.278  12.575  0.00  0.00    +0.000 A 
ATOM     26  C   UNL     1       7.146   4.336  11.852  0.00  0.00    +0.000 A 
ATOM     27  C   UNL     1       6.231   3.517  12.510  0.00  0.00    +0.000 A 
ATOM     28 CL   UNL     1       5.345   2.344  11.615  0.00  0.00    +0.000 Cl
ATOM     29  C   UNL     1       6.025   3.645  13.884  0.00  0.00    +0.000 A 
ENDBRANCH  22  23
ENDBRANCH  21  22
ENDBRANCH  18  21
ENDBRANCH   1  19
TORSDOF 5
ENDMDL
MODEL 4
REMARK VINA RESULT:      -8.2      0.935      1.062
REMARK  Name = 
REMARK  5 active torsions:
REMARK  status: ('A' for Active; 'I' for Inactive)
REMARK    1  A    between atoms: C_2  and  C_3
REMARK    2  A    between atoms: C_3  and  O_4
REMARK    3  A    between atoms: O_4  and  C_5
REMARK    4  A    between atoms: N_12  and  C_13
REMARK    5  A    between atoms: C_16  and  C_17
REMARK                            x       y       z     vdW  Elec       q    Type
REMARK                         _______ _______ _______ _____ _____    ______ ____
ROOT
ATOM      1  C   UNL     1       7.047   6.481  17.829  0.00  0.00    +0.000 A 
ATOM      2  C   UNL     1       6.895   7.644  17.076  0.00  0.00    +0.000 A 
ATOM      3  C   UNL     1       7.609   8.799  17.403  0.00  0.00    +0.000 A 
ATOM      4  C   UNL     1       8.492   8.828  18.490  0.00  0.00    +0.000 A 
ATOM      5  C   UNL     1       8.708   7.641  19.197  0.00  0.00    +0.000 A 
ATOM      6  C   UNL     1       7.988   6.477  18.869  0.00  0.00    +0.000 A 
ENDROOT
BRANCH   4   7
ATOM      7  C   UNL     1       9.076  10.114  18.857  0.00  0.00    +0.000 A 
ATOM      8  N   UNL     1       9.456  11.076  18.031  0.00  0.00    +0.000 NA
ATOM      9  C   UNL     1       9.831  12.093  18.859  0.00  0.00    +0.000 A 
ATOM     10  C   UNL     1      10.308  13.374  18.562  0.00  0.00    +0.000 A 
ATOM     11  C   UNL     1      10.637  14.207  19.635  0.00  0.00    +0.000 A 
ATOM     12 CL   UNL     1      11.272  15.775  19.311  0.00  0.00    +0.000 Cl
ATOM     13  C   UNL     1      10.473  13.791  20.963  0.00  0.00    +0.000 A 
ATOM     14  C   UNL     1       9.973  12.515  21.273  0.00  0.00    +0.000 A 
ATOM     15  C   UNL     1       9.675  11.706  20.182  0.00  0.00    +0.000 A 
ATOM     16  O   UNL     1       9.187  10.428  20.189  0.00  0.00    +0.000 OA
ENDBRANCH   4   7
BRANCH   1  19
ATOM     17  O   UNL     1       7.277   4.345  15.788  0.00  0.00    +0.000 OA
ATOM     18  C   UNL     1       6.355   4.418  16.598  0.00  0.00    +0.000 C 
ATOM     19  N   UNL     1       6.250   5.329  17.642  0.00  0.00    +0.000 N 
ATOM     20  H   UNL     1       5.498   5.188  18.305  0.00  0.00    +0.000 HD
BRANCH  18  21
ATOM     21  C   UNL     1       5.148   3.492  16.462  0.00  0.00    +0.000 C 
BRANCH  21  22
ATOM     22  O   UNL     1       3.928   4.218  16.528  0.00  0.00    +0.000 OA
BRANCH  22  23
ATOM     23  C   UNL     1       3.052   3.812  17.502  0.00  0.00    +0.000 A 
ATOM     24  C   UNL     1       2.456   2.548  17.578  0.00  0.00    +0.000 A 
ATOM     25  C   UNL     1       1.560   2.248  18.608  0.00  0.00    +0.000 A 
ATOM     26  C   UNL     1       1.261   3.206  19.571  0.00  0.00    +0.000 A 
ATOM     27  C   UNL     1       1.877   4.455  19.515  0.00  0.00    +0.000 A 
ATOM     28 CL   UNL     1       1.514   5.635  20.713  0.00  0.00    +0.000 Cl
ATOM     29  C   UNL     1       2.777   4.756  18.492  0.00  0.00    +0.000 A 
ENDBRANCH  22  23
ENDBRANCH  21  22
ENDBRANCH  18  21
ENDBRANCH   1  19
TORSDOF 5
ENDMDL
MODEL 5
REMARK VINA RESULT:      -8.2      1.091      1.428
REMARK  Name = 
REMARK  5 active torsions:
REMARK  status: ('A' for Active; 'I' for Inactive)
REMARK    1  A    between atoms: C_2  and  C_3
REMARK    2  A    between atoms: C_3  and  O_4
REMARK    3  A    between atoms: O_4  and  C_5
REMARK    4  A    between atoms: N_12  and  C_13
REMARK    5  A    between atoms: C_16  and  C_17
REMARK                            x       y       z     vdW  Elec       q    Type
REMARK                         _______ _______ _______ _____ _____    ______ ____
ROOT
ATOM      1  C   UNL     1       6.903   5.449  17.706  0.00  0.00    +0.000 A 
ATOM      2  C   UNL     1       6.823   6.485  16.778  0.00  0.00    +0.000 A 
ATOM      3  C   UNL     1       7.429   7.717  17.036  0.00  0.00    +0.000 A 
ATOM      4  C   UNL     1       8.128   7.951  18.227  0.00  0.00    +0.000 A 
ATOM      5  C   UNL     1       8.280   6.887  19.123  0.00  0.00    +0.000 A 
ATOM      6  C   UNL     1       7.668   5.647  18.864  0.00  0.00    +0.000 A 
ENDROOT
BRANCH   4   7
ATOM      7  C   UNL     1       8.594   9.309  18.485  0.00  0.00    +0.000 A 
ATOM      8  N   UNL     1       9.433   9.692  19.434  0.00  0.00    +0.000 NA
ATOM      9  C   UNL     1       9.623  11.021  19.190  0.00  0.00    +0.000 A 
ATOM     10  C   UNL     1      10.421  11.958  19.854  0.00  0.00    +0.000 A 
ATOM     11  C   UNL     1      10.400  13.274  19.384  0.00  0.00    +0.000 A 
ATOM     12 CL   UNL     1      11.332  14.469  20.203  0.00  0.00    +0.000 Cl
ATOM     13  C   UNL     1       9.630  13.644  18.273  0.00  0.00    +0.000 A 
ATOM     14  C   UNL     1       8.844  12.706  17.584  0.00  0.00    +0.000 A 
ATOM     15  C   UNL     1       8.873  11.411  18.090  0.00  0.00    +0.000 A 
ATOM     16  O   UNL     1       8.204  10.310  17.629  0.00  0.00    +0.000 OA
ENDBRANCH   4   7
BRANCH   1  19
ATOM     17  O   UNL     1       4.373   4.897  16.266  0.00  0.00    +0.000 OA
ATOM     18  C   UNL     1       4.956   4.069  16.962  0.00  0.00    +0.000 C 
ATOM     19  N   UNL     1       6.194   4.234  17.571  0.00  0.00    +0.000 N 
ATOM     20  H   UNL     1       6.606   3.419  18.009  0.00  0.00    +0.000 HD
BRANCH  18  21
ATOM     21  C   UNL     1       4.283   2.735  17.282  0.00  0.00    +0.000 C 
BRANCH  21  22
ATOM     22  O   UNL     1       2.908   2.911  17.595  0.00  0.00    +0.000 OA
BRANCH  22  23
ATOM     23  C   UNL     1       2.635   3.216  18.904  0.00  0.00    +0.000 A 
ATOM     24  C   UNL     1       2.707   2.321  19.976  0.00  0.00    +0.000 A 
ATOM     25  C   UNL     1       2.388   2.739  21.271  0.00  0.00    +0.000 A 
ATOM     26  C   UNL     1       2.004   4.056  21.502  0.00  0.00    +0.000 A 
ATOM     27  C   UNL     1       1.962   4.957  20.441  0.00  0.00    +0.000 A 
ATOM     28 CL   UNL     1       1.496   6.589  20.730  0.00  0.00    +0.000 Cl
ATOM     29  C   UNL     1       2.286   4.546  19.147  0.00  0.00    +0.000 A 
ENDBRANCH  22  23
ENDBRANCH  21  22
ENDBRANCH  18  21
ENDBRANCH   1  19
TORSDOF 5
ENDMDL
MODEL 6
REMARK VINA RESULT:      -8.1      1.230      1.361
REMARK  Name = 
REMARK  5 active torsions:
REMARK  status: ('A' for Active; 'I' for Inactive)
REMARK    1  A    between atoms: C_2  and  C_3
REMARK    2  A    between atoms: C_3  and  O_4
REMARK    3  A    between atoms: O_4  and  C_5
REMARK    4  A    between atoms: N_12  and  C_13
REMARK    5  A    between atoms: C_16  and  C_17
REMARK                            x       y       z     vdW  Elec       q    Type
REMARK                         _______ _______ _______ _____ _____    ______ ____
ROOT
ATOM      1  C   UNL     1       6.795   6.254  17.799  0.00  0.00    +0.000 A 
ATOM      2  C   UNL     1       6.573   7.404  17.044  0.00  0.00    +0.000 A 
ATOM      3  C   UNL     1       7.301   8.568  17.296  0.00  0.00    +0.000 A 
ATOM      4  C   UNL     1       8.267   8.621  18.310  0.00  0.00    +0.000 A 
ATOM      5  C   UNL     1       8.548   7.446  19.014  0.00  0.00    +0.000 A 
ATOM      6  C   UNL     1       7.814   6.273  18.762  0.00  0.00    +0.000 A 
ENDROOT
BRANCH   4   7
ATOM      7  C   UNL     1       8.867   9.917  18.610  0.00  0.00    +0.000 A 
ATOM      8  N   UNL     1       8.836  11.000  17.849  0.00  0.00    +0.000 NA
ATOM      9  C   UNL     1       9.440  11.956  18.612  0.00  0.00    +0.000 A 
ATOM     10  C   UNL     1       9.683  13.307  18.345  0.00  0.00    +0.000 A 
ATOM     11  C   UNL     1      10.352  14.049  19.322  0.00  0.00    +0.000 A 
ATOM     12 CL   UNL     1      10.713  15.705  19.011  0.00  0.00    +0.000 Cl
ATOM     13  C   UNL     1      10.744  13.475  20.539  0.00  0.00    +0.000 A 
ATOM     14  C   UNL     1      10.483  12.125  20.827  0.00  0.00    +0.000 A 
ATOM     15  C   UNL     1       9.835  11.412  19.825  0.00  0.00    +0.000 A 
ATOM     16  O   UNL     1       9.468  10.094  19.832  0.00  0.00    +0.000 OA
ENDBRANCH   4   7
BRANCH   1  19
ATOM     17  O   UNL     1       6.652   4.261  15.611  0.00  0.00    +0.000 OA
ATOM     18  C   UNL     1       5.907   4.255  16.589  0.00  0.00    +0.000 C 
ATOM     19  N   UNL     1       5.995   5.093  17.693  0.00  0.00    +0.000 N 
ATOM     20  H   UNL     1       5.390   4.887  18.479  0.00  0.00    +0.000 HD
BRANCH  18  21
ATOM     21  C   UNL     1       4.712   3.304  16.628  0.00  0.00    +0.000 C 
BRANCH  21  22
ATOM     22  O   UNL     1       4.497   2.796  17.938  0.00  0.00    +0.000 OA
BRANCH  22  23
ATOM     23  C   UNL     1       3.237   2.985  18.445  0.00  0.00    +0.000 A 
ATOM     24  C   UNL     1       2.137   3.463  17.723  0.00  0.00    +0.000 A 
ATOM     25  C   UNL     1       0.900   3.635  18.350  0.00  0.00    +0.000 A 
ATOM     26  C   UNL     1       0.752   3.323  19.697  0.00  0.00    +0.000 A 
ATOM     27  C   UNL     1       1.838   2.819  20.410  0.00  0.00    +0.000 A 
ATOM     28 CL   UNL     1       1.650   2.424  22.074  0.00  0.00    +0.000 Cl
ATOM     29  C   UNL     1       3.074   2.639  19.787  0.00  0.00    +0.000 A 
ENDBRANCH  22  23
ENDBRANCH  21  22
ENDBRANCH  18  21
ENDBRANCH   1  19
TORSDOF 5
ENDMDL
MODEL 7
REMARK VINA RESULT:      -8.1      5.422      8.086
REMARK  Name = 
REMARK  5 active torsions:
REMARK  status: ('A' for Active; 'I' for Inactive)
REMARK    1  A    between atoms: C_2  and  C_3
REMARK    2  A    between atoms: C_3  and  O_4
REMARK    3  A    between atoms: O_4  and  C_5
REMARK    4  A    between atoms: N_12  and  C_13
REMARK    5  A    between atoms: C_16  and  C_17
REMARK                            x       y       z     vdW  Elec       q    Type
REMARK                         _______ _______ _______ _____ _____    ______ ____
ROOT
ATOM      1  C   UNL     1       3.512   6.080  18.236  0.00  0.00    +0.000 A 
ATOM      2  C   UNL     1       2.919   5.850  19.476  0.00  0.00    +0.000 A 
ATOM      3  C   UNL     1       2.121   6.830  20.072  0.00  0.00    +0.000 A 
ATOM      4  C   UNL     1       1.896   8.065  19.452  0.00  0.00    +0.000 A 
ATOM      5  C   UNL     1       2.423   8.267  18.173  0.00  0.00    +0.000 A 
ATOM      6  C   UNL     1       3.228   7.282  17.572  0.00  0.00    +0.000 A 
ENDROOT
BRANCH   4   7
ATOM      7  C   UNL     1       1.183   9.087  20.213  0.00  0.00    +0.000 A 
ATOM      8  N   UNL     1       0.896  10.316  19.814  0.00  0.00    +0.000 NA
ATOM      9  C   UNL     1       0.143  10.826  20.831  0.00  0.00    +0.000 A 
ATOM     10  C   UNL     1      -0.462  12.079  20.969  0.00  0.00    +0.000 A 
ATOM     11  C   UNL     1      -1.165  12.331  22.151  0.00  0.00    +0.000 A 
ATOM     12 CL   UNL     1      -1.884  13.879  22.380  0.00  0.00    +0.000 Cl
ATOM     13  C   UNL     1      -1.287  11.359  23.153  0.00  0.00    +0.000 A 
ATOM     14  C   UNL     1      -0.704  10.088  23.014  0.00  0.00    +0.000 A 
ATOM     15  C   UNL     1       0.005   9.879  21.836  0.00  0.00    +0.000 A 
ATOM     16  O   UNL     1       0.675   8.752  21.444  0.00  0.00    +0.000 OA
ENDBRANCH   4   7
BRANCH   1  19
ATOM     17  O   UNL     1       6.451   5.933  18.585  0.00  0.00    +0.000 OA
ATOM     18  C   UNL     1       5.824   5.246  17.781  0.00  0.00    +0.000 C 
ATOM     19  N   UNL     1       4.442   5.194  17.648  0.00  0.00    +0.000 N 
ATOM     20  H   UNL     1       4.064   4.487  17.029  0.00  0.00    +0.000 HD
BRANCH  18  21
ATOM     21  C   UNL     1       6.577   4.396  16.759  0.00  0.00    +0.000 C 
BRANCH  21  22
ATOM     22  O   UNL     1       5.695   3.861  15.781  0.00  0.00    +0.000 OA
BRANCH  22  23
ATOM     23  C   UNL     1       6.127   3.955  14.483  0.00  0.00    +0.000 A 
ATOM     24  C   UNL     1       5.612   3.229  13.404  0.00  0.00    +0.000 A 
ATOM     25  C   UNL     1       6.143   3.393  12.122  0.00  0.00    +0.000 A 
ATOM     26  C   UNL     1       7.186   4.289  11.909  0.00  0.00    +0.000 A 
ATOM     27  C   UNL     1       7.680   5.035  12.977  0.00  0.00    +0.000 A 
ATOM     28 CL   UNL     1       8.962   6.151  12.710  0.00  0.00    +0.000 Cl
ATOM     29  C   UNL     1       7.148   4.880  14.258  0.00  0.00    +0.000 A 
ENDBRANCH  22  23
ENDBRANCH  21  22
ENDBRANCH  18  21
ENDBRANCH   1  19
TORSDOF 5
ENDMDL
MODEL 8
REMARK VINA RESULT:      -8.1      5.425      8.385
REMARK  Name = 
REMARK  5 active torsions:
REMARK  status: ('A' for Active; 'I' for Inactive)
REMARK    1  A    between atoms: C_2  and  C_3
REMARK    2  A    between atoms: C_3  and  O_4
REMARK    3  A    between atoms: O_4  and  C_5
REMARK    4  A    between atoms: N_12  and  C_13
REMARK    5  A    between atoms: C_16  and  C_17
REMARK                            x       y       z     vdW  Elec       q    Type
REMARK                         _______ _______ _______ _____ _____    ______ ____
ROOT
ATOM      1  C   UNL     1       3.623   6.400  18.364  0.00  0.00    +0.000 A 
ATOM      2  C   UNL     1       2.986   6.149  19.577  0.00  0.00    +0.000 A 
ATOM      3  C   UNL     1       2.071   7.065  20.101  0.00  0.00    +0.000 A 
ATOM      4  C   UNL     1       1.768   8.257  19.432  0.00  0.00    +0.000 A 
ATOM      5  C   UNL     1       2.344   8.474  18.176  0.00  0.00    +0.000 A 
ATOM      6  C   UNL     1       3.267   7.552  17.648  0.00  0.00    +0.000 A 
ENDROOT
BRANCH   4   7
ATOM      7  C   UNL     1       0.925   9.228  20.122  0.00  0.00    +0.000 A 
ATOM      8  N   UNL     1       0.259  10.232  19.572  0.00  0.00    +0.000 NA
ATOM      9  C   UNL     1      -0.446  10.768  20.611  0.00  0.00    +0.000 A 
ATOM     10  C   UNL     1      -1.341  11.841  20.638  0.00  0.00    +0.000 A 
ATOM     11  C   UNL     1      -1.904  12.182  21.871  0.00  0.00    +0.000 A 
ATOM     12 CL   UNL     1      -2.975  13.529  21.956  0.00  0.00    +0.000 Cl
ATOM     13  C   UNL     1      -1.609  11.462  23.036  0.00  0.00    +0.000 A 
ATOM     14  C   UNL     1      -0.731  10.366  23.016  0.00  0.00    +0.000 A 
ATOM     15  C   UNL     1      -0.172  10.068  21.777  0.00  0.00    +0.000 A 
ATOM     16  O   UNL     1       0.713   9.072  21.470  0.00  0.00    +0.000 OA
ENDBRANCH   4   7
BRANCH   1  19
ATOM     17  O   UNL     1       6.502   7.016  18.028  0.00  0.00    +0.000 OA
ATOM     18  C   UNL     1       5.976   5.979  17.631  0.00  0.00    +0.000 C 
ATOM     19  N   UNL     1       4.661   5.588  17.853  0.00  0.00    +0.000 N 
ATOM     20  H   UNL     1       4.405   4.649  17.574  0.00  0.00    +0.000 HD
BRANCH  18  21
ATOM     21  C   UNL     1       6.767   5.014  16.750  0.00  0.00    +0.000 C 
BRANCH  21  22
ATOM     22  O   UNL     1       5.925   4.362  15.809  0.00  0.00    +0.000 OA
BRANCH  22  23
ATOM     23  C   UNL     1       6.381   4.354  14.516  0.00  0.00    +0.000 A 
ATOM     24  C   UNL     1       7.365   5.203  13.999  0.00  0.00    +0.000 A 
ATOM     25  C   UNL     1       7.740   5.118  12.655  0.00  0.00    +0.000 A 
ATOM     26  C   UNL     1       7.140   4.178  11.823  0.00  0.00    +0.000 A 
ATOM     27  C   UNL     1       6.182   3.311  12.343  0.00  0.00    +0.000 A 
ATOM     28 CL   UNL     1       5.448   2.142  11.315  0.00  0.00    +0.000 Cl
ATOM     29  C   UNL     1       5.809   3.388  13.686  0.00  0.00    +0.000 A 
ENDBRANCH  22  23
ENDBRANCH  21  22
ENDBRANCH  18  21
ENDBRANCH   1  19
TORSDOF 5
ENDMDL
MODEL 9
REMARK VINA RESULT:      -8.0      5.742      8.235
REMARK  Name = 
REMARK  5 active torsions:
REMARK  status: ('A' for Active; 'I' for Inactive)
REMARK    1  A    between atoms: C_2  and  C_3
REMARK    2  A    between atoms: C_3  and  O_4
REMARK    3  A    between atoms: O_4  and  C_5
REMARK    4  A    between atoms: N_12  and  C_13
REMARK    5  A    between atoms: C_16  and  C_17
REMARK                            x       y       z     vdW  Elec       q    Type
REMARK                         _______ _______ _______ _____ _____    ______ ____
ROOT
ATOM      1  C   UNL     1       2.531   6.801  18.663  0.00  0.00    +0.000 A 
ATOM      2  C   UNL     1       2.208   7.992  18.017  0.00  0.00    +0.000 A 
ATOM      3  C   UNL     1       1.541   9.011  18.701  0.00  0.00    +0.000 A 
ATOM      4  C   UNL     1       1.175   8.870  20.045  0.00  0.00    +0.000 A 
ATOM      5  C   UNL     1       1.569   7.709  20.718  0.00  0.00    +0.000 A 
ATOM      6  C   UNL     1       2.239   6.681  20.030  0.00  0.00    +0.000 A 
ENDROOT
BRANCH   4   7
ATOM      7  C   UNL     1       0.345   9.914  20.636  0.00  0.00    +0.000 A 
ATOM      8  N   UNL     1      -0.263   9.874  21.812  0.00  0.00    +0.000 NA
ATOM      9  C   UNL     1      -0.814  11.115  21.941  0.00  0.00    +0.000 A 
ATOM     10  C   UNL     1      -1.563  11.668  22.984  0.00  0.00    +0.000 A 
ATOM     11  C   UNL     1      -2.022  12.979  22.827  0.00  0.00    +0.000 A 
ATOM     12 CL   UNL     1      -2.988  13.680  24.069  0.00  0.00    +0.000 Cl
ATOM     13  C   UNL     1      -1.722  13.728  21.681  0.00  0.00    +0.000 A 
ATOM     14  C   UNL     1      -0.950  13.191  20.638  0.00  0.00    +0.000 A 
ATOM     15  C   UNL     1      -0.528  11.878  20.818  0.00  0.00    +0.000 A 
ATOM     16  O   UNL     1       0.220  11.109  19.970  0.00  0.00    +0.000 OA
ENDBRANCH   4   7
BRANCH   1  19
ATOM     17  O   UNL     1       1.159   4.397  17.605  0.00  0.00    +0.000 OA
ATOM     18  C   UNL     1       2.380   4.538  17.611  0.00  0.00    +0.000 C 
ATOM     19  N   UNL     1       3.072   5.680  17.993  0.00  0.00    +0.000 N 
ATOM     20  H   UNL     1       4.071   5.693  17.824  0.00  0.00    +0.000 HD
BRANCH  18  21
ATOM     21  C   UNL     1       3.283   3.363  17.238  0.00  0.00    +0.000 C 
BRANCH  21  22
ATOM     22  O   UNL     1       4.611   3.564  17.701  0.00  0.00    +0.000 OA
BRANCH  22  23
ATOM     23  C   UNL     1       5.494   4.045  16.769  0.00  0.00    +0.000 A 
ATOM     24  C   UNL     1       6.560   4.913  17.035  0.00  0.00    +0.000 A 
ATOM     25  C   UNL     1       7.388   5.356  16.001  0.00  0.00    +0.000 A 
ATOM     26  C   UNL     1       7.163   4.929  14.697  0.00  0.00    +0.000 A 
ATOM     27  C   UNL     1       6.122   4.041  14.434  0.00  0.00    +0.000 A 
ATOM     28 CL   UNL     1       5.850   3.505  12.821  0.00  0.00    +0.000 Cl
ATOM     29  C   UNL     1       5.296   3.591  15.464  0.00  0.00    +0.000 A 
ENDBRANCH  22  23
ENDBRANCH  21  22
ENDBRANCH  18  21
ENDBRANCH   1  19
TORSDOF 5
ENDMDL
