MODEL 1
REMARK VINA RESULT:      -9.0      0.000      0.000
REMARK  Name = 
REMARK  5 active torsions:
REMARK  status: ('A' for Active; 'I' for Inactive)
REMARK    1  A    between atoms: C_1  and  C_2
REMARK    2  A    between atoms: C_4  and  C_5
REMARK    3  A    between atoms: C_5  and  N_6
REMARK    4  A    between atoms: C_17  and  N_18
REMARK    5  A    between atoms: N_20  and  C_21
REMARK                            x       y       z     vdW  Elec       q    Type
REMARK                         _______ _______ _______ _____ _____    ______ ____
ROOT
ATOM      1  N   UNL     1      -0.173  10.866  19.835  0.00  0.00    +0.000 N 
ATOM      2  C   UNL     1       0.690  10.207  18.970  0.00  0.00    +0.000 C 
ATOM      3  O   UNL     1       0.935  10.598  17.833  0.00  0.00    +0.000 OA
ATOM      4  C   UNL     1       1.252   9.013  19.522  0.00  0.00    +0.000 A 
ATOM      5  C   UNL     1       1.073   8.580  20.804  0.00  0.00    +0.000 A 
ATOM      6  N   UNL     1       1.715   7.383  21.007  0.00  0.00    +0.000 NA
ATOM      7  C   UNL     1       2.329   7.090  19.859  0.00  0.00    +0.000 A 
ATOM      8  N   UNL     1       3.088   5.995  19.547  0.00  0.00    +0.000 N 
ATOM      9  C   UNL     1       4.285   6.044  18.708  0.00  0.00    +0.000 C 
ATOM     10  C   UNL     1       4.144   4.997  17.596  0.00  0.00    +0.000 C 
ATOM     11  C   UNL     1       3.922   3.602  18.172  0.00  0.00    +0.000 C 
ATOM     12  C   UNL     1       2.773   3.583  19.203  0.00  0.00    +0.000 C 
ATOM     13  C   UNL     1       2.936   4.720  20.263  0.00  0.00    +0.000 C 
ATOM     14  N   UNL     1       2.015   8.057  18.913  0.00  0.00    +0.000 N 
ATOM     15  C   UNL     1       2.257   8.085  17.493  0.00  0.00    +0.000 C 
ATOM     16  N   UNL     1       0.306   9.323  21.622  0.00  0.00    +0.000 N 
ATOM     17  C   UNL     1       0.014   9.144  23.012  0.00  0.00    +0.000 C 
ATOM     18  C   UNL     1      -0.896  10.369  23.276  0.00  0.00    +0.000 C 
ATOM     19  N   UNL     1      -1.071  11.103  21.988  0.00  0.00    +0.000 NA
ATOM     20  C   UNL     1      -0.318  10.447  21.144  0.00  0.00    +0.000 C 
ENDROOT
BRANCH  12  21
ATOM     21  N   UNL     1       2.690   2.235  19.782  0.00  0.00    +0.000 NA
ATOM     22  H   UNL     1       3.566   1.736  19.625  0.00  0.00    +0.000 HD
ATOM     23  H   UNL     1       1.980   1.702  19.277  0.00  0.00    +0.000 HD
ENDBRANCH  12  21
BRANCH   1  24
ATOM     24  C   UNL     1      -0.778  12.109  19.374  0.00  0.00    +0.000 C 
BRANCH  24  28
ATOM     25  C   UNL     1      -3.796  10.921  15.743  0.00  0.00    +0.000 C 
ATOM     26  C   UNL     1      -3.651  11.417  17.153  0.00  0.00    +0.000 A 
ATOM     27  N   UNL     1      -2.387  11.458  17.618  0.00  0.00    +0.000 NA
ATOM     28  C   UNL     1      -2.197  11.949  18.857  0.00  0.00    +0.000 A 
ATOM     29  N   UNL     1      -3.193  12.350  19.672  0.00  0.00    +0.000 NA
ATOM     30  C   UNL     1      -4.445  12.291  19.200  0.00  0.00    +0.000 A 
ATOM     31  C   UNL     1      -5.488  12.720  20.014  0.00  0.00    +0.000 A 
ATOM     32  C   UNL     1      -6.817  12.714  19.578  0.00  0.00    +0.000 A 
ATOM     33  C   UNL     1      -7.122  12.268  18.301  0.00  0.00    +0.000 A 
ATOM     34  C   UNL     1      -6.097  11.825  17.469  0.00  0.00    +0.000 A 
ATOM     35  C   UNL     1      -4.750  11.832  17.912  0.00  0.00    +0.000 A 
ENDBRANCH  24  28
ENDBRANCH   1  24
TORSDOF 3
ENDMDL
MODEL 2
REMARK VINA RESULT:      -8.4      3.314      5.460
REMARK  Name = 
REMARK  5 active torsions:
REMARK  status: ('A' for Active; 'I' for Inactive)
REMARK    1  A    between atoms: C_1  and  C_2
REMARK    2  A    between atoms: C_4  and  C_5
REMARK    3  A    between atoms: C_5  and  N_6
REMARK    4  A    between atoms: C_17  and  N_18
REMARK    5  A    between atoms: N_20  and  C_21
REMARK                            x       y       z     vdW  Elec       q    Type
REMARK                         _______ _______ _______ _____ _____    ______ ____
ROOT
ATOM      1  N   UNL     1       0.521  11.356  19.898  0.00  0.00    +0.000 N 
ATOM      2  C   UNL     1       1.350  10.557  19.121  0.00  0.00    +0.000 C 
ATOM      3  O   UNL     1       1.893  10.947  18.093  0.00  0.00    +0.000 OA
ATOM      4  C   UNL     1       1.493   9.225  19.621  0.00  0.00    +0.000 A 
ATOM      5  C   UNL     1       0.973   8.768  20.797  0.00  0.00    +0.000 A 
ATOM      6  N   UNL     1       1.259   7.435  20.969  0.00  0.00    +0.000 NA
ATOM      7  C   UNL     1       1.992   7.072  19.916  0.00  0.00    +0.000 A 
ATOM      8  N   UNL     1       2.511   5.842  19.614  0.00  0.00    +0.000 N 
ATOM      9  C   UNL     1       3.823   5.638  18.999  0.00  0.00    +0.000 C 
ATOM     10  C   UNL     1       3.650   4.740  17.768  0.00  0.00    +0.000 C 
ATOM     11  C   UNL     1       2.993   3.413  18.137  0.00  0.00    +0.000 C 
ATOM     12  C   UNL     1       1.698   3.620  18.951  0.00  0.00    +0.000 C 
ATOM     13  C   UNL     1       1.923   4.604  20.145  0.00  0.00    +0.000 C 
ATOM     14  N   UNL     1       2.106   8.148  19.046  0.00  0.00    +0.000 N 
ATOM     15  C   UNL     1       2.614   8.208  17.698  0.00  0.00    +0.000 C 
ATOM     16  N   UNL     1       0.266   9.625  21.554  0.00  0.00    +0.000 N 
ATOM     17  C   UNL     1      -0.320   9.434  22.846  0.00  0.00    +0.000 C 
ATOM     18  C   UNL     1      -0.942  10.832  23.090  0.00  0.00    +0.000 C 
ATOM     19  N   UNL     1      -0.687  11.671  21.882  0.00  0.00    +0.000 NA
ATOM     20  C   UNL     1       0.033  10.902  21.107  0.00  0.00    +0.000 C 
ENDROOT
BRANCH  12  21
ATOM     21  N   UNL     1       1.185   2.303  19.353  0.00  0.00    +0.000 NA
ATOM     22  H   UNL     1       0.392   2.046  18.764  0.00  0.00    +0.000 HD
ATOM     23  H   UNL     1       0.811   2.370  20.300  0.00  0.00    +0.000 HD
ENDBRANCH  12  21
BRANCH   1  24
ATOM     24  C   UNL     1       0.331  12.741  19.484  0.00  0.00    +0.000 C 
BRANCH  24  28
ATOM     25  C   UNL     1       3.497  15.720  17.293  0.00  0.00    +0.000 C 
ATOM     26  C   UNL     1       3.121  14.975  18.541  0.00  0.00    +0.000 A 
ATOM     27  N   UNL     1       1.949  14.313  18.481  0.00  0.00    +0.000 NA
ATOM     28  C   UNL     1       1.592  13.583  19.555  0.00  0.00    +0.000 A 
ATOM     29  N   UNL     1       2.309  13.516  20.695  0.00  0.00    +0.000 NA
ATOM     30  C   UNL     1       3.466  14.189  20.743  0.00  0.00    +0.000 A 
ATOM     31  C   UNL     1       4.234  14.118  21.900  0.00  0.00    +0.000 A 
ATOM     32  C   UNL     1       5.466  14.770  22.013  0.00  0.00    +0.000 A 
ATOM     33  C   UNL     1       5.950  15.518  20.949  0.00  0.00    +0.000 A 
ATOM     34  C   UNL     1       5.196  15.612  19.782  0.00  0.00    +0.000 A 
ATOM     35  C   UNL     1       3.948  14.949  19.670  0.00  0.00    +0.000 A 
ENDBRANCH  24  28
ENDBRANCH   1  24
TORSDOF 3
ENDMDL
MODEL 3
REMARK VINA RESULT:      -8.4      0.807      1.774
REMARK  Name = 
REMARK  5 active torsions:
REMARK  status: ('A' for Active; 'I' for Inactive)
REMARK    1  A    between atoms: C_1  and  C_2
REMARK    2  A    between atoms: C_4  and  C_5
REMARK    3  A    between atoms: C_5  and  N_6
REMARK    4  A    between atoms: C_17  and  N_18
REMARK    5  A    between atoms: N_20  and  C_21
REMARK                            x       y       z     vdW  Elec       q    Type
REMARK                         _______ _______ _______ _____ _____    ______ ____
ROOT
ATOM      1  N   UNL     1       0.056  11.094  19.996  0.00  0.00    +0.000 N 
ATOM      2  C   UNL     1       0.904  10.431  19.119  0.00  0.00    +0.000 C 
ATOM      3  O   UNL     1       1.249  10.891  18.036  0.00  0.00    +0.000 OA
ATOM      4  C   UNL     1       1.320   9.145  19.588  0.00  0.00    +0.000 A 
ATOM      5  C   UNL     1       1.027   8.624  20.815  0.00  0.00    +0.000 A 
ATOM      6  N   UNL     1       1.543   7.358  20.941  0.00  0.00    +0.000 NA
ATOM      7  C   UNL     1       2.194   7.105  19.804  0.00  0.00    +0.000 A 
ATOM      8  N   UNL     1       2.866   5.972  19.432  0.00  0.00    +0.000 N 
ATOM      9  C   UNL     1       4.110   5.977  18.663  0.00  0.00    +0.000 C 
ATOM     10  C   UNL     1       3.938   5.048  17.454  0.00  0.00    +0.000 C 
ATOM     11  C   UNL     1       3.555   3.636  17.890  0.00  0.00    +0.000 C 
ATOM     12  C   UNL     1       2.350   3.640  18.856  0.00  0.00    +0.000 C 
ATOM     13  C   UNL     1       2.555   4.662  20.021  0.00  0.00    +0.000 C 
ATOM     14  N   UNL     1       2.026   8.175  18.935  0.00  0.00    +0.000 N 
ATOM     15  C   UNL     1       2.353   8.301  17.536  0.00  0.00    +0.000 C 
ATOM     16  N   UNL     1       0.286   9.365  21.658  0.00  0.00    +0.000 N 
ATOM     17  C   UNL     1      -0.103   9.097  23.009  0.00  0.00    +0.000 C 
ATOM     18  C   UNL     1      -0.910  10.378  23.337  0.00  0.00    +0.000 C 
ATOM     19  N   UNL     1      -0.941  11.233  22.113  0.00  0.00    +0.000 NA
ATOM     20  C   UNL     1      -0.204  10.581  21.252  0.00  0.00    +0.000 C 
ENDROOT
BRANCH  12  21
ATOM     21  N   UNL     1       2.110   2.262  19.305  0.00  0.00    +0.000 NA
ATOM     22  H   UNL     1       2.997   1.762  19.377  0.00  0.00    +0.000 HD
ATOM     23  H   UNL     1       1.577   1.770  18.588  0.00  0.00    +0.000 HD
ENDBRANCH  12  21
BRANCH   1  24
ATOM     24  C   UNL     1      -0.405  12.425  19.619  0.00  0.00    +0.000 C 
BRANCH  24  28
ATOM     25  C   UNL     1      -4.387  14.487  21.514  0.00  0.00    +0.000 C 
ATOM     26  C   UNL     1      -3.820  13.519  20.517  0.00  0.00    +0.000 A 
ATOM     27  N   UNL     1      -2.474  13.472  20.465  0.00  0.00    +0.000 NA
ATOM     28  C   UNL     1      -1.915  12.579  19.627  0.00  0.00    +0.000 A 
ATOM     29  N   UNL     1      -2.616  11.770  18.807  0.00  0.00    +0.000 NA
ATOM     30  C   UNL     1      -3.952  11.837  18.862  0.00  0.00    +0.000 A 
ATOM     31  C   UNL     1      -4.698  10.998  18.041  0.00  0.00    +0.000 A 
ATOM     32  C   UNL     1      -6.096  10.991  18.064  0.00  0.00    +0.000 A 
ATOM     33  C   UNL     1      -6.776  11.843  18.922  0.00  0.00    +0.000 A 
ATOM     34  C   UNL     1      -6.053  12.701  19.748  0.00  0.00    +0.000 A 
ATOM     35  C   UNL     1      -4.635  12.705  19.724  0.00  0.00    +0.000 A 
ENDBRANCH  24  28
ENDBRANCH   1  24
TORSDOF 3
ENDMDL
MODEL 4
REMARK VINA RESULT:      -8.1      3.242      5.457
REMARK  Name = 
REMARK  5 active torsions:
REMARK  status: ('A' for Active; 'I' for Inactive)
REMARK    1  A    between atoms: C_1  and  C_2
REMARK    2  A    between atoms: C_4  and  C_5
REMARK    3  A    between atoms: C_5  and  N_6
REMARK    4  A    between atoms: C_17  and  N_18
REMARK    5  A    between atoms: N_20  and  C_21
REMARK                            x       y       z     vdW  Elec       q    Type
REMARK                         _______ _______ _______ _____ _____    ______ ____
ROOT
ATOM      1  N   UNL     1       0.773  10.807  19.405  0.00  0.00    +0.000 N 
ATOM      2  C   UNL     1       1.637  10.004  18.671  0.00  0.00    +0.000 C 
ATOM      3  O   UNL     1       2.172  10.365  17.628  0.00  0.00    +0.000 OA
ATOM      4  C   UNL     1       1.828   8.704  19.236  0.00  0.00    +0.000 A 
ATOM      5  C   UNL     1       1.319   8.284  20.430  0.00  0.00    +0.000 A 
ATOM      6  N   UNL     1       1.654   6.973  20.668  0.00  0.00    +0.000 NA
ATOM      7  C   UNL     1       2.407   6.588  19.637  0.00  0.00    +0.000 A 
ATOM      8  N   UNL     1       2.976   5.366  19.397  0.00  0.00    +0.000 N 
ATOM      9  C   UNL     1       4.298   5.184  18.799  0.00  0.00    +0.000 C 
ATOM     10  C   UNL     1       4.168   4.222  17.611  0.00  0.00    +0.000 C 
ATOM     11  C   UNL     1       3.560   2.889  18.042  0.00  0.00    +0.000 C 
ATOM     12  C   UNL     1       2.253   3.086  18.839  0.00  0.00    +0.000 C 
ATOM     13  C   UNL     1       2.433   4.133  19.985  0.00  0.00    +0.000 C 
ATOM     14  N   UNL     1       2.485   7.625  18.716  0.00  0.00    +0.000 N 
ATOM     15  C   UNL     1       3.000   7.640  17.370  0.00  0.00    +0.000 C 
ATOM     16  N   UNL     1       0.574   9.149  21.142  0.00  0.00    +0.000 N 
ATOM     17  C   UNL     1      -0.013   8.998  22.438  0.00  0.00    +0.000 C 
ATOM     18  C   UNL     1      -0.690  10.380  22.612  0.00  0.00    +0.000 C 
ATOM     19  N   UNL     1      -0.459  11.170  21.365  0.00  0.00    +0.000 NA
ATOM     20  C   UNL     1       0.295  10.392  20.633  0.00  0.00    +0.000 C 
ENDROOT
BRANCH  12  21
ATOM     21  N   UNL     1       1.788   1.770  19.301  0.00  0.00    +0.000 NA
ATOM     22  H   UNL     1       2.562   1.105  19.286  0.00  0.00    +0.000 HD
ATOM     23  H   UNL     1       1.106   1.409  18.633  0.00  0.00    +0.000 HD
ENDBRANCH  12  21
BRANCH   1  24
ATOM     24  C   UNL     1       0.533  12.162  18.924  0.00  0.00    +0.000 C 
BRANCH  24  28
ATOM     25  C   UNL     1       1.990  15.530  22.123  0.00  0.00    +0.000 C 
ATOM     26  C   UNL     1       2.284  14.783  20.854  0.00  0.00    +0.000 A 
ATOM     27  N   UNL     1       1.389  13.829  20.531  0.00  0.00    +0.000 NA
ATOM     28  C   UNL     1       1.577  13.168  19.372  0.00  0.00    +0.000 A 
ATOM     29  N   UNL     1       2.626  13.369  18.549  0.00  0.00    +0.000 NA
ATOM     30  C   UNL     1       3.513  14.312  18.891  0.00  0.00    +0.000 A 
ATOM     31  C   UNL     1       4.592  14.553  18.047  0.00  0.00    +0.000 A 
ATOM     32  C   UNL     1       5.542  15.541  18.323  0.00  0.00    +0.000 A 
ATOM     33  C   UNL     1       5.422  16.311  19.472  0.00  0.00    +0.000 A 
ATOM     34  C   UNL     1       4.356  16.084  20.338  0.00  0.00    +0.000 A 
ATOM     35  C   UNL     1       3.393  15.082  20.055  0.00  0.00    +0.000 A 
ENDBRANCH  24  28
ENDBRANCH   1  24
TORSDOF 3
ENDMDL
MODEL 5
REMARK VINA RESULT:      -8.1      3.514      5.700
REMARK  Name = 
REMARK  5 active torsions:
REMARK  status: ('A' for Active; 'I' for Inactive)
REMARK    1  A    between atoms: C_1  and  C_2
REMARK    2  A    between atoms: C_4  and  C_5
REMARK    3  A    between atoms: C_5  and  N_6
REMARK    4  A    between atoms: C_17  and  N_18
REMARK    5  A    between atoms: N_20  and  C_21
REMARK                            x       y       z     vdW  Elec       q    Type
REMARK                         _______ _______ _______ _____ _____    ______ ____
ROOT
ATOM      1  N   UNL     1       0.710  11.611  19.194  0.00  0.00    +0.000 N 
ATOM      2  C   UNL     1       1.489  10.624  18.607  0.00  0.00    +0.000 C 
ATOM      3  O   UNL     1       2.067  10.768  17.535  0.00  0.00    +0.000 OA
ATOM      4  C   UNL     1       1.537   9.409  19.361  0.00  0.00    +0.000 A 
ATOM      5  C   UNL     1       0.977   9.227  20.592  0.00  0.00    +0.000 A 
ATOM      6  N   UNL     1       1.169   7.938  21.028  0.00  0.00    +0.000 NA
ATOM      7  C   UNL     1       1.885   7.328  20.082  0.00  0.00    +0.000 A 
ATOM      8  N   UNL     1       2.322   6.032  20.038  0.00  0.00    +0.000 N 
ATOM      9  C   UNL     1       3.622   5.626  19.504  0.00  0.00    +0.000 C 
ATOM     10  C   UNL     1       3.400   4.517  18.469  0.00  0.00    +0.000 C 
ATOM     11  C   UNL     1       2.651   3.333  19.076  0.00  0.00    +0.000 C 
ATOM     12  C   UNL     1       1.366   3.781  19.805  0.00  0.00    +0.000 C 
ATOM     13  C   UNL     1       1.647   4.963  20.788  0.00  0.00    +0.000 C 
ATOM     14  N   UNL     1       2.080   8.203  19.021  0.00  0.00    +0.000 N 
ATOM     15  C   UNL     1       2.604   7.964  17.700  0.00  0.00    +0.000 C 
ATOM     16  N   UNL     1       0.322  10.260  21.151  0.00  0.00    +0.000 N 
ATOM     17  C   UNL     1      -0.287  10.366  22.442  0.00  0.00    +0.000 C 
ATOM     18  C   UNL     1      -0.815  11.821  22.394  0.00  0.00    +0.000 C 
ATOM     19  N   UNL     1      -0.492  12.388  21.051  0.00  0.00    +0.000 NA
ATOM     20  C   UNL     1       0.180  11.436  20.458  0.00  0.00    +0.000 C 
ENDROOT
BRANCH  12  21
ATOM     21  N   UNL     1       0.761   2.604  20.445  0.00  0.00    +0.000 NA
ATOM     22  H   UNL     1       1.490   1.939  20.706  0.00  0.00    +0.000 HD
ATOM     23  H   UNL     1       0.182   2.117  19.759  0.00  0.00    +0.000 HD
ENDBRANCH  12  21
BRANCH   1  24
ATOM     24  C   UNL     1       0.618  12.897  18.514  0.00  0.00    +0.000 C 
BRANCH  24  28
ATOM     25  C   UNL     1       1.897  16.843  21.062  0.00  0.00    +0.000 C 
ATOM     26  C   UNL     1       2.320  15.769  20.103  0.00  0.00    +0.000 A 
ATOM     27  N   UNL     1       1.378  14.845  19.827  0.00  0.00    +0.000 NA
ATOM     28  C   UNL     1       1.688  13.891  18.929  0.00  0.00    +0.000 A 
ATOM     29  N   UNL     1       2.892  13.778  18.332  0.00  0.00    +0.000 NA
ATOM     30  C   UNL     1       3.821  14.696  18.627  0.00  0.00    +0.000 A 
ATOM     31  C   UNL     1       5.064  14.613  18.008  0.00  0.00    +0.000 A 
ATOM     32  C   UNL     1       6.073  15.552  18.244  0.00  0.00    +0.000 A 
ATOM     33  C   UNL     1       5.846  16.602  19.122  0.00  0.00    +0.000 A 
ATOM     34  C   UNL     1       4.613  16.703  19.761  0.00  0.00    +0.000 A 
ATOM     35  C   UNL     1       3.591  15.750  19.519  0.00  0.00    +0.000 A 
ENDBRANCH  24  28
ENDBRANCH   1  24
TORSDOF 3
ENDMDL
MODEL 6
REMARK VINA RESULT:      -8.0      2.355      9.215
REMARK  Name = 
REMARK  5 active torsions:
REMARK  status: ('A' for Active; 'I' for Inactive)
REMARK    1  A    between atoms: C_1  and  C_2
REMARK    2  A    between atoms: C_4  and  C_5
REMARK    3  A    between atoms: C_5  and  N_6
REMARK    4  A    between atoms: C_17  and  N_18
REMARK    5  A    between atoms: N_20  and  C_21
REMARK                            x       y       z     vdW  Elec       q    Type
REMARK                         _______ _______ _______ _____ _____    ______ ____
ROOT
ATOM      1  N   UNL     1      -0.661  11.373  18.530  0.00  0.00    +0.000 N 
ATOM      2  C   UNL     1      -0.876  12.274  19.564  0.00  0.00    +0.000 C 
ATOM      3  O   UNL     1       0.030  12.824  20.180  0.00  0.00    +0.000 OA
ATOM      4  C   UNL     1      -2.260  12.483  19.862  0.00  0.00    +0.000 A 
ATOM      5  C   UNL     1      -3.303  11.956  19.157  0.00  0.00    +0.000 A 
ATOM      6  N   UNL     1      -4.502  12.317  19.721  0.00  0.00    +0.000 NA
ATOM      7  C   UNL     1      -4.205  13.105  20.756  0.00  0.00    +0.000 A 
ATOM      8  N   UNL     1      -5.052  13.709  21.646  0.00  0.00    +0.000 N 
ATOM      9  C   UNL     1      -4.841  15.049  22.192  0.00  0.00    +0.000 C 
ATOM     10  C   UNL     1      -4.926  14.972  23.721  0.00  0.00    +0.000 C 
ATOM     11  C   UNL     1      -6.262  14.387  24.173  0.00  0.00    +0.000 C 
ATOM     12  C   UNL     1      -6.577  13.056  23.458  0.00  0.00    +0.000 C 
ATOM     13  C   UNL     1      -6.399  13.182  21.910  0.00  0.00    +0.000 C 
ATOM     14  N   UNL     1      -2.825  13.179  20.892  0.00  0.00    +0.000 N 
ATOM     15  C   UNL     1      -2.021  13.726  21.956  0.00  0.00    +0.000 C 
ATOM     16  N   UNL     1      -3.023  11.173  18.100  0.00  0.00    +0.000 N 
ATOM     17  C   UNL     1      -3.909  10.559  17.158  0.00  0.00    +0.000 C 
ATOM     18  C   UNL     1      -2.894   9.843  16.231  0.00  0.00    +0.000 C 
ATOM     19  N   UNL     1      -1.522  10.085  16.771  0.00  0.00    +0.000 NA
ATOM     20  C   UNL     1      -1.719  10.875  17.794  0.00  0.00    +0.000 C 
ENDROOT
BRANCH  12  21
ATOM     21  N   UNL     1      -7.917  12.614  23.869  0.00  0.00    +0.000 NA
ATOM     22  H   UNL     1      -7.860  11.688  24.295  0.00  0.00    +0.000 HD
ATOM     23  H   UNL     1      -8.495  12.495  23.036  0.00  0.00    +0.000 HD
ENDBRANCH  12  21
BRANCH   1  24
ATOM     24  C   UNL     1       0.718  11.111  18.134  0.00  0.00    +0.000 C 
BRANCH  24  28
ATOM     25  C   UNL     1       1.031   7.637  21.530  0.00  0.00    +0.000 C 
ATOM     26  C   UNL     1       1.420   8.096  20.155  0.00  0.00    +0.000 A 
ATOM     27  N   UNL     1       0.872   9.264  19.765  0.00  0.00    +0.000 NA
ATOM     28  C   UNL     1       1.232   9.748  18.562  0.00  0.00    +0.000 A 
ATOM     29  N   UNL     1       2.065   9.115  17.710  0.00  0.00    +0.000 NA
ATOM     30  C   UNL     1       2.591   7.950  18.108  0.00  0.00    +0.000 A 
ATOM     31  C   UNL     1       3.469   7.287  17.256  0.00  0.00    +0.000 A 
ATOM     32  C   UNL     1       4.080   6.082  17.615  0.00  0.00    +0.000 A 
ATOM     33  C   UNL     1       3.811   5.513  18.851  0.00  0.00    +0.000 A 
ATOM     34  C   UNL     1       2.929   6.152  19.719  0.00  0.00    +0.000 A 
ATOM     35  C   UNL     1       2.311   7.375  19.354  0.00  0.00    +0.000 A 
ENDBRANCH  24  28
ENDBRANCH   1  24
TORSDOF 3
ENDMDL
MODEL 7
REMARK VINA RESULT:      -7.6      3.020      4.844
REMARK  Name = 
REMARK  5 active torsions:
REMARK  status: ('A' for Active; 'I' for Inactive)
REMARK    1  A    between atoms: C_1  and  C_2
REMARK    2  A    between atoms: C_4  and  C_5
REMARK    3  A    between atoms: C_5  and  N_6
REMARK    4  A    between atoms: C_17  and  N_18
REMARK    5  A    between atoms: N_20  and  C_21
REMARK                            x       y       z     vdW  Elec       q    Type
REMARK                         _______ _______ _______ _____ _____    ______ ____
ROOT
ATOM      1  N   UNL     1       0.085  11.345  19.765  0.00  0.00    +0.000 N 
ATOM      2  C   UNL     1       0.954  10.550  19.030  0.00  0.00    +0.000 C 
ATOM      3  O   UNL     1       1.418  10.881  17.944  0.00  0.00    +0.000 OA
ATOM      4  C   UNL     1       1.242   9.293  19.649  0.00  0.00    +0.000 A 
ATOM      5  C   UNL     1       0.814   8.912  20.888  0.00  0.00    +0.000 A 
ATOM      6  N   UNL     1       1.230   7.635  21.174  0.00  0.00    +0.000 NA
ATOM      7  C   UNL     1       1.952   7.234  20.127  0.00  0.00    +0.000 A 
ATOM      8  N   UNL     1       2.573   6.032  19.920  0.00  0.00    +0.000 N 
ATOM      9  C   UNL     1       3.873   5.886  19.266  0.00  0.00    +0.000 C 
ATOM     10  C   UNL     1       3.737   4.856  18.137  0.00  0.00    +0.000 C 
ATOM     11  C   UNL     1       3.224   3.519  18.665  0.00  0.00    +0.000 C 
ATOM     12  C   UNL     1       1.947   3.691  19.517  0.00  0.00    +0.000 C 
ATOM     13  C   UNL     1       2.125   4.806  20.597  0.00  0.00    +0.000 C 
ATOM     14  N   UNL     1       1.930   8.223  19.152  0.00  0.00    +0.000 N 
ATOM     15  C   UNL     1       2.378   8.193  17.782  0.00  0.00    +0.000 C 
ATOM     16  N   UNL     1       0.059   9.774  21.591  0.00  0.00    +0.000 N 
ATOM     17  C   UNL     1      -0.456   9.663  22.922  0.00  0.00    +0.000 C 
ATOM     18  C   UNL     1      -1.197  11.016  23.060  0.00  0.00    +0.000 C 
ATOM     19  N   UNL     1      -1.069  11.749  21.765  0.00  0.00    +0.000 NA
ATOM     20  C   UNL     1      -0.311  10.973  21.035  0.00  0.00    +0.000 C 
ENDROOT
BRANCH  12  21
ATOM     21  N   UNL     1       1.577   2.380  20.068  0.00  0.00    +0.000 NA
ATOM     22  H   UNL     1       0.686   2.077  19.672  0.00  0.00    +0.000 HD
ATOM     23  H   UNL     1       1.410   2.479  21.070  0.00  0.00    +0.000 HD
ENDBRANCH  12  21
BRANCH   1  24
ATOM     24  C   UNL     1      -0.251  12.659  19.229  0.00  0.00    +0.000 C 
BRANCH  24  28
ATOM     25  C   UNL     1       3.873  13.982  21.452  0.00  0.00    +0.000 C 
ATOM     26  C   UNL     1       2.649  14.418  20.701  0.00  0.00    +0.000 A 
ATOM     27  N   UNL     1       1.857  13.417  20.267  0.00  0.00    +0.000 NA
ATOM     28  C   UNL     1       0.716  13.755  19.637  0.00  0.00    +0.000 A 
ATOM     29  N   UNL     1       0.348  15.025  19.372  0.00  0.00    +0.000 NA
ATOM     30  C   UNL     1       1.151  16.008  19.798  0.00  0.00    +0.000 A 
ATOM     31  C   UNL     1       0.782  17.326  19.555  0.00  0.00    +0.000 A 
ATOM     32  C   UNL     1       1.556  18.405  19.995  0.00  0.00    +0.000 A 
ATOM     33  C   UNL     1       2.732  18.171  20.693  0.00  0.00    +0.000 A 
ATOM     34  C   UNL     1       3.129  16.859  20.941  0.00  0.00    +0.000 A 
ATOM     35  C   UNL     1       2.342  15.767  20.495  0.00  0.00    +0.000 A 
ENDBRANCH  24  28
ENDBRANCH   1  24
TORSDOF 3
ENDMDL
MODEL 8
REMARK VINA RESULT:      -7.6      3.085      4.750
REMARK  Name = 
REMARK  5 active torsions:
REMARK  status: ('A' for Active; 'I' for Inactive)
REMARK    1  A    between atoms: C_1  and  C_2
REMARK    2  A    between atoms: C_4  and  C_5
REMARK    3  A    between atoms: C_5  and  N_6
REMARK    4  A    between atoms: C_17  and  N_18
REMARK    5  A    between atoms: N_20  and  C_21
REMARK                            x       y       z     vdW  Elec       q    Type
REMARK                         _______ _______ _______ _____ _____    ______ ____
ROOT
ATOM      1  N   UNL     1       0.397  11.145  19.870  0.00  0.00    +0.000 N 
ATOM      2  C   UNL     1       1.269  10.377  19.110  0.00  0.00    +0.000 C 
ATOM      3  O   UNL     1       1.784  10.771  18.069  0.00  0.00    +0.000 OA
ATOM      4  C   UNL     1       1.493   9.069  19.645  0.00  0.00    +0.000 A 
ATOM      5  C   UNL     1       1.006   8.614  20.835  0.00  0.00    +0.000 A 
ATOM      6  N   UNL     1       1.371   7.305  21.041  0.00  0.00    +0.000 NA
ATOM      7  C   UNL     1       2.121   6.958  19.994  0.00  0.00    +0.000 A 
ATOM      8  N   UNL     1       2.711   5.754  19.721  0.00  0.00    +0.000 N 
ATOM      9  C   UNL     1       4.030   5.612  19.105  0.00  0.00    +0.000 C 
ATOM     10  C   UNL     1       3.906   4.672  17.899  0.00  0.00    +0.000 C 
ATOM     11  C   UNL     1       3.331   3.319  18.308  0.00  0.00    +0.000 C 
ATOM     12  C   UNL     1       2.029   3.471  19.123  0.00  0.00    +0.000 C 
ATOM     13  C   UNL     1       2.200   4.497  20.289  0.00  0.00    +0.000 C 
ATOM     14  N   UNL     1       2.167   8.016  19.095  0.00  0.00    +0.000 N 
ATOM     15  C   UNL     1       2.666   8.070  17.743  0.00  0.00    +0.000 C 
ATOM     16  N   UNL     1       0.252   9.448  21.573  0.00  0.00    +0.000 N 
ATOM     17  C   UNL     1      -0.317   9.257  22.873  0.00  0.00    +0.000 C 
ATOM     18  C   UNL     1      -1.020  10.621  23.083  0.00  0.00    +0.000 C 
ATOM     19  N   UNL     1      -0.820  11.441  21.851  0.00  0.00    +0.000 NA
ATOM     20  C   UNL     1      -0.059  10.695  21.094  0.00  0.00    +0.000 C 
ENDROOT
BRANCH  12  21
ATOM     21  N   UNL     1       1.597   2.136  19.562  0.00  0.00    +0.000 NA
ATOM     22  H   UNL     1       0.638   1.965  19.258  0.00  0.00    +0.000 HD
ATOM     23  H   UNL     1       1.566   2.119  20.582  0.00  0.00    +0.000 HD
ENDBRANCH  12  21
BRANCH   1  24
ATOM     24  C   UNL     1       0.124  12.505  19.421  0.00  0.00    +0.000 C 
BRANCH  24  28
ATOM     25  C   UNL     1       4.174  14.180  21.539  0.00  0.00    +0.000 C 
ATOM     26  C   UNL     1       2.710  14.385  21.276  0.00  0.00    +0.000 A 
ATOM     27  N   UNL     1       2.141  13.471  20.465  0.00  0.00    +0.000 NA
ATOM     28  C   UNL     1       0.818  13.576  20.243  0.00  0.00    +0.000 A 
ATOM     29  N   UNL     1       0.044  14.563  20.739  0.00  0.00    +0.000 NA
ATOM     30  C   UNL     1       0.627  15.470  21.532  0.00  0.00    +0.000 A 
ATOM     31  C   UNL     1      -0.154  16.486  22.074  0.00  0.00    +0.000 A 
ATOM     32  C   UNL     1       0.378  17.451  22.934  0.00  0.00    +0.000 A 
ATOM     33  C   UNL     1       1.725  17.412  23.265  0.00  0.00    +0.000 A 
ATOM     34  C   UNL     1       2.531  16.411  22.729  0.00  0.00    +0.000 A 
ATOM     35  C   UNL     1       1.989  15.432  21.858  0.00  0.00    +0.000 A 
ENDBRANCH  24  28
ENDBRANCH   1  24
TORSDOF 3
ENDMDL
MODEL 9
REMARK VINA RESULT:      -7.6      3.151      5.255
REMARK  Name = 
REMARK  5 active torsions:
REMARK  status: ('A' for Active; 'I' for Inactive)
REMARK    1  A    between atoms: C_1  and  C_2
REMARK    2  A    between atoms: C_4  and  C_5
REMARK    3  A    between atoms: C_5  and  N_6
REMARK    4  A    between atoms: C_17  and  N_18
REMARK    5  A    between atoms: N_20  and  C_21
REMARK                            x       y       z     vdW  Elec       q    Type
REMARK                         _______ _______ _______ _____ _____    ______ ____
ROOT
ATOM      1  N   UNL     1       0.374  11.279  19.976  0.00  0.00    +0.000 N 
ATOM      2  C   UNL     1       1.233  10.527  19.186  0.00  0.00    +0.000 C 
ATOM      3  O   UNL     1       1.760  10.954  18.165  0.00  0.00    +0.000 OA
ATOM      4  C   UNL     1       1.426   9.192  19.663  0.00  0.00    +0.000 A 
ATOM      5  C   UNL     1       0.925   8.695  20.831  0.00  0.00    +0.000 A 
ATOM      6  N   UNL     1       1.261   7.372  20.980  0.00  0.00    +0.000 NA
ATOM      7  C   UNL     1       2.007   7.055  19.920  0.00  0.00    +0.000 A 
ATOM      8  N   UNL     1       2.573   5.851  19.597  0.00  0.00    +0.000 N 
ATOM      9  C   UNL     1       3.891   5.708  18.980  0.00  0.00    +0.000 C 
ATOM     10  C   UNL     1       3.752   4.826  17.733  0.00  0.00    +0.000 C 
ATOM     11  C   UNL     1       3.147   3.468  18.080  0.00  0.00    +0.000 C 
ATOM     12  C   UNL     1       1.845   3.612  18.897  0.00  0.00    +0.000 C 
ATOM     13  C   UNL     1       2.034   4.582  20.108  0.00  0.00    +0.000 C 
ATOM     14  N   UNL     1       2.079   8.150  19.069  0.00  0.00    +0.000 N 
ATOM     15  C   UNL     1       2.585   8.252  17.723  0.00  0.00    +0.000 C 
ATOM     16  N   UNL     1       0.186   9.512  21.602  0.00  0.00    +0.000 N 
ATOM     17  C   UNL     1      -0.392   9.277  22.890  0.00  0.00    +0.000 C 
ATOM     18  C   UNL     1      -1.067  10.645  23.158  0.00  0.00    +0.000 C 
ATOM     19  N   UNL     1      -0.844  11.514  21.964  0.00  0.00    +0.000 NA
ATOM     20  C   UNL     1      -0.096  10.786  21.177  0.00  0.00    +0.000 C 
ENDROOT
BRANCH  12  21
ATOM     21  N   UNL     1       1.383   2.269  19.275  0.00  0.00    +0.000 NA
ATOM     22  H   UNL     1       2.157   1.606  19.211  0.00  0.00    +0.000 HD
ATOM     23  H   UNL     1       0.696   1.952  18.591  0.00  0.00    +0.000 HD
ENDBRANCH  12  21
BRANCH   1  24
ATOM     24  C   UNL     1       0.131  12.663  19.586  0.00  0.00    +0.000 C 
BRANCH  24  28
ATOM     25  C   UNL     1      -0.152  16.759  22.202  0.00  0.00    +0.000 C 
ATOM     26  C   UNL     1       0.709  15.630  21.714  0.00  0.00    +0.000 A 
ATOM     27  N   UNL     1       0.065  14.688  20.996  0.00  0.00    +0.000 NA
ATOM     28  C   UNL     1       0.803  13.683  20.487  0.00  0.00    +0.000 A 
ATOM     29  N   UNL     1       2.128  13.538  20.694  0.00  0.00    +0.000 NA
ATOM     30  C   UNL     1       2.750  14.476  21.419  0.00  0.00    +0.000 A 
ATOM     31  C   UNL     1       4.120  14.360  21.629  0.00  0.00    +0.000 A 
ATOM     32  C   UNL     1       4.842  15.315  22.351  0.00  0.00    +0.000 A 
ATOM     33  C   UNL     1       4.187  16.416  22.886  0.00  0.00    +0.000 A 
ATOM     34  C   UNL     1       2.814  16.551  22.698  0.00  0.00    +0.000 A 
ATOM     35  C   UNL     1       2.084  15.582  21.964  0.00  0.00    +0.000 A 
ENDBRANCH  24  28
ENDBRANCH   1  24
TORSDOF 3
ENDMDL
