MODEL 1
REMARK VINA RESULT:      -7.1      0.000      0.000
REMARK  Name = 
REMARK  15 active torsions:
REMARK  status: ('A' for Active; 'I' for Inactive)
REMARK    1  A    between atoms: C_1  and  C_2
REMARK    2  A    between atoms: C_2  and  O_3
REMARK    3  A    between atoms: O_3  and  C_4
REMARK    4  A    between atoms: C_9  and  C_10
REMARK    5  A    between atoms: C_12  and  C_13
REMARK    6  A    between atoms: C_13  and  N_14
REMARK    7  A    between atoms: N_14  and  C_15
REMARK    8  A    between atoms: N_14  and  C_16
REMARK    9  A    between atoms: C_16  and  C_17
REMARK   10  A    between atoms: C_19  and  O_20
REMARK   11  A    between atoms: O_20  and  C_21
REMARK   12  A    between atoms: C_22  and  O_23
REMARK   13  A    between atoms: O_23  and  C_24
REMARK   14  A    between atoms: C_25  and  O_26
REMARK   15  A    between atoms: O_26  and  C_27
REMARK                            x       y       z     vdW  Elec       q    Type
REMARK                         _______ _______ _______ _____ _____    ______ ____
ROOT
ATOM      1  C   UNL     1       1.180  10.356  19.376  0.00  0.00    +0.000 C 
ENDROOT
BRANCH   1   4
ATOM      2  C   UNL     1       2.472   7.095  18.732  0.00  0.00    +0.000 A 
ATOM      3  N   UNL     1       2.129   8.302  18.310  0.00  0.00    +0.000 NA
ATOM      4  C   UNL     1       1.622   8.929  19.428  0.00  0.00    +0.000 A 
ATOM      5  C   UNL     1       1.651   8.050  20.486  0.00  0.00    +0.000 A 
ATOM      6  O   UNL     1       2.192   6.877  20.054  0.00  0.00    +0.000 OA
BRANCH   2  12
ATOM      7  C   UNL     1       2.639   4.749  17.707  0.00  0.00    +0.000 A 
ATOM      8  C   UNL     1       3.434   3.832  16.994  0.00  0.00    +0.000 A 
ATOM      9  C   UNL     1       4.713   4.168  16.546  0.00  0.00    +0.000 A 
ATOM     10  C   UNL     1       5.216   5.437  16.781  0.00  0.00    +0.000 A 
ATOM     11  C   UNL     1       4.437   6.361  17.473  0.00  0.00    +0.000 A 
ATOM     12  C   UNL     1       3.147   6.043  17.959  0.00  0.00    +0.000 A 
BRANCH   7  13
ATOM     13  O   UNL     1       1.383   4.431  18.172  0.00  0.00    +0.000 OA
BRANCH  13  15
ATOM     14  C   UNL     1       0.701   2.249  18.944  0.00  0.00    +0.000 C 
ATOM     15  C   UNL     1       1.314   3.584  19.321  0.00  0.00    +0.000 C 
ENDBRANCH  13  15
ENDBRANCH   7  13
ENDBRANCH   2  12
ENDBRANCH   1   4
BRANCH   1  16
ATOM     16  N   UNL     1      -0.270  10.491  19.655  0.00  0.00    +0.000 NA
ATOM     17  C   UNL     1      -0.539  10.415  21.100  0.00  0.00    +0.000 C 
BRANCH  16  18
ATOM     18  C   UNL     1      -0.777  11.787  19.162  0.00  0.00    +0.000 C 
BRANCH  18  19
ATOM     19  C   UNL     1      -2.220  11.759  18.708  0.00  0.00    +0.000 A 
ATOM     20  C   UNL     1      -3.240  12.147  19.579  0.00  0.00    +0.000 A 
ATOM     21  C   UNL     1      -4.574  12.161  19.158  0.00  0.00    +0.000 A 
ATOM     22  C   UNL     1      -4.905  11.746  17.850  0.00  0.00    +0.000 A 
ATOM     23  C   UNL     1      -3.883  11.326  16.972  0.00  0.00    +0.000 A 
ATOM     24  C   UNL     1      -2.550  11.360  17.407  0.00  0.00    +0.000 A 
BRANCH  21  25
ATOM     25  O   UNL     1      -5.609  12.559  19.973  0.00  0.00    +0.000 OA
ATOM     26  C   UNL     1      -5.319  12.608  21.367  0.00  0.00    +0.000 C 
ENDBRANCH  21  25
BRANCH  22  27
ATOM     27  O   UNL     1      -6.252  11.733  17.561  0.00  0.00    +0.000 OA
ATOM     28  C   UNL     1      -6.799  12.909  16.978  0.00  0.00    +0.000 C 
ENDBRANCH  22  27
BRANCH  23  29
ATOM     29  O   UNL     1      -4.243  10.876  15.729  0.00  0.00    +0.000 OA
ATOM     30  C   UNL     1      -3.305  10.103  14.990  0.00  0.00    +0.000 C 
ENDBRANCH  23  29
ENDBRANCH  18  19
ENDBRANCH  16  18
ENDBRANCH   1  16
TORSDOF 10
ENDMDL
MODEL 2
REMARK VINA RESULT:      -7.0      1.492      2.604
REMARK  Name = 
REMARK  15 active torsions:
REMARK  status: ('A' for Active; 'I' for Inactive)
REMARK    1  A    between atoms: C_1  and  C_2
REMARK    2  A    between atoms: C_2  and  O_3
REMARK    3  A    between atoms: O_3  and  C_4
REMARK    4  A    between atoms: C_9  and  C_10
REMARK    5  A    between atoms: C_12  and  C_13
REMARK    6  A    between atoms: C_13  and  N_14
REMARK    7  A    between atoms: N_14  and  C_15
REMARK    8  A    between atoms: N_14  and  C_16
REMARK    9  A    between atoms: C_16  and  C_17
REMARK   10  A    between atoms: C_19  and  O_20
REMARK   11  A    between atoms: O_20  and  C_21
REMARK   12  A    between atoms: C_22  and  O_23
REMARK   13  A    between atoms: O_23  and  C_24
REMARK   14  A    between atoms: C_25  and  O_26
REMARK   15  A    between atoms: O_26  and  C_27
REMARK                            x       y       z     vdW  Elec       q    Type
REMARK                         _______ _______ _______ _____ _____    ______ ____
ROOT
ATOM      1  C   UNL     1       1.484  10.080  19.171  0.00  0.00    +0.000 C 
ENDROOT
BRANCH   1   4
ATOM      2  C   UNL     1       2.400   6.633  19.160  0.00  0.00    +0.000 A 
ATOM      3  N   UNL     1       2.049   7.730  19.813  0.00  0.00    +0.000 NA
ATOM      4  C   UNL     1       1.936   8.695  18.836  0.00  0.00    +0.000 A 
ATOM      5  C   UNL     1       2.260   8.141  17.619  0.00  0.00    +0.000 A 
ATOM      6  O   UNL     1       2.557   6.826  17.813  0.00  0.00    +0.000 OA
BRANCH   2  12
ATOM      7  C   UNL     1       3.652   4.413  19.453  0.00  0.00    +0.000 A 
ATOM      8  C   UNL     1       3.642   3.125  20.021  0.00  0.00    +0.000 A 
ATOM      9  C   UNL     1       2.585   2.688  20.823  0.00  0.00    +0.000 A 
ATOM     10  C   UNL     1       1.526   3.538  21.092  0.00  0.00    +0.000 A 
ATOM     11  C   UNL     1       1.526   4.821  20.550  0.00  0.00    +0.000 A 
ATOM     12  C   UNL     1       2.571   5.284  19.716  0.00  0.00    +0.000 A 
BRANCH   7  13
ATOM     13  O   UNL     1       4.675   4.856  18.646  0.00  0.00    +0.000 OA
BRANCH  13  15
ATOM     14  C   UNL     1       7.033   5.227  18.300  0.00  0.00    +0.000 C 
ATOM     15  C   UNL     1       5.887   5.247  19.293  0.00  0.00    +0.000 C 
ENDBRANCH  13  15
ENDBRANCH   7  13
ENDBRANCH   2  12
ENDBRANCH   1   4
BRANCH   1  16
ATOM     16  N   UNL     1       0.010  10.159  19.309  0.00  0.00    +0.000 NA
ATOM     17  C   UNL     1      -0.405   9.885  20.694  0.00  0.00    +0.000 C 
BRANCH  16  18
ATOM     18  C   UNL     1      -0.477  11.503  18.941  0.00  0.00    +0.000 C 
BRANCH  18  19
ATOM     19  C   UNL     1      -1.936  11.547  18.541  0.00  0.00    +0.000 A 
ATOM     20  C   UNL     1      -2.899  12.006  19.442  0.00  0.00    +0.000 A 
ATOM     21  C   UNL     1      -4.245  12.087  19.071  0.00  0.00    +0.000 A 
ATOM     22  C   UNL     1      -4.648  11.670  17.783  0.00  0.00    +0.000 A 
ATOM     23  C   UNL     1      -3.684  11.181  16.876  0.00  0.00    +0.000 A 
ATOM     24  C   UNL     1      -2.336  11.148  17.260  0.00  0.00    +0.000 A 
BRANCH  21  25
ATOM     25  O   UNL     1      -5.226  12.555  19.916  0.00  0.00    +0.000 OA
ATOM     26  C   UNL     1      -4.781  13.009  21.191  0.00  0.00    +0.000 C 
ENDBRANCH  21  25
BRANCH  22  27
ATOM     27  O   UNL     1      -6.004  11.727  17.544  0.00  0.00    +0.000 OA
ATOM     28  C   UNL     1      -6.509  12.929  16.976  0.00  0.00    +0.000 C 
ENDBRANCH  22  27
BRANCH  23  29
ATOM     29  O   UNL     1      -4.116  10.731  15.655  0.00  0.00    +0.000 OA
ATOM     30  C   UNL     1      -3.158  10.181  14.759  0.00  0.00    +0.000 C 
ENDBRANCH  23  29
ENDBRANCH  18  19
ENDBRANCH  16  18
ENDBRANCH   1  16
TORSDOF 10
ENDMDL
MODEL 3
REMARK VINA RESULT:      -6.9      1.442      3.476
REMARK  Name = 
REMARK  15 active torsions:
REMARK  status: ('A' for Active; 'I' for Inactive)
REMARK    1  A    between atoms: C_1  and  C_2
REMARK    2  A    between atoms: C_2  and  O_3
REMARK    3  A    between atoms: O_3  and  C_4
REMARK    4  A    between atoms: C_9  and  C_10
REMARK    5  A    between atoms: C_12  and  C_13
REMARK    6  A    between atoms: C_13  and  N_14
REMARK    7  A    between atoms: N_14  and  C_15
REMARK    8  A    between atoms: N_14  and  C_16
REMARK    9  A    between atoms: C_16  and  C_17
REMARK   10  A    between atoms: C_19  and  O_20
REMARK   11  A    between atoms: O_20  and  C_21
REMARK   12  A    between atoms: C_22  and  O_23
REMARK   13  A    between atoms: O_23  and  C_24
REMARK   14  A    between atoms: C_25  and  O_26
REMARK   15  A    between atoms: O_26  and  C_27
REMARK                            x       y       z     vdW  Elec       q    Type
REMARK                         _______ _______ _______ _____ _____    ______ ____
ROOT
ATOM      1  C   UNL     1       1.341  10.274  19.594  0.00  0.00    +0.000 C 
ENDROOT
BRANCH   1   4
ATOM      2  C   UNL     1       2.224   6.834  19.276  0.00  0.00    +0.000 A 
ATOM      3  N   UNL     1       1.973   7.894  20.028  0.00  0.00    +0.000 NA
ATOM      4  C   UNL     1       1.733   8.909  19.128  0.00  0.00    +0.000 A 
ATOM      5  C   UNL     1       1.882   8.420  17.851  0.00  0.00    +0.000 A 
ATOM      6  O   UNL     1       2.195   7.097  17.933  0.00  0.00    +0.000 OA
BRANCH   2  12
ATOM      7  C   UNL     1       3.583   4.662  19.410  0.00  0.00    +0.000 A 
ATOM      8  C   UNL     1       3.636   3.336  19.881  0.00  0.00    +0.000 A 
ATOM      9  C   UNL     1       2.603   2.790  20.644  0.00  0.00    +0.000 A 
ATOM     10  C   UNL     1       1.503   3.565  20.973  0.00  0.00    +0.000 A 
ATOM     11  C   UNL     1       1.440   4.883  20.526  0.00  0.00    +0.000 A 
ATOM     12  C   UNL     1       2.461   5.457  19.732  0.00  0.00    +0.000 A 
BRANCH   7  13
ATOM     13  O   UNL     1       4.583   5.212  18.641  0.00  0.00    +0.000 OA
BRANCH  13  15
ATOM     14  C   UNL     1       6.918   4.909  18.116  0.00  0.00    +0.000 C 
ATOM     15  C   UNL     1       5.899   5.216  19.196  0.00  0.00    +0.000 C 
ENDBRANCH  13  15
ENDBRANCH   7  13
ENDBRANCH   2  12
ENDBRANCH   1   4
BRANCH   1  16
ATOM     16  N   UNL     1      -0.118  10.371  19.844  0.00  0.00    +0.000 NA
ATOM     17  C   UNL     1      -0.429  10.108  21.257  0.00  0.00    +0.000 C 
BRANCH  16  18
ATOM     18  C   UNL     1      -0.615  11.720  19.507  0.00  0.00    +0.000 C 
BRANCH  18  19
ATOM     19  C   UNL     1      -2.022  11.743  18.950  0.00  0.00    +0.000 A 
ATOM     20  C   UNL     1      -2.259  11.386  17.621  0.00  0.00    +0.000 A 
ATOM     21  C   UNL     1      -3.559  11.366  17.106  0.00  0.00    +0.000 A 
ATOM     22  C   UNL     1      -4.647  11.744  17.923  0.00  0.00    +0.000 A 
ATOM     23  C   UNL     1      -4.413  12.132  19.260  0.00  0.00    +0.000 A 
ATOM     24  C   UNL     1      -3.104  12.104  19.762  0.00  0.00    +0.000 A 
BRANCH  21  25
ATOM     25  O   UNL     1      -3.843  10.998  15.811  0.00  0.00    +0.000 OA
ATOM     26  C   UNL     1      -3.137   9.863  15.319  0.00  0.00    +0.000 C 
ENDBRANCH  21  25
BRANCH  22  27
ATOM     27  O   UNL     1      -5.875  11.756  17.298  0.00  0.00    +0.000 OA
ATOM     28  C   UNL     1      -6.427  13.028  16.985  0.00  0.00    +0.000 C 
ENDBRANCH  22  27
BRANCH  23  29
ATOM     29  O   UNL     1      -5.483  12.547  20.009  0.00  0.00    +0.000 OA
ATOM     30  C   UNL     1      -5.314  12.682  21.415  0.00  0.00    +0.000 C 
ENDBRANCH  23  29
ENDBRANCH  18  19
ENDBRANCH  16  18
ENDBRANCH   1  16
TORSDOF 10
ENDMDL
MODEL 4
REMARK VINA RESULT:      -6.8      1.334      3.381
REMARK  Name = 
REMARK  15 active torsions:
REMARK  status: ('A' for Active; 'I' for Inactive)
REMARK    1  A    between atoms: C_1  and  C_2
REMARK    2  A    between atoms: C_2  and  O_3
REMARK    3  A    between atoms: O_3  and  C_4
REMARK    4  A    between atoms: C_9  and  C_10
REMARK    5  A    between atoms: C_12  and  C_13
REMARK    6  A    between atoms: C_13  and  N_14
REMARK    7  A    between atoms: N_14  and  C_15
REMARK    8  A    between atoms: N_14  and  C_16
REMARK    9  A    between atoms: C_16  and  C_17
REMARK   10  A    between atoms: C_19  and  O_20
REMARK   11  A    between atoms: O_20  and  C_21
REMARK   12  A    between atoms: C_22  and  O_23
REMARK   13  A    between atoms: O_23  and  C_24
REMARK   14  A    between atoms: C_25  and  O_26
REMARK   15  A    between atoms: O_26  and  C_27
REMARK                            x       y       z     vdW  Elec       q    Type
REMARK                         _______ _______ _______ _____ _____    ______ ____
ROOT
ATOM      1  C   UNL     1       1.076  10.219  20.509  0.00  0.00    +0.000 C 
ENDROOT
BRANCH   1   4
ATOM      2  C   UNL     1       2.150   7.561  18.386  0.00  0.00    +0.000 A 
ATOM      3  N   UNL     1       2.038   8.101  19.590  0.00  0.00    +0.000 NA
ATOM      4  C   UNL     1       1.438   9.321  19.369  0.00  0.00    +0.000 A 
ATOM      5  C   UNL     1       1.238   9.485  18.018  0.00  0.00    +0.000 A 
ATOM      6  O   UNL     1       1.688   8.368  17.381  0.00  0.00    +0.000 OA
BRANCH   2  12
ATOM      7  C   UNL     1       3.971   5.896  17.686  0.00  0.00    +0.000 A 
ATOM      8  C   UNL     1       4.277   4.565  17.345  0.00  0.00    +0.000 A 
ATOM      9  C   UNL     1       3.302   3.566  17.353  0.00  0.00    +0.000 A 
ATOM     10  C   UNL     1       2.003   3.871  17.724  0.00  0.00    +0.000 A 
ATOM     11  C   UNL     1       1.685   5.180  18.077  0.00  0.00    +0.000 A 
ATOM     12  C   UNL     1       2.646   6.218  18.057  0.00  0.00    +0.000 A 
BRANCH   7  13
ATOM     13  O   UNL     1       4.914   6.898  17.666  0.00  0.00    +0.000 OA
BRANCH  13  15
ATOM     14  C   UNL     1       7.323   6.827  17.568  0.00  0.00    +0.000 C 
ATOM     15  C   UNL     1       6.027   6.723  16.788  0.00  0.00    +0.000 C 
ENDBRANCH  13  15
ENDBRANCH   7  13
ENDBRANCH   2  12
ENDBRANCH   1   4
BRANCH   1  16
ATOM     16  N   UNL     1      -0.383  10.474  20.565  0.00  0.00    +0.000 NA
ATOM     17  C   UNL     1      -0.856  10.529  21.957  0.00  0.00    +0.000 C 
BRANCH  16  18
ATOM     18  C   UNL     1      -0.712  11.759  19.917  0.00  0.00    +0.000 C 
BRANCH  18  19
ATOM     19  C   UNL     1      -2.088  11.804  19.289  0.00  0.00    +0.000 A 
ATOM     20  C   UNL     1      -2.285  11.331  17.990  0.00  0.00    +0.000 A 
ATOM     21  C   UNL     1      -3.559  11.332  17.413  0.00  0.00    +0.000 A 
ATOM     22  C   UNL     1      -4.659  11.849  18.132  0.00  0.00    +0.000 A 
ATOM     23  C   UNL     1      -4.463  12.355  19.435  0.00  0.00    +0.000 A 
ATOM     24  C   UNL     1      -3.183  12.304  20.005  0.00  0.00    +0.000 A 
BRANCH  21  25
ATOM     25  O   UNL     1      -3.805  10.853  16.146  0.00  0.00    +0.000 OA
ATOM     26  C   UNL     1      -2.896   9.867  15.668  0.00  0.00    +0.000 C 
ENDBRANCH  21  25
BRANCH  22  27
ATOM     27  O   UNL     1      -5.854  11.867  17.447  0.00  0.00    +0.000 OA
ATOM     28  C   UNL     1      -6.343  13.138  17.036  0.00  0.00    +0.000 C 
ENDBRANCH  22  27
BRANCH  23  29
ATOM     29  O   UNL     1      -5.539  12.901  20.084  0.00  0.00    +0.000 OA
ATOM     30  C   UNL     1      -6.367  12.046  20.863  0.00  0.00    +0.000 C 
ENDBRANCH  23  29
ENDBRANCH  18  19
ENDBRANCH  16  18
ENDBRANCH   1  16
TORSDOF 10
ENDMDL
MODEL 5
REMARK VINA RESULT:      -6.8      3.143      4.596
REMARK  Name = 
REMARK  15 active torsions:
REMARK  status: ('A' for Active; 'I' for Inactive)
REMARK    1  A    between atoms: C_1  and  C_2
REMARK    2  A    between atoms: C_2  and  O_3
REMARK    3  A    between atoms: O_3  and  C_4
REMARK    4  A    between atoms: C_9  and  C_10
REMARK    5  A    between atoms: C_12  and  C_13
REMARK    6  A    between atoms: C_13  and  N_14
REMARK    7  A    between atoms: N_14  and  C_15
REMARK    8  A    between atoms: N_14  and  C_16
REMARK    9  A    between atoms: C_16  and  C_17
REMARK   10  A    between atoms: C_19  and  O_20
REMARK   11  A    between atoms: O_20  and  C_21
REMARK   12  A    between atoms: C_22  and  O_23
REMARK   13  A    between atoms: O_23  and  C_24
REMARK   14  A    between atoms: C_25  and  O_26
REMARK   15  A    between atoms: O_26  and  C_27
REMARK                            x       y       z     vdW  Elec       q    Type
REMARK                         _______ _______ _______ _____ _____    ______ ____
ROOT
ATOM      1  C   UNL     1       1.913  10.441  17.803  0.00  0.00    +0.000 C 
ENDROOT
BRANCH   1   4
ATOM      2  C   UNL     1       2.501   6.977  18.412  0.00  0.00    +0.000 A 
ATOM      3  N   UNL     1       2.490   8.017  17.593  0.00  0.00    +0.000 NA
ATOM      4  C   UNL     1       2.013   9.058  18.360  0.00  0.00    +0.000 A 
ATOM      5  C   UNL     1       1.721   8.589  19.620  0.00  0.00    +0.000 A 
ATOM      6  O   UNL     1       2.029   7.262  19.665  0.00  0.00    +0.000 OA
BRANCH   2  12
ATOM      7  C   UNL     1       4.364   5.260  18.005  0.00  0.00    +0.000 A 
ATOM      8  C   UNL     1       4.683   3.931  17.671  0.00  0.00    +0.000 A 
ATOM      9  C   UNL     1       3.691   2.975  17.445  0.00  0.00    +0.000 A 
ATOM     10  C   UNL     1       2.356   3.323  17.570  0.00  0.00    +0.000 A 
ATOM     11  C   UNL     1       2.022   4.631  17.913  0.00  0.00    +0.000 A 
ATOM     12  C   UNL     1       3.004   5.626  18.126  0.00  0.00    +0.000 A 
BRANCH   7  13
ATOM     13  O   UNL     1       5.327   6.221  18.214  0.00  0.00    +0.000 OA
BRANCH  13  15
ATOM     14  C   UNL     1       7.515   7.065  17.646  0.00  0.00    +0.000 C 
ATOM     15  C   UNL     1       6.206   6.504  17.124  0.00  0.00    +0.000 C 
ENDBRANCH  13  15
ENDBRANCH   7  13
ENDBRANCH   2  12
ENDBRANCH   1   4
BRANCH   1  16
ATOM     16  N   UNL     1       1.501  11.421  18.838  0.00  0.00    +0.000 NA
ATOM     17  C   UNL     1       2.211  12.698  18.667  0.00  0.00    +0.000 C 
BRANCH  16  18
ATOM     18  C   UNL     1       0.051  11.687  18.754  0.00  0.00    +0.000 C 
BRANCH  18  19
ATOM     19  C   UNL     1      -0.599  12.011  20.082  0.00  0.00    +0.000 A 
ATOM     20  C   UNL     1      -0.515  11.110  21.146  0.00  0.00    +0.000 A 
ATOM     21  C   UNL     1      -1.078  11.415  22.389  0.00  0.00    +0.000 A 
ATOM     22  C   UNL     1      -1.773  12.631  22.569  0.00  0.00    +0.000 A 
ATOM     23  C   UNL     1      -1.885  13.535  21.491  0.00  0.00    +0.000 A 
ATOM     24  C   UNL     1      -1.276  13.222  20.268  0.00  0.00    +0.000 A 
BRANCH  21  25
ATOM     25  O   UNL     1      -0.999  10.569  23.472  0.00  0.00    +0.000 OA
ATOM     26  C   UNL     1      -0.037   9.523  23.375  0.00  0.00    +0.000 C 
ENDBRANCH  21  25
BRANCH  22  27
ATOM     27  O   UNL     1      -2.347  12.802  23.809  0.00  0.00    +0.000 OA
ATOM     28  C   UNL     1      -3.741  12.538  23.917  0.00  0.00    +0.000 C 
ENDBRANCH  22  27
BRANCH  23  29
ATOM     29  O   UNL     1      -2.613  14.680  21.682  0.00  0.00    +0.000 OA
ATOM     30  C   UNL     1      -1.933  15.853  22.113  0.00  0.00    +0.000 C 
ENDBRANCH  23  29
ENDBRANCH  18  19
ENDBRANCH  16  18
ENDBRANCH   1  16
TORSDOF 10
ENDMDL
MODEL 6
REMARK VINA RESULT:      -6.7      1.274      2.294
REMARK  Name = 
REMARK  15 active torsions:
REMARK  status: ('A' for Active; 'I' for Inactive)
REMARK    1  A    between atoms: C_1  and  C_2
REMARK    2  A    between atoms: C_2  and  O_3
REMARK    3  A    between atoms: O_3  and  C_4
REMARK    4  A    between atoms: C_9  and  C_10
REMARK    5  A    between atoms: C_12  and  C_13
REMARK    6  A    between atoms: C_13  and  N_14
REMARK    7  A    between atoms: N_14  and  C_15
REMARK    8  A    between atoms: N_14  and  C_16
REMARK    9  A    between atoms: C_16  and  C_17
REMARK   10  A    between atoms: C_19  and  O_20
REMARK   11  A    between atoms: O_20  and  C_21
REMARK   12  A    between atoms: C_22  and  O_23
REMARK   13  A    between atoms: O_23  and  C_24
REMARK   14  A    between atoms: C_25  and  O_26
REMARK   15  A    between atoms: O_26  and  C_27
REMARK                            x       y       z     vdW  Elec       q    Type
REMARK                         _______ _______ _______ _____ _____    ______ ____
ROOT
ATOM      1  C   UNL     1       1.576  10.154  19.158  0.00  0.00    +0.000 C 
ENDROOT
BRANCH   1   4
ATOM      2  C   UNL     1       2.321   6.670  18.984  0.00  0.00    +0.000 A 
ATOM      3  N   UNL     1       2.204   7.854  18.402  0.00  0.00    +0.000 NA
ATOM      4  C   UNL     1       1.768   8.692  19.406  0.00  0.00    +0.000 A 
ATOM      5  C   UNL     1       1.606   7.963  20.560  0.00  0.00    +0.000 A 
ATOM      6  O   UNL     1       1.957   6.671  20.304  0.00  0.00    +0.000 OA
BRANCH   2  12
ATOM      7  C   UNL     1       4.198   5.130  18.157  0.00  0.00    +0.000 A 
ATOM      8  C   UNL     1       4.529   3.920  17.518  0.00  0.00    +0.000 A 
ATOM      9  C   UNL     1       3.545   3.025  17.094  0.00  0.00    +0.000 A 
ATOM     10  C   UNL     1       2.209   3.309  17.320  0.00  0.00    +0.000 A 
ATOM     11  C   UNL     1       1.864   4.496  17.963  0.00  0.00    +0.000 A 
ATOM     12  C   UNL     1       2.837   5.433  18.384  0.00  0.00    +0.000 A 
BRANCH   7  13
ATOM     13  O   UNL     1       5.153   6.033  18.565  0.00  0.00    +0.000 OA
BRANCH  13  15
ATOM     14  C   UNL     1       7.563   6.125  18.516  0.00  0.00    +0.000 C 
ATOM     15  C   UNL     1       6.338   5.499  19.157  0.00  0.00    +0.000 C 
ENDBRANCH  13  15
ENDBRANCH   7  13
ENDBRANCH   2  12
ENDBRANCH   1   4
BRANCH   1  16
ATOM     16  N   UNL     1       0.293  10.641  19.720  0.00  0.00    +0.000 NA
ATOM     17  C   UNL     1       0.460  11.078  21.114  0.00  0.00    +0.000 C 
BRANCH  16  18
ATOM     18  C   UNL     1      -0.216  11.786  18.938  0.00  0.00    +0.000 C 
BRANCH  18  19
ATOM     19  C   UNL     1      -1.708  11.756  18.691  0.00  0.00    +0.000 A 
ATOM     20  C   UNL     1      -2.592  12.239  19.658  0.00  0.00    +0.000 A 
ATOM     21  C   UNL     1      -3.972  12.251  19.425  0.00  0.00    +0.000 A 
ATOM     22  C   UNL     1      -4.487  11.738  18.214  0.00  0.00    +0.000 A 
ATOM     23  C   UNL     1      -3.602  11.223  17.243  0.00  0.00    +0.000 A 
ATOM     24  C   UNL     1      -2.221  11.260  17.486  0.00  0.00    +0.000 A 
BRANCH  21  25
ATOM     25  O   UNL     1      -4.878  12.739  20.338  0.00  0.00    +0.000 OA
ATOM     26  C   UNL     1      -4.809  14.139  20.594  0.00  0.00    +0.000 C 
ENDBRANCH  21  25
BRANCH  22  27
ATOM     27  O   UNL     1      -5.861  11.734  18.116  0.00  0.00    +0.000 OA
ATOM     28  C   UNL     1      -6.534  10.551  18.531  0.00  0.00    +0.000 C 
ENDBRANCH  22  27
BRANCH  23  29
ATOM     29  O   UNL     1      -4.137  10.681  16.104  0.00  0.00    +0.000 OA
ATOM     30  C   UNL     1      -3.293  10.512  14.972  0.00  0.00    +0.000 C 
ENDBRANCH  23  29
ENDBRANCH  18  19
ENDBRANCH  16  18
ENDBRANCH   1  16
TORSDOF 10
ENDMDL
MODEL 7
REMARK VINA RESULT:      -6.7      3.661      6.086
REMARK  Name = 
REMARK  15 active torsions:
REMARK  status: ('A' for Active; 'I' for Inactive)
REMARK    1  A    between atoms: C_1  and  C_2
REMARK    2  A    between atoms: C_2  and  O_3
REMARK    3  A    between atoms: O_3  and  C_4
REMARK    4  A    between atoms: C_9  and  C_10
REMARK    5  A    between atoms: C_12  and  C_13
REMARK    6  A    between atoms: C_13  and  N_14
REMARK    7  A    between atoms: N_14  and  C_15
REMARK    8  A    between atoms: N_14  and  C_16
REMARK    9  A    between atoms: C_16  and  C_17
REMARK   10  A    between atoms: C_19  and  O_20
REMARK   11  A    between atoms: O_20  and  C_21
REMARK   12  A    between atoms: C_22  and  O_23
REMARK   13  A    between atoms: O_23  and  C_24
REMARK   14  A    between atoms: C_25  and  O_26
REMARK   15  A    between atoms: O_26  and  C_27
REMARK                            x       y       z     vdW  Elec       q    Type
REMARK                         _______ _______ _______ _____ _____    ______ ____
ROOT
ATOM      1  C   UNL     1       1.103   4.060  19.378  0.00  0.00    +0.000 C 
ENDROOT
BRANCH   1   4
ATOM      2  C   UNL     1       3.971   3.731  17.284  0.00  0.00    +0.000 A 
ATOM      3  N   UNL     1       2.987   4.463  17.784  0.00  0.00    +0.000 NA
ATOM      4  C   UNL     1       2.273   3.589  18.576  0.00  0.00    +0.000 A 
ATOM      5  C   UNL     1       2.845   2.341  18.495  0.00  0.00    +0.000 A 
ATOM      6  O   UNL     1       3.929   2.419  17.674  0.00  0.00    +0.000 OA
BRANCH   2  12
ATOM      7  C   UNL     1       5.956   5.261  16.735  0.00  0.00    +0.000 A 
ATOM      8  C   UNL     1       6.937   5.619  15.792  0.00  0.00    +0.000 A 
ATOM      9  C   UNL     1       7.053   4.953  14.570  0.00  0.00    +0.000 A 
ATOM     10  C   UNL     1       6.205   3.900  14.274  0.00  0.00    +0.000 A 
ATOM     11  C   UNL     1       5.236   3.523  15.201  0.00  0.00    +0.000 A 
ATOM     12  C   UNL     1       5.080   4.193  16.438  0.00  0.00    +0.000 A 
BRANCH   7  13
ATOM     13  O   UNL     1       5.813   5.916  17.936  0.00  0.00    +0.000 OA
BRANCH  13  15
ATOM     14  C   UNL     1       7.875   5.825  19.187  0.00  0.00    +0.000 C 
ATOM     15  C   UNL     1       6.446   5.328  19.074  0.00  0.00    +0.000 C 
ENDBRANCH  13  15
ENDBRANCH   7  13
ENDBRANCH   2  12
ENDBRANCH   1   4
BRANCH   1  16
ATOM     16  N   UNL     1       1.522   4.938  20.497  0.00  0.00    +0.000 NA
ATOM     17  C   UNL     1       2.252   4.175  21.521  0.00  0.00    +0.000 C 
BRANCH  16  18
ATOM     18  C   UNL     1       2.405   6.015  20.010  0.00  0.00    +0.000 C 
BRANCH  18  19
ATOM     19  C   UNL     1       1.841   7.408  20.185  0.00  0.00    +0.000 A 
ATOM     20  C   UNL     1       1.567   8.203  19.070  0.00  0.00    +0.000 A 
ATOM     21  C   UNL     1       1.009   9.477  19.218  0.00  0.00    +0.000 A 
ATOM     22  C   UNL     1       0.749   9.988  20.509  0.00  0.00    +0.000 A 
ATOM     23  C   UNL     1       1.048   9.202  21.642  0.00  0.00    +0.000 A 
ATOM     24  C   UNL     1       1.569   7.912  21.464  0.00  0.00    +0.000 A 
BRANCH  21  25
ATOM     25  O   UNL     1       0.701  10.286  18.148  0.00  0.00    +0.000 OA
ATOM     26  C   UNL     1      -0.618  10.150  17.627  0.00  0.00    +0.000 C 
ENDBRANCH  21  25
BRANCH  22  27
ATOM     27  O   UNL     1       0.265  11.277  20.544  0.00  0.00    +0.000 OA
ATOM     28  C   UNL     1       1.221  12.322  20.670  0.00  0.00    +0.000 C 
ENDBRANCH  22  27
BRANCH  23  29
ATOM     29  O   UNL     1       0.837   9.748  22.881  0.00  0.00    +0.000 OA
ATOM     30  C   UNL     1      -0.485   9.746  23.407  0.00  0.00    +0.000 C 
ENDBRANCH  23  29
ENDBRANCH  18  19
ENDBRANCH  16  18
ENDBRANCH   1  16
TORSDOF 10
ENDMDL
MODEL 8
REMARK VINA RESULT:      -6.7      3.604      5.754
REMARK  Name = 
REMARK  15 active torsions:
REMARK  status: ('A' for Active; 'I' for Inactive)
REMARK    1  A    between atoms: C_1  and  C_2
REMARK    2  A    between atoms: C_2  and  O_3
REMARK    3  A    between atoms: O_3  and  C_4
REMARK    4  A    between atoms: C_9  and  C_10
REMARK    5  A    between atoms: C_12  and  C_13
REMARK    6  A    between atoms: C_13  and  N_14
REMARK    7  A    between atoms: N_14  and  C_15
REMARK    8  A    between atoms: N_14  and  C_16
REMARK    9  A    between atoms: C_16  and  C_17
REMARK   10  A    between atoms: C_19  and  O_20
REMARK   11  A    between atoms: O_20  and  C_21
REMARK   12  A    between atoms: C_22  and  O_23
REMARK   13  A    between atoms: O_23  and  C_24
REMARK   14  A    between atoms: C_25  and  O_26
REMARK   15  A    between atoms: O_26  and  C_27
REMARK                            x       y       z     vdW  Elec       q    Type
REMARK                         _______ _______ _______ _____ _____    ______ ____
ROOT
ATOM      1  C   UNL     1       1.333   4.162  19.112  0.00  0.00    +0.000 C 
ENDROOT
BRANCH   1   4
ATOM      2  C   UNL     1       4.283   3.858  17.130  0.00  0.00    +0.000 A 
ATOM      3  N   UNL     1       3.147   4.476  17.420  0.00  0.00    +0.000 NA
ATOM      4  C   UNL     1       2.606   3.740  18.452  0.00  0.00    +0.000 A 
ATOM      5  C   UNL     1       3.433   2.676  18.725  0.00  0.00    +0.000 A 
ATOM      6  O   UNL     1       4.506   2.741  17.889  0.00  0.00    +0.000 OA
BRANCH   2  12
ATOM      7  C   UNL     1       6.173   5.380  16.299  0.00  0.00    +0.000 A 
ATOM      8  C   UNL     1       7.057   5.688  15.247  0.00  0.00    +0.000 A 
ATOM      9  C   UNL     1       7.077   4.942  14.067  0.00  0.00    +0.000 A 
ATOM     10  C   UNL     1       6.229   3.856  13.922  0.00  0.00    +0.000 A 
ATOM     11  C   UNL     1       5.358   3.528  14.958  0.00  0.00    +0.000 A 
ATOM     12  C   UNL     1       5.299   4.279  16.156  0.00  0.00    +0.000 A 
BRANCH   7  13
ATOM     13  O   UNL     1       6.126   6.115  17.461  0.00  0.00    +0.000 OA
BRANCH  13  15
ATOM     14  C   UNL     1       7.897   5.635  19.028  0.00  0.00    +0.000 C 
ATOM     15  C   UNL     1       7.370   6.593  17.976  0.00  0.00    +0.000 C 
ENDBRANCH  13  15
ENDBRANCH   7  13
ENDBRANCH   2  12
ENDBRANCH   1   4
BRANCH   1  16
ATOM     16  N   UNL     1       1.587   5.018  20.296  0.00  0.00    +0.000 NA
ATOM     17  C   UNL     1       2.215   4.246  21.380  0.00  0.00    +0.000 C 
BRANCH  16  18
ATOM     18  C   UNL     1       2.486   6.136  19.948  0.00  0.00    +0.000 C 
BRANCH  18  19
ATOM     19  C   UNL     1       1.860   7.506  20.096  0.00  0.00    +0.000 A 
ATOM     20  C   UNL     1       1.629   8.041  21.365  0.00  0.00    +0.000 A 
ATOM     21  C   UNL     1       1.087   9.322  21.513  0.00  0.00    +0.000 A 
ATOM     22  C   UNL     1       0.733  10.075  20.372  0.00  0.00    +0.000 A 
ATOM     23  C   UNL     1       0.937   9.530  19.087  0.00  0.00    +0.000 A 
ATOM     24  C   UNL     1       1.520   8.260  18.966  0.00  0.00    +0.000 A 
BRANCH  21  25
ATOM     25  O   UNL     1       0.865   9.900  22.742  0.00  0.00    +0.000 OA
ATOM     26  C   UNL     1      -0.351   9.535  23.390  0.00  0.00    +0.000 C 
ENDBRANCH  21  25
BRANCH  22  27
ATOM     27  O   UNL     1       0.144  11.293  20.632  0.00  0.00    +0.000 OA
ATOM     28  C   UNL     1       0.977  12.442  20.554  0.00  0.00    +0.000 C 
ENDBRANCH  22  27
BRANCH  23  29
ATOM     29  O   UNL     1       0.531  10.262  18.002  0.00  0.00    +0.000 OA
ATOM     30  C   UNL     1      -0.833  10.186  17.605  0.00  0.00    +0.000 C 
ENDBRANCH  23  29
ENDBRANCH  18  19
ENDBRANCH  16  18
ENDBRANCH   1  16
TORSDOF 10
ENDMDL
MODEL 9
REMARK VINA RESULT:      -6.7      3.783      9.780
REMARK  Name = 
REMARK  15 active torsions:
REMARK  status: ('A' for Active; 'I' for Inactive)
REMARK    1  A    between atoms: C_1  and  C_2
REMARK    2  A    between atoms: C_2  and  O_3
REMARK    3  A    between atoms: O_3  and  C_4
REMARK    4  A    between atoms: C_9  and  C_10
REMARK    5  A    between atoms: C_12  and  C_13
REMARK    6  A    between atoms: C_13  and  N_14
REMARK    7  A    between atoms: N_14  and  C_15
REMARK    8  A    between atoms: N_14  and  C_16
REMARK    9  A    between atoms: C_16  and  C_17
REMARK   10  A    between atoms: C_19  and  O_20
REMARK   11  A    between atoms: O_20  and  C_21
REMARK   12  A    between atoms: C_22  and  O_23
REMARK   13  A    between atoms: O_23  and  C_24
REMARK   14  A    between atoms: C_25  and  O_26
REMARK   15  A    between atoms: O_26  and  C_27
REMARK                            x       y       z     vdW  Elec       q    Type
REMARK                         _______ _______ _______ _____ _____    ______ ____
ROOT
ATOM      1  C   UNL     1       1.959   4.623  17.757  0.00  0.00    +0.000 C 
ENDROOT
BRANCH   1   4
ATOM      2  C   UNL     1       1.847   7.953  19.030  0.00  0.00    +0.000 A 
ATOM      3  N   UNL     1       1.759   7.102  18.019  0.00  0.00    +0.000 NA
ATOM      4  C   UNL     1       2.027   5.871  18.577  0.00  0.00    +0.000 A 
ATOM      5  C   UNL     1       2.302   6.036  19.915  0.00  0.00    +0.000 A 
ATOM      6  O   UNL     1       2.190   7.360  20.215  0.00  0.00    +0.000 OA
BRANCH   2  12
ATOM      7  C   UNL     1       0.537  10.049  19.718  0.00  0.00    +0.000 A 
ATOM      8  C   UNL     1       0.362  11.435  19.543  0.00  0.00    +0.000 A 
ATOM      9  C   UNL     1       1.171  12.169  18.673  0.00  0.00    +0.000 A 
ATOM     10  C   UNL     1       2.187  11.538  17.976  0.00  0.00    +0.000 A 
ATOM     11  C   UNL     1       2.384  10.170  18.147  0.00  0.00    +0.000 A 
ATOM     12  C   UNL     1       1.567   9.395  19.004  0.00  0.00    +0.000 A 
BRANCH   7  13
ATOM     13  O   UNL     1      -0.261   9.304  20.556  0.00  0.00    +0.000 OA
BRANCH  13  15
ATOM     14  C   UNL     1       0.818   9.321  22.714  0.00  0.00    +0.000 C 
ATOM     15  C   UNL     1      -0.387   9.761  21.904  0.00  0.00    +0.000 C 
ENDBRANCH  13  15
ENDBRANCH   7  13
ENDBRANCH   2  12
ENDBRANCH   1   4
BRANCH   1  16
ATOM     16  N   UNL     1       2.433   3.441  18.516  0.00  0.00    +0.000 NA
ATOM     17  C   UNL     1       1.411   2.383  18.537  0.00  0.00    +0.000 C 
BRANCH  16  18
ATOM     18  C   UNL     1       3.656   2.885  17.904  0.00  0.00    +0.000 C 
BRANCH  18  19
ATOM     19  C   UNL     1       4.786   3.882  17.758  0.00  0.00    +0.000 A 
ATOM     20  C   UNL     1       5.188   4.310  16.491  0.00  0.00    +0.000 A 
ATOM     21  C   UNL     1       6.205   5.260  16.345  0.00  0.00    +0.000 A 
ATOM     22  C   UNL     1       6.861   5.771  17.486  0.00  0.00    +0.000 A 
ATOM     23  C   UNL     1       6.479   5.323  18.769  0.00  0.00    +0.000 A 
ATOM     24  C   UNL     1       5.429   4.401  18.888  0.00  0.00    +0.000 A 
BRANCH  21  25
ATOM     25  O   UNL     1       6.617   5.728  15.119  0.00  0.00    +0.000 OA
ATOM     26  C   UNL     1       6.859   4.737  14.124  0.00  0.00    +0.000 C 
ENDBRANCH  21  25
BRANCH  22  27
ATOM     27  O   UNL     1       7.892   6.647  17.227  0.00  0.00    +0.000 OA
ATOM     28  C   UNL     1       7.669   8.017  17.539  0.00  0.00    +0.000 C 
ENDBRANCH  22  27
BRANCH  23  29
ATOM     29  O   UNL     1       7.173   5.796  19.851  0.00  0.00    +0.000 OA
ATOM     30  C   UNL     1       8.442   5.224  20.145  0.00  0.00    +0.000 C 
ENDBRANCH  23  29
ENDBRANCH  18  19
ENDBRANCH  16  18
ENDBRANCH   1  16
TORSDOF 10
ENDMDL
