MODEL 1
REMARK VINA RESULT:      -7.5      0.000      0.000
REMARK  Name = 
REMARK  5 active torsions:
REMARK  status: ('A' for Active; 'I' for Inactive)
REMARK    1  A    between atoms: C_1  and  C_2
REMARK    2  A    between atoms: C_2  and  N_3
REMARK    3  A    between atoms: C_4  and  C_6
REMARK    4  A    between atoms: C_6  and  C_7
REMARK    5  A    between atoms: C_10  and  C_11
REMARK                            x       y       z     vdW  Elec       q    Type
REMARK                         _______ _______ _______ _____ _____    ______ ____
ROOT
ATOM      1  C   UNL     1       6.916   4.335  13.555  0.00  0.00    +0.000 A 
ATOM      2  N   UNL     1       7.653   5.351  14.023  0.00  0.00    +0.000 NA
ATOM      3  N   UNL     1       7.226   5.426  15.293  0.00  0.00    +0.000 N 
ATOM      4  C   UNL     1       6.228   4.524  15.554  0.00  0.00    +0.000 A 
ATOM      5  N   UNL     1       6.051   3.793  14.471  0.00  0.00    +0.000 NA
ATOM      6  H   UNL     1       7.660   6.092  15.922  0.00  0.00    +0.000 HD
ENDROOT
BRANCH   4   7
ATOM      7  C   UNL     1       5.538   4.397  16.831  0.00  0.00    +0.000 A 
ATOM      8  C   UNL     1       6.209   4.491  18.050  0.00  0.00    +0.000 A 
ATOM      9  N   UNL     1       5.624   4.356  19.263  0.00  0.00    +0.000 NA
ATOM     10  C   UNL     1       4.287   4.131  19.265  0.00  0.00    +0.000 A 
ATOM     11  C   UNL     1       3.525   4.041  18.112  0.00  0.00    +0.000 A 
ATOM     12 BR   UNL     1       1.669   3.723  18.212  0.00  0.00    +0.000 Br
ATOM     13  C   UNL     1       4.157   4.182  16.878  0.00  0.00    +0.000 A 
ENDBRANCH   4   7
BRANCH   1  14
ATOM     14  C   UNL     1       7.049   3.828  12.171  0.00  0.00    +0.000 C 
BRANCH  14  16
ATOM     15  N   UNL     1       4.722   3.804  11.418  0.00  0.00    +0.000 N 
ATOM     16  C   UNL     1       5.827   3.043  11.749  0.00  0.00    +0.000 C 
ATOM     17  O   UNL     1       5.845   1.818  11.638  0.00  0.00    +0.000 OA
ATOM     18  H   UNL     1       4.739   4.796  11.638  0.00  0.00    +0.000 HD
BRANCH  15  20
ATOM     19  C   UNL     1       2.930   3.820   9.730  0.00  0.00    +0.000 C 
ATOM     20  C   UNL     1       3.476   3.198  11.002  0.00  0.00    +0.000 C 
ENDBRANCH  15  20
ENDBRANCH  14  16
ENDBRANCH   1  14
TORSDOF 4
ENDMDL
MODEL 2
REMARK VINA RESULT:      -7.2      3.748      6.742
REMARK  Name = 
REMARK  5 active torsions:
REMARK  status: ('A' for Active; 'I' for Inactive)
REMARK    1  A    between atoms: C_1  and  C_2
REMARK    2  A    between atoms: C_2  and  N_3
REMARK    3  A    between atoms: C_4  and  C_6
REMARK    4  A    between atoms: C_6  and  C_7
REMARK    5  A    between atoms: C_10  and  C_11
REMARK                            x       y       z     vdW  Elec       q    Type
REMARK                         _______ _______ _______ _____ _____    ______ ____
ROOT
ATOM      1  C   UNL     1       4.084   3.667  19.072  0.00  0.00    +0.000 A 
ATOM      2  N   UNL     1       5.281   3.662  19.674  0.00  0.00    +0.000 NA
ATOM      3  N   UNL     1       6.096   3.953  18.648  0.00  0.00    +0.000 N 
ATOM      4  C   UNL     1       5.412   4.070  17.466  0.00  0.00    +0.000 A 
ATOM      5  N   UNL     1       4.127   3.935  17.726  0.00  0.00    +0.000 NA
ATOM      6  H   UNL     1       7.088   4.071  18.822  0.00  0.00    +0.000 HD
ENDROOT
BRANCH   4   7
ATOM      7  C   UNL     1       6.030   4.339  16.174  0.00  0.00    +0.000 A 
ATOM      8  C   UNL     1       7.079   5.248  16.027  0.00  0.00    +0.000 A 
ATOM      9  N   UNL     1       7.671   5.555  14.850  0.00  0.00    +0.000 NA
ATOM     10  C   UNL     1       7.206   4.906  13.754  0.00  0.00    +0.000 A 
ATOM     11  C   UNL     1       6.185   3.972  13.794  0.00  0.00    +0.000 A 
ATOM     12 BR   UNL     1       5.601   3.122  12.216  0.00  0.00    +0.000 Br
ATOM     13  C   UNL     1       5.593   3.679  15.021  0.00  0.00    +0.000 A 
ENDBRANCH   4   7
BRANCH   1  14
ATOM     14  C   UNL     1       2.823   3.431  19.808  0.00  0.00    +0.000 C 
BRANCH  14  16
ATOM     15  N   UNL     1       2.803   5.877  19.780  0.00  0.00    +0.000 N 
ATOM     16  C   UNL     1       2.111   4.729  20.117  0.00  0.00    +0.000 C 
ATOM     17  O   UNL     1       0.966   4.753  20.567  0.00  0.00    +0.000 OA
ATOM     18  H   UNL     1       3.780   5.788  19.519  0.00  0.00    +0.000 HD
BRANCH  15  20
ATOM     19  C   UNL     1       2.143   8.012  18.747  0.00  0.00    +0.000 C 
ATOM     20  C   UNL     1       2.255   7.195  20.021  0.00  0.00    +0.000 C 
ENDBRANCH  15  20
ENDBRANCH  14  16
ENDBRANCH   1  14
TORSDOF 4
ENDMDL
MODEL 3
REMARK VINA RESULT:      -7.0      4.432      6.427
REMARK  Name = 
REMARK  5 active torsions:
REMARK  status: ('A' for Active; 'I' for Inactive)
REMARK    1  A    between atoms: C_1  and  C_2
REMARK    2  A    between atoms: C_2  and  N_3
REMARK    3  A    between atoms: C_4  and  C_6
REMARK    4  A    between atoms: C_6  and  C_7
REMARK    5  A    between atoms: C_10  and  C_11
REMARK                            x       y       z     vdW  Elec       q    Type
REMARK                         _______ _______ _______ _____ _____    ______ ____
ROOT
ATOM      1  C   UNL     1       7.184   5.453  18.395  0.00  0.00    +0.000 A 
ATOM      2  N   UNL     1       7.430   4.641  17.357  0.00  0.00    +0.000 NA
ATOM      3  N   UNL     1       6.256   4.002  17.235  0.00  0.00    +0.000 N 
ATOM      4  C   UNL     1       5.363   4.379  18.204  0.00  0.00    +0.000 A 
ATOM      5  N   UNL     1       5.923   5.333  18.922  0.00  0.00    +0.000 NA
ATOM      6  H   UNL     1       6.128   3.345  16.474  0.00  0.00    +0.000 HD
ENDROOT
BRANCH   4   7
ATOM      7  C   UNL     1       4.023   3.829  18.355  0.00  0.00    +0.000 A 
ATOM      8  C   UNL     1       3.204   3.555  17.258  0.00  0.00    +0.000 A 
ATOM      9  N   UNL     1       1.944   3.069  17.341  0.00  0.00    +0.000 NA
ATOM     10  C   UNL     1       1.475   2.822  18.589  0.00  0.00    +0.000 A 
ATOM     11  C   UNL     1       2.212   3.039  19.741  0.00  0.00    +0.000 A 
ATOM     12 BR   UNL     1       1.474   2.669  21.436  0.00  0.00    +0.000 Br
ATOM     13  C   UNL     1       3.506   3.543  19.622  0.00  0.00    +0.000 A 
ENDBRANCH   4   7
BRANCH   1  14
ATOM     14  C   UNL     1       8.186   6.414  18.907  0.00  0.00    +0.000 C 
BRANCH  14  16
ATOM     15  N   UNL     1       8.801   8.778  18.780  0.00  0.00    +0.000 N 
ATOM     16  C   UNL     1       8.080   7.749  18.204  0.00  0.00    +0.000 C 
ATOM     17  O   UNL     1       7.456   7.885  17.153  0.00  0.00    +0.000 OA
ATOM     18  H   UNL     1       9.200   8.627  19.702  0.00  0.00    +0.000 HD
BRANCH  15  20
ATOM     19  C   UNL     1       9.415  11.130  19.171  0.00  0.00    +0.000 C 
ATOM     20  C   UNL     1       8.795  10.116  18.227  0.00  0.00    +0.000 C 
ENDBRANCH  15  20
ENDBRANCH  14  16
ENDBRANCH   1  14
TORSDOF 4
ENDMDL
MODEL 4
REMARK VINA RESULT:      -6.8      2.518      3.437
REMARK  Name = 
REMARK  5 active torsions:
REMARK  status: ('A' for Active; 'I' for Inactive)
REMARK    1  A    between atoms: C_1  and  C_2
REMARK    2  A    between atoms: C_2  and  N_3
REMARK    3  A    between atoms: C_4  and  C_6
REMARK    4  A    between atoms: C_6  and  C_7
REMARK    5  A    between atoms: C_10  and  C_11
REMARK                            x       y       z     vdW  Elec       q    Type
REMARK                         _______ _______ _______ _____ _____    ______ ____
ROOT
ATOM      1  C   UNL     1       6.067   5.335  16.389  0.00  0.00    +0.000 A 
ATOM      2  N   UNL     1       5.459   6.375  15.801  0.00  0.00    +0.000 NA
ATOM      3  N   UNL     1       4.465   6.627  16.667  0.00  0.00    +0.000 N 
ATOM      4  C   UNL     1       4.448   5.731  17.704  0.00  0.00    +0.000 A 
ATOM      5  N   UNL     1       5.487   4.931  17.566  0.00  0.00    +0.000 NA
ATOM      6  H   UNL     1       3.855   7.418  16.502  0.00  0.00    +0.000 HD
ENDROOT
BRANCH   4   7
ATOM      7  C   UNL     1       3.462   5.723  18.776  0.00  0.00    +0.000 A 
ATOM      8  C   UNL     1       2.783   6.877  19.169  0.00  0.00    +0.000 A 
ATOM      9  N   UNL     1       1.878   6.933  20.174  0.00  0.00    +0.000 NA
ATOM     10  C   UNL     1       1.618   5.767  20.815  0.00  0.00    +0.000 A 
ATOM     11  C   UNL     1       2.222   4.564  20.491  0.00  0.00    +0.000 A 
ATOM     12 BR   UNL     1       1.800   2.992  21.443  0.00  0.00    +0.000 Br
ATOM     13  C   UNL     1       3.152   4.540  19.453  0.00  0.00    +0.000 A 
ENDBRANCH   4   7
BRANCH   1  14
ATOM     14  C   UNL     1       7.279   4.700  15.826  0.00  0.00    +0.000 C 
BRANCH  14  16
ATOM     15  N   UNL     1       6.403   3.738  13.754  0.00  0.00    +0.000 N 
ATOM     16  C   UNL     1       7.242   4.683  14.314  0.00  0.00    +0.000 C 
ATOM     17  O   UNL     1       7.860   5.505  13.638  0.00  0.00    +0.000 OA
ATOM     18  H   UNL     1       6.013   3.024  14.361  0.00  0.00    +0.000 HD
BRANCH  15  20
ATOM     19  C   UNL     1       4.854   3.216  11.913  0.00  0.00    +0.000 C 
ATOM     20  C   UNL     1       6.267   3.595  12.320  0.00  0.00    +0.000 C 
ENDBRANCH  15  20
ENDBRANCH  14  16
ENDBRANCH   1  14
TORSDOF 4
ENDMDL
MODEL 5
REMARK VINA RESULT:      -6.8      1.416      1.646
REMARK  Name = 
REMARK  5 active torsions:
REMARK  status: ('A' for Active; 'I' for Inactive)
REMARK    1  A    between atoms: C_1  and  C_2
REMARK    2  A    between atoms: C_2  and  N_3
REMARK    3  A    between atoms: C_4  and  C_6
REMARK    4  A    between atoms: C_6  and  C_7
REMARK    5  A    between atoms: C_10  and  C_11
REMARK                            x       y       z     vdW  Elec       q    Type
REMARK                         _______ _______ _______ _____ _____    ______ ____
ROOT
ATOM      1  C   UNL     1       6.639   4.537  14.624  0.00  0.00    +0.000 A 
ATOM      2  N   UNL     1       7.467   4.256  15.640  0.00  0.00    +0.000 NA
ATOM      3  N   UNL     1       6.623   4.274  16.684  0.00  0.00    +0.000 N 
ATOM      4  C   UNL     1       5.349   4.612  16.308  0.00  0.00    +0.000 A 
ATOM      5  N   UNL     1       5.333   4.739  14.997  0.00  0.00    +0.000 NA
ATOM      6  H   UNL     1       6.972   4.037  17.605  0.00  0.00    +0.000 HD
ENDROOT
BRANCH   4   7
ATOM      7  C   UNL     1       4.226   4.755  17.225  0.00  0.00    +0.000 A 
ATOM      8  C   UNL     1       3.966   5.946  17.903  0.00  0.00    +0.000 A 
ATOM      9  N   UNL     1       2.955   6.126  18.784  0.00  0.00    +0.000 NA
ATOM     10  C   UNL     1       2.140   5.063  18.991  0.00  0.00    +0.000 A 
ATOM     11  C   UNL     1       2.298   3.842  18.354  0.00  0.00    +0.000 A 
ATOM     12 BR   UNL     1       1.117   2.417  18.709  0.00  0.00    +0.000 Br
ATOM     13  C   UNL     1       3.351   3.688  17.455  0.00  0.00    +0.000 A 
ENDBRANCH   4   7
BRANCH   1  14
ATOM     14  C   UNL     1       7.096   4.596  13.219  0.00  0.00    +0.000 C 
BRANCH  14  16
ATOM     15  N   UNL     1       5.018   3.810  12.196  0.00  0.00    +0.000 N 
ATOM     16  C   UNL     1       6.372   3.585  12.358  0.00  0.00    +0.000 C 
ATOM     17  O   UNL     1       6.966   2.673  11.784  0.00  0.00    +0.000 OA
ATOM     18  H   UNL     1       4.574   4.509  12.783  0.00  0.00    +0.000 HD
BRANCH  15  20
ATOM     19  C   UNL     1       3.374   3.676  10.368  0.00  0.00    +0.000 C 
ATOM     20  C   UNL     1       4.188   2.925  11.406  0.00  0.00    +0.000 C 
ENDBRANCH  15  20
ENDBRANCH  14  16
ENDBRANCH   1  14
TORSDOF 4
ENDMDL
MODEL 6
REMARK VINA RESULT:      -6.7      2.366      3.676
REMARK  Name = 
REMARK  5 active torsions:
REMARK  status: ('A' for Active; 'I' for Inactive)
REMARK    1  A    between atoms: C_1  and  C_2
REMARK    2  A    between atoms: C_2  and  N_3
REMARK    3  A    between atoms: C_4  and  C_6
REMARK    4  A    between atoms: C_6  and  C_7
REMARK    5  A    between atoms: C_10  and  C_11
REMARK                            x       y       z     vdW  Elec       q    Type
REMARK                         _______ _______ _______ _____ _____    ______ ____
ROOT
ATOM      1  C   UNL     1       6.613   4.421  17.020  0.00  0.00    +0.000 A 
ATOM      2  N   UNL     1       7.031   4.394  18.293  0.00  0.00    +0.000 NA
ATOM      3  N   UNL     1       5.913   4.014  18.931  0.00  0.00    +0.000 N 
ATOM      4  C   UNL     1       4.852   3.877  18.073  0.00  0.00    +0.000 A 
ATOM      5  N   UNL     1       5.292   4.089  16.849  0.00  0.00    +0.000 NA
ATOM      6  H   UNL     1       5.945   3.854  19.931  0.00  0.00    +0.000 HD
ENDROOT
BRANCH   4   7
ATOM      7  C   UNL     1       3.500   3.517  18.478  0.00  0.00    +0.000 A 
ATOM      8  C   UNL     1       2.449   3.430  17.565  0.00  0.00    +0.000 A 
ATOM      9  N   UNL     1       1.171   3.126  17.889  0.00  0.00    +0.000 NA
ATOM     10  C   UNL     1       0.925   2.876  19.198  0.00  0.00    +0.000 A 
ATOM     11  C   UNL     1       1.900   2.916  20.181  0.00  0.00    +0.000 A 
ATOM     12 BR   UNL     1       1.463   2.557  21.980  0.00  0.00    +0.000 Br
ATOM     13  C   UNL     1       3.206   3.235  19.816  0.00  0.00    +0.000 A 
ENDBRANCH   4   7
BRANCH   1  14
ATOM     14  C   UNL     1       7.514   4.756  15.895  0.00  0.00    +0.000 C 
BRANCH  14  16
ATOM     15  N   UNL     1       6.456   3.562  14.040  0.00  0.00    +0.000 N 
ATOM     16  C   UNL     1       6.766   4.795  14.580  0.00  0.00    +0.000 C 
ATOM     17  O   UNL     1       6.397   5.853  14.072  0.00  0.00    +0.000 OA
ATOM     18  H   UNL     1       6.884   2.737  14.450  0.00  0.00    +0.000 HD
BRANCH  15  20
ATOM     19  C   UNL     1       6.604   2.796  11.705  0.00  0.00    +0.000 C 
ATOM     20  C   UNL     1       5.749   3.437  12.783  0.00  0.00    +0.000 C 
ENDBRANCH  15  20
ENDBRANCH  14  16
ENDBRANCH   1  14
TORSDOF 4
ENDMDL
MODEL 7
REMARK VINA RESULT:      -6.7      1.654      2.029
REMARK  Name = 
REMARK  5 active torsions:
REMARK  status: ('A' for Active; 'I' for Inactive)
REMARK    1  A    between atoms: C_1  and  C_2
REMARK    2  A    between atoms: C_2  and  N_3
REMARK    3  A    between atoms: C_4  and  C_6
REMARK    4  A    between atoms: C_6  and  C_7
REMARK    5  A    between atoms: C_10  and  C_11
REMARK                            x       y       z     vdW  Elec       q    Type
REMARK                         _______ _______ _______ _____ _____    ______ ____
ROOT
ATOM      1  C   UNL     1       6.497   4.439  14.946  0.00  0.00    +0.000 A 
ATOM      2  N   UNL     1       7.383   4.412  15.951  0.00  0.00    +0.000 NA
ATOM      3  N   UNL     1       6.600   4.069  16.986  0.00  0.00    +0.000 N 
ATOM      4  C   UNL     1       5.284   3.953  16.619  0.00  0.00    +0.000 A 
ATOM      5  N   UNL     1       5.209   4.141  15.317  0.00  0.00    +0.000 NA
ATOM      6  H   UNL     1       7.021   3.918  17.896  0.00  0.00    +0.000 HD
ENDROOT
BRANCH   4   7
ATOM      7  C   UNL     1       4.195   3.633  17.532  0.00  0.00    +0.000 A 
ATOM      8  C   UNL     1       3.618   2.364  17.585  0.00  0.00    +0.000 A 
ATOM      9  N   UNL     1       2.589   2.019  18.393  0.00  0.00    +0.000 NA
ATOM     10  C   UNL     1       2.115   2.990  19.212  0.00  0.00    +0.000 A 
ATOM     11  C   UNL     1       2.630   4.276  19.252  0.00  0.00    +0.000 A 
ATOM     12 BR   UNL     1       1.902   5.562  20.422  0.00  0.00    +0.000 Br
ATOM     13  C   UNL     1       3.688   4.600  18.405  0.00  0.00    +0.000 A 
ENDBRANCH   4   7
BRANCH   1  14
ATOM     14  C   UNL     1       6.887   4.738  13.551  0.00  0.00    +0.000 C 
BRANCH  14  16
ATOM     15  N   UNL     1       4.967   3.857  12.317  0.00  0.00    +0.000 N 
ATOM     16  C   UNL     1       6.316   3.722  12.586  0.00  0.00    +0.000 C 
ATOM     17  O   UNL     1       7.023   2.886  12.027  0.00  0.00    +0.000 OA
ATOM     18  H   UNL     1       4.424   4.493  12.893  0.00  0.00    +0.000 HD
BRANCH  15  20
ATOM     19  C   UNL     1       3.363   3.693  10.456  0.00  0.00    +0.000 C 
ATOM     20  C   UNL     1       4.276   2.956  11.420  0.00  0.00    +0.000 C 
ENDBRANCH  15  20
ENDBRANCH  14  16
ENDBRANCH   1  14
TORSDOF 4
ENDMDL
MODEL 8
REMARK VINA RESULT:      -6.7      1.527      1.687
REMARK  Name = 
REMARK  5 active torsions:
REMARK  status: ('A' for Active; 'I' for Inactive)
REMARK    1  A    between atoms: C_1  and  C_2
REMARK    2  A    between atoms: C_2  and  N_3
REMARK    3  A    between atoms: C_4  and  C_6
REMARK    4  A    between atoms: C_6  and  C_7
REMARK    5  A    between atoms: C_10  and  C_11
REMARK                            x       y       z     vdW  Elec       q    Type
REMARK                         _______ _______ _______ _____ _____    ______ ____
ROOT
ATOM      1  C   UNL     1       6.531   4.287  14.036  0.00  0.00    +0.000 A 
ATOM      2  N   UNL     1       7.452   4.674  14.929  0.00  0.00    +0.000 NA
ATOM      3  N   UNL     1       6.714   4.776  16.046  0.00  0.00    +0.000 N 
ATOM      4  C   UNL     1       5.389   4.515  15.811  0.00  0.00    +0.000 A 
ATOM      5  N   UNL     1       5.264   4.159  14.548  0.00  0.00    +0.000 NA
ATOM      6  H   UNL     1       7.170   5.009  16.920  0.00  0.00    +0.000 HD
ENDROOT
BRANCH   4   7
ATOM      7  C   UNL     1       4.339   4.588  16.818  0.00  0.00    +0.000 A 
ATOM      8  C   UNL     1       3.703   3.448  17.313  0.00  0.00    +0.000 A 
ATOM      9  N   UNL     1       2.706   3.459  18.228  0.00  0.00    +0.000 NA
ATOM     10  C   UNL     1       2.330   4.675  18.693  0.00  0.00    +0.000 A 
ATOM     11  C   UNL     1       2.909   5.865  18.284  0.00  0.00    +0.000 A 
ATOM     12 BR   UNL     1       2.316   7.511  18.985  0.00  0.00    +0.000 Br
ATOM     13  C   UNL     1       3.932   5.820  17.338  0.00  0.00    +0.000 A 
ENDBRANCH   4   7
BRANCH   1  14
ATOM     14  C   UNL     1       6.865   3.997  12.625  0.00  0.00    +0.000 C 
BRANCH  14  16
ATOM     15  N   UNL     1       4.637   3.835  11.628  0.00  0.00    +0.000 N 
ATOM     16  C   UNL     1       5.794   3.158  11.963  0.00  0.00    +0.000 C 
ATOM     17  O   UNL     1       5.976   1.975  11.679  0.00  0.00    +0.000 OA
ATOM     18  H   UNL     1       4.510   4.775  11.990  0.00  0.00    +0.000 HD
BRANCH  15  20
ATOM     19  C   UNL     1       3.009   3.924   9.784  0.00  0.00    +0.000 C 
ATOM     20  C   UNL     1       3.519   3.167  10.996  0.00  0.00    +0.000 C 
ENDBRANCH  15  20
ENDBRANCH  14  16
ENDBRANCH   1  14
TORSDOF 4
ENDMDL
MODEL 9
REMARK VINA RESULT:      -6.6      1.943      2.522
REMARK  Name = 
REMARK  5 active torsions:
REMARK  status: ('A' for Active; 'I' for Inactive)
REMARK    1  A    between atoms: C_1  and  C_2
REMARK    2  A    between atoms: C_2  and  N_3
REMARK    3  A    between atoms: C_4  and  C_6
REMARK    4  A    between atoms: C_6  and  C_7
REMARK    5  A    between atoms: C_10  and  C_11
REMARK                            x       y       z     vdW  Elec       q    Type
REMARK                         _______ _______ _______ _____ _____    ______ ____
ROOT
ATOM      1  C   UNL     1       6.294   5.033  15.093  0.00  0.00    +0.000 A 
ATOM      2  N   UNL     1       5.891   6.290  15.326  0.00  0.00    +0.000 NA
ATOM      3  N   UNL     1       4.887   6.090  16.195  0.00  0.00    +0.000 N 
ATOM      4  C   UNL     1       4.665   4.757  16.425  0.00  0.00    +0.000 A 
ATOM      5  N   UNL     1       5.580   4.074  15.766  0.00  0.00    +0.000 NA
ATOM      6  H   UNL     1       4.415   6.891  16.597  0.00  0.00    +0.000 HD
ENDROOT
BRANCH   4   7
ATOM      7  C   UNL     1       3.616   4.229  17.288  0.00  0.00    +0.000 A 
ATOM      8  C   UNL     1       2.957   3.031  17.009  0.00  0.00    +0.000 A 
ATOM      9  N   UNL     1       1.960   2.508  17.759  0.00  0.00    +0.000 NA
ATOM     10  C   UNL     1       1.608   3.209  18.865  0.00  0.00    +0.000 A 
ATOM     11  C   UNL     1       2.212   4.397  19.243  0.00  0.00    +0.000 A 
ATOM     12 BR   UNL     1       1.652   5.305  20.798  0.00  0.00    +0.000 Br
ATOM     13  C   UNL     1       3.234   4.911  18.447  0.00  0.00    +0.000 A 
ENDBRANCH   4   7
BRANCH   1  14
ATOM     14  C   UNL     1       7.433   4.717  14.204  0.00  0.00    +0.000 C 
BRANCH  14  16
ATOM     15  N   UNL     1       5.978   3.203  12.949  0.00  0.00    +0.000 N 
ATOM     16  C   UNL     1       6.962   4.170  12.875  0.00  0.00    +0.000 C 
ATOM     17  O   UNL     1       7.376   4.614  11.804  0.00  0.00    +0.000 OA
ATOM     18  H   UNL     1       5.764   2.806  13.859  0.00  0.00    +0.000 HD
BRANCH  15  20
ATOM     19  C   UNL     1       4.150   3.250  11.300  0.00  0.00    +0.000 C 
ATOM     20  C   UNL     1       5.431   2.579  11.763  0.00  0.00    +0.000 C 
ENDBRANCH  15  20
ENDBRANCH  14  16
ENDBRANCH   1  14
TORSDOF 4
ENDMDL
