MODEL 1
REMARK VINA RESULT:      -6.9      0.000      0.000
REMARK  Name = 
REMARK  13 active torsions:
REMARK  status: ('A' for Active; 'I' for Inactive)
REMARK    1  A    between atoms: C_1  and  C_2
REMARK    2  A    between atoms: C_2  and  C_3
REMARK    3  A    between atoms: C_3  and  N_4
REMARK    4  A    between atoms: N_4  and  C_5
REMARK    5  A    between atoms: N_4  and  C_8
REMARK    6  A    between atoms: C_5  and  C_6
REMARK    7  A    between atoms: C_6  and  C_7
REMARK    8  A    between atoms: C_8  and  C_9
REMARK    9  A    between atoms: C_9  and  C_10
REMARK   10  A    between atoms: C_16  and  O_17
REMARK   11  A    between atoms: O_17  and  C_18
REMARK   12  A    between atoms: C_18  and  C_19
REMARK   13  A    between atoms: C_19  and  C_20
REMARK                            x       y       z     vdW  Elec       q    Type
REMARK                         _______ _______ _______ _____ _____    ______ ____
ROOT
ATOM      1  C   UNL     1       3.881   6.818  17.108  0.00  0.00    +0.000 A 
ATOM      2  C   UNL     1       3.214   8.040  17.347  0.00  0.00    +0.000 A 
ATOM      3  C   UNL     1       2.258   8.155  18.350  0.00  0.00    +0.000 A 
ATOM      4 BR   UNL     1       1.398   9.810  18.649  0.00  0.00    +0.000 Br
ATOM      5  C   UNL     1       1.950   7.060  19.140  0.00  0.00    +0.000 A 
ATOM      6  C   UNL     1       2.572   5.836  18.893  0.00  0.00    +0.000 A 
ATOM      7  C   UNL     1       3.504   5.678  17.851  0.00  0.00    +0.000 A 
ENDROOT
BRANCH   1   8
ATOM      8  C   UNL     1       4.982   6.831  16.063  0.00  0.00    +0.000 C 
BRANCH   8   9
ATOM      9  C   UNL     1       6.414   6.786  16.672  0.00  0.00    +0.000 C 
BRANCH   9  10
ATOM     10  N   UNL     1       7.258   5.685  16.188  0.00  0.00    +0.000 NA
BRANCH  10  11
ATOM     11  C   UNL     1       7.496   4.657  17.201  0.00  0.00    +0.000 C 
BRANCH  11  13
ATOM     12  C   UNL     1       8.096   5.740  19.406  0.00  0.00    +0.000 C 
ATOM     13  C   UNL     1       7.020   5.009  18.618  0.00  0.00    +0.000 C 
ENDBRANCH  11  13
ENDBRANCH  10  11
BRANCH  10  14
ATOM     14  C   UNL     1       6.927   5.246  14.832  0.00  0.00    +0.000 C 
BRANCH  14  15
ATOM     15  C   UNL     1       6.253   3.899  14.546  0.00  0.00    +0.000 C 
ATOM     16  C   UNL     1       6.048   3.546  13.083  0.00  0.00    +0.000 C 
ENDBRANCH  14  15
ENDBRANCH  10  14
ENDBRANCH   9  10
ENDBRANCH   8   9
ENDBRANCH   1   8
BRANCH   7  17
ATOM     17  O   UNL     1       4.045   4.449  17.516  0.00  0.00    +0.000 OA
BRANCH  17  18
ATOM     18  C   UNL     1       3.133   3.547  16.855  0.00  0.00    +0.000 C 
BRANCH  18  19
ATOM     19  C   UNL     1       2.841   2.273  17.654  0.00  0.00    +0.000 C 
BRANCH  19  20
ATOM     20  C   UNL     1       2.406   2.506  19.079  0.00  0.00    +0.000 A 
ATOM     21  C   UNL     1       1.073   2.812  19.395  0.00  0.00    +0.000 A 
ATOM     22  C   UNL     1       0.683   2.980  20.726  0.00  0.00    +0.000 A 
ATOM     23  C   UNL     1       1.618   2.843  21.751  0.00  0.00    +0.000 A 
ATOM     24  C   UNL     1       2.944   2.542  21.445  0.00  0.00    +0.000 A 
ATOM     25  C   UNL     1       3.336   2.383  20.114  0.00  0.00    +0.000 A 
ENDBRANCH  19  20
ENDBRANCH  18  19
ENDBRANCH  17  18
ENDBRANCH   7  17
TORSDOF 11
ENDMDL
MODEL 2
REMARK VINA RESULT:      -6.7      1.757      3.442
REMARK  Name = 
REMARK  13 active torsions:
REMARK  status: ('A' for Active; 'I' for Inactive)
REMARK    1  A    between atoms: C_1  and  C_2
REMARK    2  A    between atoms: C_2  and  C_3
REMARK    3  A    between atoms: C_3  and  N_4
REMARK    4  A    between atoms: N_4  and  C_5
REMARK    5  A    between atoms: N_4  and  C_8
REMARK    6  A    between atoms: C_5  and  C_6
REMARK    7  A    between atoms: C_6  and  C_7
REMARK    8  A    between atoms: C_8  and  C_9
REMARK    9  A    between atoms: C_9  and  C_10
REMARK   10  A    between atoms: C_16  and  O_17
REMARK   11  A    between atoms: O_17  and  C_18
REMARK   12  A    between atoms: C_18  and  C_19
REMARK   13  A    between atoms: C_19  and  C_20
REMARK                            x       y       z     vdW  Elec       q    Type
REMARK                         _______ _______ _______ _____ _____    ______ ____
ROOT
ATOM      1  C   UNL     1       1.916   8.199  18.543  0.00  0.00    +0.000 A 
ATOM      2  C   UNL     1       1.254   9.423  18.303  0.00  0.00    +0.000 A 
ATOM      3  C   UNL     1       0.695  10.156  19.343  0.00  0.00    +0.000 A 
ATOM      4 BR   UNL     1      -0.171  11.797  18.986  0.00  0.00    +0.000 Br
ATOM      5  C   UNL     1       0.790   9.691  20.644  0.00  0.00    +0.000 A 
ATOM      6  C   UNL     1       1.408   8.466  20.895  0.00  0.00    +0.000 A 
ATOM      7  C   UNL     1       1.935   7.679  19.855  0.00  0.00    +0.000 A 
ENDROOT
BRANCH   1   8
ATOM      8  C   UNL     1       2.583   7.536  17.351  0.00  0.00    +0.000 C 
BRANCH   8   9
ATOM      9  C   UNL     1       4.119   7.357  17.521  0.00  0.00    +0.000 C 
BRANCH   9  10
ATOM     10  N   UNL     1       4.637   6.040  17.126  0.00  0.00    +0.000 NA
BRANCH  10  11
ATOM     11  C   UNL     1       5.176   6.020  15.765  0.00  0.00    +0.000 C 
BRANCH  11  13
ATOM     12  C   UNL     1       6.878   4.477  14.710  0.00  0.00    +0.000 C 
ATOM     13  C   UNL     1       5.441   4.624  15.184  0.00  0.00    +0.000 C 
ENDBRANCH  11  13
ENDBRANCH  10  11
BRANCH  10  14
ATOM     14  C   UNL     1       5.406   5.373  18.176  0.00  0.00    +0.000 C 
BRANCH  14  15
ATOM     15  C   UNL     1       6.871   5.719  18.467  0.00  0.00    +0.000 C 
ATOM     16  C   UNL     1       7.899   4.665  18.093  0.00  0.00    +0.000 C 
ENDBRANCH  14  15
ENDBRANCH  10  14
ENDBRANCH   9  10
ENDBRANCH   8   9
ENDBRANCH   1   8
BRANCH   7  17
ATOM     17  O   UNL     1       2.448   6.411  20.067  0.00  0.00    +0.000 OA
BRANCH  17  18
ATOM     18  C   UNL     1       1.677   5.590  20.970  0.00  0.00    +0.000 C 
BRANCH  18  19
ATOM     19  C   UNL     1       0.980   4.411  20.285  0.00  0.00    +0.000 C 
BRANCH  19  20
ATOM     20  C   UNL     1       1.854   3.618  19.346  0.00  0.00    +0.000 A 
ATOM     21  C   UNL     1       1.739   3.753  17.954  0.00  0.00    +0.000 A 
ATOM     22  C   UNL     1       2.589   3.041  17.103  0.00  0.00    +0.000 A 
ATOM     23  C   UNL     1       3.559   2.193  17.633  0.00  0.00    +0.000 A 
ATOM     24  C   UNL     1       3.677   2.051  19.014  0.00  0.00    +0.000 A 
ATOM     25  C   UNL     1       2.822   2.755  19.865  0.00  0.00    +0.000 A 
ENDBRANCH  19  20
ENDBRANCH  18  19
ENDBRANCH  17  18
ENDBRANCH   7  17
TORSDOF 11
ENDMDL
MODEL 3
REMARK VINA RESULT:      -6.7      2.923      6.908
REMARK  Name = 
REMARK  13 active torsions:
REMARK  status: ('A' for Active; 'I' for Inactive)
REMARK    1  A    between atoms: C_1  and  C_2
REMARK    2  A    between atoms: C_2  and  C_3
REMARK    3  A    between atoms: C_3  and  N_4
REMARK    4  A    between atoms: N_4  and  C_5
REMARK    5  A    between atoms: N_4  and  C_8
REMARK    6  A    between atoms: C_5  and  C_6
REMARK    7  A    between atoms: C_6  and  C_7
REMARK    8  A    between atoms: C_8  and  C_9
REMARK    9  A    between atoms: C_9  and  C_10
REMARK   10  A    between atoms: C_16  and  O_17
REMARK   11  A    between atoms: O_17  and  C_18
REMARK   12  A    between atoms: C_18  and  C_19
REMARK   13  A    between atoms: C_19  and  C_20
REMARK                            x       y       z     vdW  Elec       q    Type
REMARK                         _______ _______ _______ _____ _____    ______ ____
ROOT
ATOM      1  C   UNL     1       3.038   5.425  18.819  0.00  0.00    +0.000 A 
ATOM      2  C   UNL     1       2.357   4.811  19.893  0.00  0.00    +0.000 A 
ATOM      3  C   UNL     1       2.481   3.449  20.141  0.00  0.00    +0.000 A 
ATOM      4 BR   UNL     1       1.567   2.666  21.596  0.00  0.00    +0.000 Br
ATOM      5  C   UNL     1       3.290   2.671  19.329  0.00  0.00    +0.000 A 
ATOM      6  C   UNL     1       3.940   3.254  18.242  0.00  0.00    +0.000 A 
ATOM      7  C   UNL     1       3.790   4.619  17.937  0.00  0.00    +0.000 A 
ENDROOT
BRANCH   1   8
ATOM      8  C   UNL     1       2.917   6.935  18.704  0.00  0.00    +0.000 C 
BRANCH   8   9
ATOM      9  C   UNL     1       2.024   7.569  19.810  0.00  0.00    +0.000 C 
BRANCH   9  10
ATOM     10  N   UNL     1       1.598   8.951  19.543  0.00  0.00    +0.000 NA
BRANCH  10  11
ATOM     11  C   UNL     1       1.008   9.123  18.215  0.00  0.00    +0.000 C 
BRANCH  11  13
ATOM     12  C   UNL     1      -1.320   9.739  17.446  0.00  0.00    +0.000 C 
ATOM     13  C   UNL     1      -0.042  10.237  18.103  0.00  0.00    +0.000 C 
ENDBRANCH  11  13
ENDBRANCH  10  11
BRANCH  10  14
ATOM     14  C   UNL     1       0.927   9.585  20.677  0.00  0.00    +0.000 C 
BRANCH  14  15
ATOM     15  C   UNL     1      -0.114   8.852  21.532  0.00  0.00    +0.000 C 
ATOM     16  C   UNL     1      -0.286   9.349  22.957  0.00  0.00    +0.000 C 
ENDBRANCH  14  15
ENDBRANCH  10  14
ENDBRANCH   9  10
ENDBRANCH   8   9
ENDBRANCH   1   8
BRANCH   7  17
ATOM     17  O   UNL     1       4.330   5.192  16.799  0.00  0.00    +0.000 OA
BRANCH  17  18
ATOM     18  C   UNL     1       4.942   4.260  15.884  0.00  0.00    +0.000 C 
BRANCH  18  19
ATOM     19  C   UNL     1       6.472   4.245  15.952  0.00  0.00    +0.000 C 
BRANCH  19  20
ATOM     20  C   UNL     1       7.072   5.233  16.920  0.00  0.00    +0.000 A 
ATOM     21  C   UNL     1       7.118   6.605  16.627  0.00  0.00    +0.000 A 
ATOM     22  C   UNL     1       7.639   7.508  17.558  0.00  0.00    +0.000 A 
ATOM     23  C   UNL     1       8.115   7.051  18.786  0.00  0.00    +0.000 A 
ATOM     24  C   UNL     1       8.075   5.690  19.082  0.00  0.00    +0.000 A 
ATOM     25  C   UNL     1       7.563   4.786  18.149  0.00  0.00    +0.000 A 
ENDBRANCH  19  20
ENDBRANCH  18  19
ENDBRANCH  17  18
ENDBRANCH   7  17
TORSDOF 11
ENDMDL
MODEL 4
REMARK VINA RESULT:      -6.6      2.651      4.970
REMARK  Name = 
REMARK  13 active torsions:
REMARK  status: ('A' for Active; 'I' for Inactive)
REMARK    1  A    between atoms: C_1  and  C_2
REMARK    2  A    between atoms: C_2  and  C_3
REMARK    3  A    between atoms: C_3  and  N_4
REMARK    4  A    between atoms: N_4  and  C_5
REMARK    5  A    between atoms: N_4  and  C_8
REMARK    6  A    between atoms: C_5  and  C_6
REMARK    7  A    between atoms: C_6  and  C_7
REMARK    8  A    between atoms: C_8  and  C_9
REMARK    9  A    between atoms: C_9  and  C_10
REMARK   10  A    between atoms: C_16  and  O_17
REMARK   11  A    between atoms: O_17  and  C_18
REMARK   12  A    between atoms: C_18  and  C_19
REMARK   13  A    between atoms: C_19  and  C_20
REMARK                            x       y       z     vdW  Elec       q    Type
REMARK                         _______ _______ _______ _____ _____    ______ ____
ROOT
ATOM      1  C   UNL     1       3.114   4.679  18.261  0.00  0.00    +0.000 A 
ATOM      2  C   UNL     1       2.880   3.673  19.225  0.00  0.00    +0.000 A 
ATOM      3  C   UNL     1       2.281   3.969  20.444  0.00  0.00    +0.000 A 
ATOM      4 BR   UNL     1       1.971   2.595  21.703  0.00  0.00    +0.000 Br
ATOM      5  C   UNL     1       1.895   5.268  20.726  0.00  0.00    +0.000 A 
ATOM      6  C   UNL     1       2.152   6.280  19.801  0.00  0.00    +0.000 A 
ATOM      7  C   UNL     1       2.804   6.018  18.582  0.00  0.00    +0.000 A 
ENDROOT
BRANCH   1   8
ATOM      8  C   UNL     1       3.674   4.228  16.923  0.00  0.00    +0.000 C 
BRANCH   8   9
ATOM      9  C   UNL     1       5.229   4.202  16.882  0.00  0.00    +0.000 C 
BRANCH   9  10
ATOM     10  N   UNL     1       5.852   5.371  16.245  0.00  0.00    +0.000 NA
BRANCH  10  11
ATOM     11  C   UNL     1       6.861   6.013  17.087  0.00  0.00    +0.000 C 
BRANCH  11  13
ATOM     12  C   UNL     1       7.830   5.735  19.406  0.00  0.00    +0.000 C 
ATOM     13  C   UNL     1       7.601   5.077  18.054  0.00  0.00    +0.000 C 
ENDBRANCH  11  13
ENDBRANCH  10  11
BRANCH  10  14
ATOM     14  C   UNL     1       6.168   5.169  14.831  0.00  0.00    +0.000 C 
BRANCH  14  15
ATOM     15  C   UNL     1       6.273   3.773  14.204  0.00  0.00    +0.000 C 
ATOM     16  C   UNL     1       5.822   3.649  12.759  0.00  0.00    +0.000 C 
ENDBRANCH  14  15
ENDBRANCH  10  14
ENDBRANCH   9  10
ENDBRANCH   8   9
ENDBRANCH   1   8
BRANCH   7  17
ATOM     17  O   UNL     1       3.172   7.022  17.703  0.00  0.00    +0.000 OA
BRANCH  17  18
ATOM     18  C   UNL     1       2.831   8.356  18.132  0.00  0.00    +0.000 C 
BRANCH  18  19
ATOM     19  C   UNL     1       1.567   8.911  17.467  0.00  0.00    +0.000 C 
BRANCH  19  20
ATOM     20  C   UNL     1       0.655   9.683  18.388  0.00  0.00    +0.000 A 
ATOM     21  C   UNL     1      -0.595  10.150  17.954  0.00  0.00    +0.000 A 
ATOM     22  C   UNL     1      -1.442  10.825  18.836  0.00  0.00    +0.000 A 
ATOM     23  C   UNL     1      -1.050  11.038  20.157  0.00  0.00    +0.000 A 
ATOM     24  C   UNL     1       0.192  10.581  20.594  0.00  0.00    +0.000 A 
ATOM     25  C   UNL     1       1.043   9.914  19.710  0.00  0.00    +0.000 A 
ENDBRANCH  19  20
ENDBRANCH  18  19
ENDBRANCH  17  18
ENDBRANCH   7  17
TORSDOF 11
ENDMDL
MODEL 5
REMARK VINA RESULT:      -6.6      1.543      3.544
REMARK  Name = 
REMARK  13 active torsions:
REMARK  status: ('A' for Active; 'I' for Inactive)
REMARK    1  A    between atoms: C_1  and  C_2
REMARK    2  A    between atoms: C_2  and  C_3
REMARK    3  A    between atoms: C_3  and  N_4
REMARK    4  A    between atoms: N_4  and  C_5
REMARK    5  A    between atoms: N_4  and  C_8
REMARK    6  A    between atoms: C_5  and  C_6
REMARK    7  A    between atoms: C_6  and  C_7
REMARK    8  A    between atoms: C_8  and  C_9
REMARK    9  A    between atoms: C_9  and  C_10
REMARK   10  A    between atoms: C_16  and  O_17
REMARK   11  A    between atoms: O_17  and  C_18
REMARK   12  A    between atoms: C_18  and  C_19
REMARK   13  A    between atoms: C_19  and  C_20
REMARK                            x       y       z     vdW  Elec       q    Type
REMARK                         _______ _______ _______ _____ _____    ______ ____
ROOT
ATOM      1  C   UNL     1       2.507   6.991  18.722  0.00  0.00    +0.000 A 
ATOM      2  C   UNL     1       2.303   8.258  18.133  0.00  0.00    +0.000 A 
ATOM      3  C   UNL     1       1.740   9.305  18.854  0.00  0.00    +0.000 A 
ATOM      4 BR   UNL     1       1.496  10.991  18.037  0.00  0.00    +0.000 Br
ATOM      5  C   UNL     1       1.375   9.116  20.176  0.00  0.00    +0.000 A 
ATOM      6  C   UNL     1       1.535   7.860  20.762  0.00  0.00    +0.000 A 
ATOM      7  C   UNL     1       2.053   6.769  20.040  0.00  0.00    +0.000 A 
ENDROOT
BRANCH   1   8
ATOM      8  C   UNL     1       3.227   5.952  17.880  0.00  0.00    +0.000 C 
BRANCH   8   9
ATOM      9  C   UNL     1       4.698   5.709  18.322  0.00  0.00    +0.000 C 
BRANCH   9  10
ATOM     10  N   UNL     1       5.706   5.959  17.281  0.00  0.00    +0.000 NA
BRANCH  10  11
ATOM     11  C   UNL     1       5.300   5.474  15.962  0.00  0.00    +0.000 C 
BRANCH  11  13
ATOM     12  C   UNL     1       5.913   3.873  14.103  0.00  0.00    +0.000 C 
ATOM     13  C   UNL     1       5.777   4.059  15.607  0.00  0.00    +0.000 C 
ENDBRANCH  11  13
ENDBRANCH  10  11
BRANCH  10  14
ATOM     14  C   UNL     1       6.318   7.284  17.365  0.00  0.00    +0.000 C 
BRANCH  14  15
ATOM     15  C   UNL     1       7.769   7.493  17.815  0.00  0.00    +0.000 C 
ATOM     16  C   UNL     1       8.223   8.934  17.976  0.00  0.00    +0.000 C 
ENDBRANCH  14  15
ENDBRANCH  10  14
ENDBRANCH   9  10
ENDBRANCH   8   9
ENDBRANCH   1   8
BRANCH   7  17
ATOM     17  O   UNL     1       2.112   5.490  20.565  0.00  0.00    +0.000 OA
BRANCH  17  18
ATOM     18  C   UNL     1       0.836   4.827  20.689  0.00  0.00    +0.000 C 
BRANCH  18  19
ATOM     19  C   UNL     1       0.919   3.304  20.554  0.00  0.00    +0.000 C 
BRANCH  19  20
ATOM     20  C   UNL     1       2.004   2.809  19.631  0.00  0.00    +0.000 A 
ATOM     21  C   UNL     1       3.282   2.487  20.115  0.00  0.00    +0.000 A 
ATOM     22  C   UNL     1       4.259   1.988  19.250  0.00  0.00    +0.000 A 
ATOM     23  C   UNL     1       3.969   1.805  17.899  0.00  0.00    +0.000 A 
ATOM     24  C   UNL     1       2.704   2.125  17.410  0.00  0.00    +0.000 A 
ATOM     25  C   UNL     1       1.730   2.633  18.273  0.00  0.00    +0.000 A 
ENDBRANCH  19  20
ENDBRANCH  18  19
ENDBRANCH  17  18
ENDBRANCH   7  17
TORSDOF 11
ENDMDL
MODEL 6
REMARK VINA RESULT:      -6.6      3.181      5.559
REMARK  Name = 
REMARK  13 active torsions:
REMARK  status: ('A' for Active; 'I' for Inactive)
REMARK    1  A    between atoms: C_1  and  C_2
REMARK    2  A    between atoms: C_2  and  C_3
REMARK    3  A    between atoms: C_3  and  N_4
REMARK    4  A    between atoms: N_4  and  C_5
REMARK    5  A    between atoms: N_4  and  C_8
REMARK    6  A    between atoms: C_5  and  C_6
REMARK    7  A    between atoms: C_6  and  C_7
REMARK    8  A    between atoms: C_8  and  C_9
REMARK    9  A    between atoms: C_9  and  C_10
REMARK   10  A    between atoms: C_16  and  O_17
REMARK   11  A    between atoms: O_17  and  C_18
REMARK   12  A    between atoms: C_18  and  C_19
REMARK   13  A    between atoms: C_19  and  C_20
REMARK                            x       y       z     vdW  Elec       q    Type
REMARK                         _______ _______ _______ _____ _____    ______ ____
ROOT
ATOM      1  C   UNL     1       3.270   5.989  18.473  0.00  0.00    +0.000 A 
ATOM      2  C   UNL     1       3.263   4.723  19.099  0.00  0.00    +0.000 A 
ATOM      3  C   UNL     1       2.524   4.494  20.254  0.00  0.00    +0.000 A 
ATOM      4 BR   UNL     1       2.527   2.784  21.055  0.00  0.00    +0.000 Br
ATOM      5  C   UNL     1       1.771   5.517  20.806  0.00  0.00    +0.000 A 
ATOM      6  C   UNL     1       1.795   6.784  20.221  0.00  0.00    +0.000 A 
ATOM      7  C   UNL     1       2.577   7.056  19.083  0.00  0.00    +0.000 A 
ENDROOT
BRANCH   1   8
ATOM      8  C   UNL     1       4.024   6.099  17.159  0.00  0.00    +0.000 C 
BRANCH   8   9
ATOM      9  C   UNL     1       4.800   4.804  16.781  0.00  0.00    +0.000 C 
BRANCH   9  10
ATOM     10  N   UNL     1       5.943   5.009  15.879  0.00  0.00    +0.000 NA
BRANCH  10  11
ATOM     11  C   UNL     1       7.105   5.593  16.550  0.00  0.00    +0.000 C 
BRANCH  11  13
ATOM     12  C   UNL     1       7.744   5.832  18.985  0.00  0.00    +0.000 C 
ATOM     13  C   UNL     1       7.561   4.867  17.824  0.00  0.00    +0.000 C 
ENDBRANCH  11  13
ENDBRANCH  10  11
BRANCH  10  14
ATOM     14  C   UNL     1       6.171   3.894  14.961  0.00  0.00    +0.000 C 
BRANCH  14  15
ATOM     15  C   UNL     1       6.478   4.103  13.474  0.00  0.00    +0.000 C 
ATOM     16  C   UNL     1       5.615   3.329  12.493  0.00  0.00    +0.000 C 
ENDBRANCH  14  15
ENDBRANCH  10  14
ENDBRANCH   9  10
ENDBRANCH   8   9
ENDBRANCH   1   8
BRANCH   7  17
ATOM     17  O   UNL     1       2.707   8.330  18.557  0.00  0.00    +0.000 OA
BRANCH  17  18
ATOM     18  C   UNL     1       1.522   8.843  17.914  0.00  0.00    +0.000 C 
BRANCH  18  19
ATOM     19  C   UNL     1       1.151  10.263  18.351  0.00  0.00    +0.000 C 
BRANCH  19  20
ATOM     20  C   UNL     1      -0.327  10.563  18.338  0.00  0.00    +0.000 A 
ATOM     21  C   UNL     1      -0.871  11.585  19.130  0.00  0.00    +0.000 A 
ATOM     22  C   UNL     1      -2.237  11.874  19.069  0.00  0.00    +0.000 A 
ATOM     23  C   UNL     1      -3.068  11.149  18.217  0.00  0.00    +0.000 A 
ATOM     24  C   UNL     1      -2.535  10.131  17.429  0.00  0.00    +0.000 A 
ATOM     25  C   UNL     1      -1.172   9.835  17.496  0.00  0.00    +0.000 A 
ENDBRANCH  19  20
ENDBRANCH  18  19
ENDBRANCH  17  18
ENDBRANCH   7  17
TORSDOF 11
ENDMDL
MODEL 7
REMARK VINA RESULT:      -6.6      2.554      5.565
REMARK  Name = 
REMARK  13 active torsions:
REMARK  status: ('A' for Active; 'I' for Inactive)
REMARK    1  A    between atoms: C_1  and  C_2
REMARK    2  A    between atoms: C_2  and  C_3
REMARK    3  A    between atoms: C_3  and  N_4
REMARK    4  A    between atoms: N_4  and  C_5
REMARK    5  A    between atoms: N_4  and  C_8
REMARK    6  A    between atoms: C_5  and  C_6
REMARK    7  A    between atoms: C_6  and  C_7
REMARK    8  A    between atoms: C_8  and  C_9
REMARK    9  A    between atoms: C_9  and  C_10
REMARK   10  A    between atoms: C_16  and  O_17
REMARK   11  A    between atoms: O_17  and  C_18
REMARK   12  A    between atoms: C_18  and  C_19
REMARK   13  A    between atoms: C_19  and  C_20
REMARK                            x       y       z     vdW  Elec       q    Type
REMARK                         _______ _______ _______ _____ _____    ______ ____
ROOT
ATOM      1  C   UNL     1       3.853   5.505  17.691  0.00  0.00    +0.000 A 
ATOM      2  C   UNL     1       4.915   6.419  17.875  0.00  0.00    +0.000 A 
ATOM      3  C   UNL     1       6.142   6.233  17.248  0.00  0.00    +0.000 A 
ATOM      4 BR   UNL     1       7.534   7.483  17.507  0.00  0.00    +0.000 Br
ATOM      5  C   UNL     1       6.336   5.139  16.421  0.00  0.00    +0.000 A 
ATOM      6  C   UNL     1       5.311   4.208  16.257  0.00  0.00    +0.000 A 
ATOM      7  C   UNL     1       4.078   4.343  16.921  0.00  0.00    +0.000 A 
ENDROOT
BRANCH   1   8
ATOM      8  C   UNL     1       2.524   5.861  18.334  0.00  0.00    +0.000 C 
BRANCH   8   9
ATOM      9  C   UNL     1       2.673   6.531  19.731  0.00  0.00    +0.000 C 
BRANCH   9  10
ATOM     10  N   UNL     1       2.062   7.863  19.846  0.00  0.00    +0.000 NA
BRANCH  10  11
ATOM     11  C   UNL     1       1.729   8.455  18.550  0.00  0.00    +0.000 C 
BRANCH  11  13
ATOM     12  C   UNL     1      -0.094  10.188  18.292  0.00  0.00    +0.000 C 
ATOM     13  C   UNL     1       1.379   9.950  18.582  0.00  0.00    +0.000 C 
ENDBRANCH  11  13
ENDBRANCH  10  11
BRANCH  10  14
ATOM     14  C   UNL     1       1.072   7.962  20.918  0.00  0.00    +0.000 C 
BRANCH  14  15
ATOM     15  C   UNL     1       1.206   8.964  22.071  0.00  0.00    +0.000 C 
ATOM     16  C   UNL     1       0.118  10.019  22.175  0.00  0.00    +0.000 C 
ENDBRANCH  14  15
ENDBRANCH  10  14
ENDBRANCH   9  10
ENDBRANCH   8   9
ENDBRANCH   1   8
BRANCH   7  17
ATOM     17  O   UNL     1       3.092   3.374  16.865  0.00  0.00    +0.000 OA
BRANCH  17  18
ATOM     18  C   UNL     1       3.569   2.018  16.986  0.00  0.00    +0.000 C 
BRANCH  18  19
ATOM     19  C   UNL     1       3.762   1.560  18.435  0.00  0.00    +0.000 C 
BRANCH  19  20
ATOM     20  C   UNL     1       2.831   2.205  19.431  0.00  0.00    +0.000 A 
ATOM     21  C   UNL     1       3.299   2.684  20.664  0.00  0.00    +0.000 A 
ATOM     22  C   UNL     1       2.427   3.317  21.553  0.00  0.00    +0.000 A 
ATOM     23  C   UNL     1       1.084   3.478  21.219  0.00  0.00    +0.000 A 
ATOM     24  C   UNL     1       0.610   3.003  19.998  0.00  0.00    +0.000 A 
ATOM     25  C   UNL     1       1.479   2.362  19.112  0.00  0.00    +0.000 A 
ENDBRANCH  19  20
ENDBRANCH  18  19
ENDBRANCH  17  18
ENDBRANCH   7  17
TORSDOF 11
ENDMDL
MODEL 8
REMARK VINA RESULT:      -6.6      2.429      5.134
REMARK  Name = 
REMARK  13 active torsions:
REMARK  status: ('A' for Active; 'I' for Inactive)
REMARK    1  A    between atoms: C_1  and  C_2
REMARK    2  A    between atoms: C_2  and  C_3
REMARK    3  A    between atoms: C_3  and  N_4
REMARK    4  A    between atoms: N_4  and  C_5
REMARK    5  A    between atoms: N_4  and  C_8
REMARK    6  A    between atoms: C_5  and  C_6
REMARK    7  A    between atoms: C_6  and  C_7
REMARK    8  A    between atoms: C_8  and  C_9
REMARK    9  A    between atoms: C_9  and  C_10
REMARK   10  A    between atoms: C_16  and  O_17
REMARK   11  A    between atoms: O_17  and  C_18
REMARK   12  A    between atoms: C_18  and  C_19
REMARK   13  A    between atoms: C_19  and  C_20
REMARK                            x       y       z     vdW  Elec       q    Type
REMARK                         _______ _______ _______ _____ _____    ______ ____
ROOT
ATOM      1  C   UNL     1       4.448   5.818  17.282  0.00  0.00    +0.000 A 
ATOM      2  C   UNL     1       5.344   6.842  17.661  0.00  0.00    +0.000 A 
ATOM      3  C   UNL     1       6.670   6.829  17.243  0.00  0.00    +0.000 A 
ATOM      4 BR   UNL     1       7.837   8.223  17.758  0.00  0.00    +0.000 Br
ATOM      5  C   UNL     1       7.130   5.804  16.434  0.00  0.00    +0.000 A 
ATOM      6  C   UNL     1       6.267   4.765  16.081  0.00  0.00    +0.000 A 
ATOM      7  C   UNL     1       4.936   4.726  16.533  0.00  0.00    +0.000 A 
ENDROOT
BRANCH   1   8
ATOM      8  C   UNL     1       2.999   5.986  17.704  0.00  0.00    +0.000 C 
BRANCH   8   9
ATOM      9  C   UNL     1       2.831   6.356  19.206  0.00  0.00    +0.000 C 
BRANCH   9  10
ATOM     10  N   UNL     1       1.981   7.527  19.464  0.00  0.00    +0.000 NA
BRANCH  10  11
ATOM     11  C   UNL     1       1.879   7.859  20.885  0.00  0.00    +0.000 C 
BRANCH  11  13
ATOM     12  C   UNL     1       0.543   9.656  22.060  0.00  0.00    +0.000 C 
ATOM     13  C   UNL     1       0.488   8.309  21.356  0.00  0.00    +0.000 C 
ENDBRANCH  11  13
ENDBRANCH  10  11
BRANCH  10  14
ATOM     14  C   UNL     1       2.193   8.623  18.519  0.00  0.00    +0.000 C 
BRANCH  14  15
ATOM     15  C   UNL     1       1.049   9.520  18.030  0.00  0.00    +0.000 C 
ATOM     16  C   UNL     1       1.028  10.939  18.572  0.00  0.00    +0.000 C 
ENDBRANCH  14  15
ENDBRANCH  10  14
ENDBRANCH   9  10
ENDBRANCH   8   9
ENDBRANCH   1   8
BRANCH   7  17
ATOM     17  O   UNL     1       4.099   3.650  16.292  0.00  0.00    +0.000 OA
BRANCH  17  18
ATOM     18  C   UNL     1       4.192   2.583  17.259  0.00  0.00    +0.000 C 
BRANCH  18  19
ATOM     19  C   UNL     1       2.832   2.027  17.692  0.00  0.00    +0.000 C 
BRANCH  19  20
ATOM     20  C   UNL     1       2.368   2.481  19.054  0.00  0.00    +0.000 A 
ATOM     21  C   UNL     1       3.208   2.402  20.175  0.00  0.00    +0.000 A 
ATOM     22  C   UNL     1       2.772   2.869  21.418  0.00  0.00    +0.000 A 
ATOM     23  C   UNL     1       1.499   3.419  21.551  0.00  0.00    +0.000 A 
ATOM     24  C   UNL     1       0.658   3.498  20.443  0.00  0.00    +0.000 A 
ATOM     25  C   UNL     1       1.089   3.023  19.202  0.00  0.00    +0.000 A 
ENDBRANCH  19  20
ENDBRANCH  18  19
ENDBRANCH  17  18
ENDBRANCH   7  17
TORSDOF 11
ENDMDL
MODEL 9
REMARK VINA RESULT:      -6.5      2.954      5.895
REMARK  Name = 
REMARK  13 active torsions:
REMARK  status: ('A' for Active; 'I' for Inactive)
REMARK    1  A    between atoms: C_1  and  C_2
REMARK    2  A    between atoms: C_2  and  C_3
REMARK    3  A    between atoms: C_3  and  N_4
REMARK    4  A    between atoms: N_4  and  C_5
REMARK    5  A    between atoms: N_4  and  C_8
REMARK    6  A    between atoms: C_5  and  C_6
REMARK    7  A    between atoms: C_6  and  C_7
REMARK    8  A    between atoms: C_8  and  C_9
REMARK    9  A    between atoms: C_9  and  C_10
REMARK   10  A    between atoms: C_16  and  O_17
REMARK   11  A    between atoms: O_17  and  C_18
REMARK   12  A    between atoms: C_18  and  C_19
REMARK   13  A    between atoms: C_19  and  C_20
REMARK                            x       y       z     vdW  Elec       q    Type
REMARK                         _______ _______ _______ _____ _____    ______ ____
ROOT
ATOM      1  C   UNL     1       3.078   5.231  18.525  0.00  0.00    +0.000 A 
ATOM      2  C   UNL     1       2.800   4.122  19.354  0.00  0.00    +0.000 A 
ATOM      3  C   UNL     1       2.065   4.265  20.525  0.00  0.00    +0.000 A 
ATOM      4 BR   UNL     1       1.699   2.755  21.601  0.00  0.00    +0.000 Br
ATOM      5  C   UNL     1       1.586   5.511  20.893  0.00  0.00    +0.000 A 
ATOM      6  C   UNL     1       1.884   6.623  20.106  0.00  0.00    +0.000 A 
ATOM      7  C   UNL     1       2.670   6.516  18.944  0.00  0.00    +0.000 A 
ENDROOT
BRANCH   1   8
ATOM      8  C   UNL     1       3.795   4.946  17.217  0.00  0.00    +0.000 C 
BRANCH   8   9
ATOM      9  C   UNL     1       5.147   4.200  17.402  0.00  0.00    +0.000 C 
BRANCH   9  10
ATOM     10  N   UNL     1       6.344   5.023  17.176  0.00  0.00    +0.000 NA
BRANCH  10  11
ATOM     11  C   UNL     1       6.430   5.545  15.812  0.00  0.00    +0.000 C 
BRANCH  11  13
ATOM     12  C   UNL     1       6.001   4.041  13.825  0.00  0.00    +0.000 C 
ATOM     13  C   UNL     1       7.049   4.590  14.781  0.00  0.00    +0.000 C 
ENDBRANCH  11  13
ENDBRANCH  10  11
BRANCH  10  14
ATOM     14  C   UNL     1       6.645   5.935  18.278  0.00  0.00    +0.000 C 
BRANCH  14  15
ATOM     15  C   UNL     1       7.904   6.810  18.302  0.00  0.00    +0.000 C 
ATOM     16  C   UNL     1       7.790   8.171  17.636  0.00  0.00    +0.000 C 
ENDBRANCH  14  15
ENDBRANCH  10  14
ENDBRANCH   9  10
ENDBRANCH   8   9
ENDBRANCH   1   8
BRANCH   7  17
ATOM     17  O   UNL     1       3.074   7.621  18.214  0.00  0.00    +0.000 OA
BRANCH  17  18
ATOM     18  C   UNL     1       1.998   8.417  17.676  0.00  0.00    +0.000 C 
BRANCH  18  19
ATOM     19  C   UNL     1       1.976   9.855  18.201  0.00  0.00    +0.000 C 
BRANCH  19  20
ATOM     20  C   UNL     1       0.598  10.435  18.400  0.00  0.00    +0.000 A 
ATOM     21  C   UNL     1       0.409  11.659  19.059  0.00  0.00    +0.000 A 
ATOM     22  C   UNL     1      -0.873  12.199  19.193  0.00  0.00    +0.000 A 
ATOM     23  C   UNL     1      -1.974  11.523  18.670  0.00  0.00    +0.000 A 
ATOM     24  C   UNL     1      -1.795  10.305  18.017  0.00  0.00    +0.000 A 
ATOM     25  C   UNL     1      -0.515   9.761  17.891  0.00  0.00    +0.000 A 
ENDBRANCH  19  20
ENDBRANCH  18  19
ENDBRANCH  17  18
ENDBRANCH   7  17
TORSDOF 11
ENDMDL
