MODEL 1
REMARK VINA RESULT:      -8.8      0.000      0.000
REMARK  Name = 
REMARK  4 active torsions:
REMARK  status: ('A' for Active; 'I' for Inactive)
REMARK    1  A    between atoms: O_1  and  C_2
REMARK    2  A    between atoms: C_7  and  N_8
REMARK    3  A    between atoms: C_11  and  C_12
REMARK    4  A    between atoms: C_17  and  C_18
REMARK                            x       y       z     vdW  Elec       q    Type
REMARK                         _______ _______ _______ _____ _____    ______ ____
ROOT
ATOM      1  N   UNL     1       1.433   7.478  20.962  0.00  0.00    +0.000 N 
ATOM      2  C   UNL     1       1.986   6.322  20.369  0.00  0.00    +0.000 A 
ATOM      3  C   UNL     1       1.791   5.103  20.992  0.00  0.00    +0.000 A 
ATOM      4  C   UNL     1       2.318   3.978  20.380  0.00  0.00    +0.000 A 
ATOM      5  N   UNL     1       3.036   4.063  19.235  0.00  0.00    +0.000 NA
ATOM      6  C   UNL     1       3.219   5.283  18.713  0.00  0.00    +0.000 A 
ATOM      7  N   UNL     1       2.710   6.404  19.242  0.00  0.00    +0.000 NA
ATOM      8  H   UNL     1       0.762   7.273  21.698  0.00  0.00    +0.000 HD
ENDROOT
BRANCH   1  14
ATOM      9  C   UNL     1       1.416  10.408  18.623  0.00  0.00    +0.000 A 
ATOM     10  C   UNL     1       0.516  11.262  19.246  0.00  0.00    +0.000 A 
ATOM     11  C   UNL     1      -0.040  10.884  20.465  0.00  0.00    +0.000 A 
ATOM     12  C   UNL     1       0.289   9.643  21.028  0.00  0.00    +0.000 A 
ATOM     13 CL   UNL     1      -0.449   9.218  22.539  0.00  0.00    +0.000 Cl
ATOM     14  C   UNL     1       1.163   8.747  20.382  0.00  0.00    +0.000 A 
ATOM     15  C   UNL     1       1.751   9.180  19.190  0.00  0.00    +0.000 A 
BRANCH   9  16
ATOM     16  O   UNL     1       2.002  10.729  17.434  0.00  0.00    +0.000 OA
ATOM     17  H   UNL     1       1.757  10.064  16.770  0.00  0.00    +0.000 HD
ENDBRANCH   9  16
ENDBRANCH   1  14
BRANCH   6  18
ATOM     18  C   UNL     1       4.057   5.400  17.506  0.00  0.00    +0.000 A 
ATOM     19  C   UNL     1       4.489   4.262  16.807  0.00  0.00    +0.000 A 
ATOM     20  C   UNL     1       5.299   4.409  15.693  0.00  0.00    +0.000 A 
ATOM     21  N   UNL     1       5.711   5.601  15.217  0.00  0.00    +0.000 NA
ATOM     22  C   UNL     1       5.290   6.692  15.886  0.00  0.00    +0.000 A 
ATOM     23  C   UNL     1       4.480   6.643  17.009  0.00  0.00    +0.000 A 
ENDBRANCH   6  18
BRANCH   4  24
ATOM     24  C   UNL     1       2.094   2.604  20.986  0.00  0.00    +0.000 C 
ATOM     25  F   UNL     1       1.060   2.570  21.878  0.00  0.00    +0.000 F 
ATOM     26  F   UNL     1       1.802   1.653  20.054  0.00  0.00    +0.000 F 
ATOM     27  F   UNL     1       3.179   2.144  21.670  0.00  0.00    +0.000 F 
ENDBRANCH   4  24
TORSDOF 4
ENDMDL
MODEL 2
REMARK VINA RESULT:      -8.7      0.034      1.204
REMARK  Name = 
REMARK  4 active torsions:
REMARK  status: ('A' for Active; 'I' for Inactive)
REMARK    1  A    between atoms: O_1  and  C_2
REMARK    2  A    between atoms: C_7  and  N_8
REMARK    3  A    between atoms: C_11  and  C_12
REMARK    4  A    between atoms: C_17  and  C_18
REMARK                            x       y       z     vdW  Elec       q    Type
REMARK                         _______ _______ _______ _____ _____    ______ ____
ROOT
ATOM      1  N   UNL     1       1.438   7.483  20.964  0.00  0.00    +0.000 N 
ATOM      2  C   UNL     1       1.999   6.328  20.376  0.00  0.00    +0.000 A 
ATOM      3  C   UNL     1       1.807   5.110  21.001  0.00  0.00    +0.000 A 
ATOM      4  C   UNL     1       2.342   3.985  20.395  0.00  0.00    +0.000 A 
ATOM      5  N   UNL     1       3.064   4.071  19.252  0.00  0.00    +0.000 NA
ATOM      6  C   UNL     1       3.244   5.291  18.727  0.00  0.00    +0.000 A 
ATOM      7  N   UNL     1       2.728   6.411  19.252  0.00  0.00    +0.000 NA
ATOM      8  H   UNL     1       0.765   7.277  21.697  0.00  0.00    +0.000 HD
ENDROOT
BRANCH   1  14
ATOM      9  C   UNL     1       1.416  10.405  18.615  0.00  0.00    +0.000 A 
ATOM     10  C   UNL     1       0.512  11.259  19.234  0.00  0.00    +0.000 A 
ATOM     11  C   UNL     1      -0.044  10.883  20.454  0.00  0.00    +0.000 A 
ATOM     12  C   UNL     1       0.288   9.645  21.022  0.00  0.00    +0.000 A 
ATOM     13 CL   UNL     1      -0.451   9.222  22.533  0.00  0.00    +0.000 Cl
ATOM     14  C   UNL     1       1.166   8.749  20.380  0.00  0.00    +0.000 A 
ATOM     15  C   UNL     1       1.754   9.180  19.186  0.00  0.00    +0.000 A 
BRANCH   9  16
ATOM     16  O   UNL     1       2.002  10.725  17.426  0.00  0.00    +0.000 OA
ATOM     17  H   UNL     1       1.654  11.579  17.121  0.00  0.00    +0.000 HD
ENDBRANCH   9  16
ENDBRANCH   1  14
BRANCH   6  18
ATOM     18  C   UNL     1       4.086   5.407  17.523  0.00  0.00    +0.000 A 
ATOM     19  C   UNL     1       4.461   6.660  17.016  0.00  0.00    +0.000 A 
ATOM     20  C   UNL     1       5.230   6.731  15.866  0.00  0.00    +0.000 A 
ATOM     21  N   UNL     1       5.659   5.652  15.183  0.00  0.00    +0.000 NA
ATOM     22  C   UNL     1       5.302   4.449  15.676  0.00  0.00    +0.000 A 
ATOM     23  C   UNL     1       4.536   4.281  16.817  0.00  0.00    +0.000 A 
ENDBRANCH   6  18
BRANCH   4  24
ATOM     24  C   UNL     1       2.121   2.612  21.003  0.00  0.00    +0.000 C 
ATOM     25  F   UNL     1       1.848   1.649  20.075  0.00  0.00    +0.000 F 
ATOM     26  F   UNL     1       3.206   2.156  21.692  0.00  0.00    +0.000 F 
ATOM     27  F   UNL     1       1.077   2.582  21.878  0.00  0.00    +0.000 F 
ENDBRANCH   4  24
TORSDOF 4
ENDMDL
MODEL 3
REMARK VINA RESULT:      -8.6      0.950      1.271
REMARK  Name = 
REMARK  4 active torsions:
REMARK  status: ('A' for Active; 'I' for Inactive)
REMARK    1  A    between atoms: O_1  and  C_2
REMARK    2  A    between atoms: C_7  and  N_8
REMARK    3  A    between atoms: C_11  and  C_12
REMARK    4  A    between atoms: C_17  and  C_18
REMARK                            x       y       z     vdW  Elec       q    Type
REMARK                         _______ _______ _______ _____ _____    ______ ____
ROOT
ATOM      1  N   UNL     1       1.404   7.432  20.968  0.00  0.00    +0.000 N 
ATOM      2  C   UNL     1       2.117   6.315  20.480  0.00  0.00    +0.000 A 
ATOM      3  C   UNL     1       1.794   5.062  20.966  0.00  0.00    +0.000 A 
ATOM      4  C   UNL     1       2.486   3.977  20.455  0.00  0.00    +0.000 A 
ATOM      5  N   UNL     1       3.475   4.132  19.542  0.00  0.00    +0.000 NA
ATOM      6  C   UNL     1       3.760   5.381  19.150  0.00  0.00    +0.000 A 
ATOM      7  N   UNL     1       3.107   6.466  19.586  0.00  0.00    +0.000 NA
ATOM      8  H   UNL     1       0.570   7.181  21.492  0.00  0.00    +0.000 HD
ENDROOT
BRANCH   1  14
ATOM      9  C   UNL     1       1.506  10.322  18.582  0.00  0.00    +0.000 A 
ATOM     10  C   UNL     1       0.886  11.321  19.320  0.00  0.00    +0.000 A 
ATOM     11  C   UNL     1       0.485  11.045  20.624  0.00  0.00    +0.000 A 
ATOM     12  C   UNL     1       0.682   9.765  21.161  0.00  0.00    +0.000 A 
ATOM     13 CL   UNL     1       0.145   9.474  22.784  0.00  0.00    +0.000 Cl
ATOM     14  C   UNL     1       1.266   8.729  20.405  0.00  0.00    +0.000 A 
ATOM     15  C   UNL     1       1.712   9.053  19.120  0.00  0.00    +0.000 A 
BRANCH   9  16
ATOM     16  O   UNL     1       1.932  10.537  17.304  0.00  0.00    +0.000 OA
ATOM     17  H   UNL     1       1.956   9.688  16.831  0.00  0.00    +0.000 HD
ENDBRANCH   9  16
ENDBRANCH   1  14
BRANCH   6  18
ATOM     18  C   UNL     1       4.880   5.571  18.210  0.00  0.00    +0.000 A 
ATOM     19  C   UNL     1       6.212   5.505  18.643  0.00  0.00    +0.000 A 
ATOM     20  C   UNL     1       7.238   5.716  17.736  0.00  0.00    +0.000 A 
ATOM     21  N   UNL     1       7.042   5.985  16.430  0.00  0.00    +0.000 NA
ATOM     22  C   UNL     1       5.760   6.043  16.016  0.00  0.00    +0.000 A 
ATOM     23  C   UNL     1       4.671   5.845  16.849  0.00  0.00    +0.000 A 
ENDBRANCH   6  18
BRANCH   4  24
ATOM     24  C   UNL     1       2.143   2.570  20.909  0.00  0.00    +0.000 C 
ATOM     25  F   UNL     1       1.881   1.718  19.874  0.00  0.00    +0.000 F 
ATOM     26  F   UNL     1       3.147   1.981  21.620  0.00  0.00    +0.000 F 
ATOM     27  F   UNL     1       1.038   2.525  21.705  0.00  0.00    +0.000 F 
ENDBRANCH   4  24
TORSDOF 4
ENDMDL
MODEL 4
REMARK VINA RESULT:      -8.5      0.928      1.061
REMARK  Name = 
REMARK  4 active torsions:
REMARK  status: ('A' for Active; 'I' for Inactive)
REMARK    1  A    between atoms: O_1  and  C_2
REMARK    2  A    between atoms: C_7  and  N_8
REMARK    3  A    between atoms: C_11  and  C_12
REMARK    4  A    between atoms: C_17  and  C_18
REMARK                            x       y       z     vdW  Elec       q    Type
REMARK                         _______ _______ _______ _____ _____    ______ ____
ROOT
ATOM      1  N   UNL     1       1.348   7.441  20.947  0.00  0.00    +0.000 N 
ATOM      2  C   UNL     1       2.095   6.337  20.479  0.00  0.00    +0.000 A 
ATOM      3  C   UNL     1       1.801   5.083  20.981  0.00  0.00    +0.000 A 
ATOM      4  C   UNL     1       2.526   4.009  20.491  0.00  0.00    +0.000 A 
ATOM      5  N   UNL     1       3.518   4.178  19.583  0.00  0.00    +0.000 NA
ATOM      6  C   UNL     1       3.773   5.429  19.175  0.00  0.00    +0.000 A 
ATOM      7  N   UNL     1       3.087   6.502  19.591  0.00  0.00    +0.000 NA
ATOM      8  H   UNL     1       0.517   7.175  21.468  0.00  0.00    +0.000 HD
ENDROOT
BRANCH   1  14
ATOM      9  C   UNL     1       1.493  10.332  18.563  0.00  0.00    +0.000 A 
ATOM     10  C   UNL     1       0.737  11.287  19.230  0.00  0.00    +0.000 A 
ATOM     11  C   UNL     1       0.227  10.984  20.490  0.00  0.00    +0.000 A 
ATOM     12  C   UNL     1       0.456   9.720  21.051  0.00  0.00    +0.000 A 
ATOM     13 CL   UNL     1      -0.220   9.394  22.615  0.00  0.00    +0.000 Cl
ATOM     14  C   UNL     1       1.180   8.726  20.364  0.00  0.00    +0.000 A 
ATOM     15  C   UNL     1       1.729   9.080  19.128  0.00  0.00    +0.000 A 
BRANCH   9  16
ATOM     16  O   UNL     1       2.029  10.575  17.332  0.00  0.00    +0.000 OA
ATOM     17  H   UNL     1       2.962  10.823  17.436  0.00  0.00    +0.000 HD
ENDBRANCH   9  16
ENDBRANCH   1  14
BRANCH   6  18
ATOM     18  C   UNL     1       4.894   5.635  18.241  0.00  0.00    +0.000 A 
ATOM     19  C   UNL     1       4.671   6.005  16.907  0.00  0.00    +0.000 A 
ATOM     20  C   UNL     1       5.749   6.163  16.051  0.00  0.00    +0.000 A 
ATOM     21  N   UNL     1       7.033   5.985  16.420  0.00  0.00    +0.000 NA
ATOM     22  C   UNL     1       7.244   5.634  17.704  0.00  0.00    +0.000 A 
ATOM     23  C   UNL     1       6.231   5.454  18.631  0.00  0.00    +0.000 A 
ENDBRANCH   6  18
BRANCH   4  24
ATOM     24  C   UNL     1       2.217   2.600  20.962  0.00  0.00    +0.000 C 
ATOM     25  F   UNL     1       1.143   2.537  21.804  0.00  0.00    +0.000 F 
ATOM     26  F   UNL     1       1.927   1.748  19.938  0.00  0.00    +0.000 F 
ATOM     27  F   UNL     1       3.250   2.032  21.647  0.00  0.00    +0.000 F 
ENDBRANCH   4  24
TORSDOF 4
ENDMDL
MODEL 5
REMARK VINA RESULT:      -8.3      3.301      4.938
REMARK  Name = 
REMARK  4 active torsions:
REMARK  status: ('A' for Active; 'I' for Inactive)
REMARK    1  A    between atoms: O_1  and  C_2
REMARK    2  A    between atoms: C_7  and  N_8
REMARK    3  A    between atoms: C_11  and  C_12
REMARK    4  A    between atoms: C_17  and  C_18
REMARK                            x       y       z     vdW  Elec       q    Type
REMARK                         _______ _______ _______ _____ _____    ______ ____
ROOT
ATOM      1  N   UNL     1       1.581   9.343  18.758  0.00  0.00    +0.000 N 
ATOM      2  C   UNL     1       2.245   8.111  18.564  0.00  0.00    +0.000 A 
ATOM      3  C   UNL     1       3.241   8.043  17.608  0.00  0.00    +0.000 A 
ATOM      4  C   UNL     1       3.899   6.834  17.452  0.00  0.00    +0.000 A 
ATOM      5  N   UNL     1       3.557   5.741  18.175  0.00  0.00    +0.000 NA
ATOM      6  C   UNL     1       2.553   5.873  19.053  0.00  0.00    +0.000 A 
ATOM      7  N   UNL     1       1.899   7.023  19.268  0.00  0.00    +0.000 NA
ATOM      8  H   UNL     1       2.044  10.127  18.307  0.00  0.00    +0.000 HD
ENDROOT
BRANCH   1  14
ATOM      9  C   UNL     1       0.376   9.943  22.257  0.00  0.00    +0.000 A 
ATOM     10  C   UNL     1      -0.711  10.780  22.043  0.00  0.00    +0.000 A 
ATOM     11  C   UNL     1      -1.070  11.098  20.735  0.00  0.00    +0.000 A 
ATOM     12  C   UNL     1      -0.318  10.599  19.663  0.00  0.00    +0.000 A 
ATOM     13 CL   UNL     1      -0.801  11.044  18.057  0.00  0.00    +0.000 Cl
ATOM     14  C   UNL     1       0.816   9.788  19.869  0.00  0.00    +0.000 A 
ATOM     15  C   UNL     1       1.116   9.438  21.190  0.00  0.00    +0.000 A 
BRANCH   9  16
ATOM     16  O   UNL     1       0.767   9.587  23.514  0.00  0.00    +0.000 OA
ATOM     17  H   UNL     1       0.571  10.317  24.125  0.00  0.00    +0.000 HD
ENDBRANCH   9  16
ENDBRANCH   1  14
BRANCH   6  18
ATOM     18  C   UNL     1       2.123   4.675  19.796  0.00  0.00    +0.000 A 
ATOM     19  C   UNL     1       2.425   4.516  21.157  0.00  0.00    +0.000 A 
ATOM     20  C   UNL     1       2.029   3.364  21.815  0.00  0.00    +0.000 A 
ATOM     21  N   UNL     1       1.352   2.358  21.227  0.00  0.00    +0.000 NA
ATOM     22  C   UNL     1       1.059   2.516  19.921  0.00  0.00    +0.000 A 
ATOM     23  C   UNL     1       1.413   3.632  19.181  0.00  0.00    +0.000 A 
ENDBRANCH   6  18
BRANCH   4  24
ATOM     24  C   UNL     1       5.038   6.708  16.456  0.00  0.00    +0.000 C 
ATOM     25  F   UNL     1       5.413   5.414  16.227  0.00  0.00    +0.000 F 
ATOM     26  F   UNL     1       4.730   7.219  15.229  0.00  0.00    +0.000 F 
ATOM     27  F   UNL     1       6.170   7.349  16.861  0.00  0.00    +0.000 F 
ENDBRANCH   4  24
TORSDOF 4
ENDMDL
MODEL 6
REMARK VINA RESULT:      -8.3      3.296      4.915
REMARK  Name = 
REMARK  4 active torsions:
REMARK  status: ('A' for Active; 'I' for Inactive)
REMARK    1  A    between atoms: O_1  and  C_2
REMARK    2  A    between atoms: C_7  and  N_8
REMARK    3  A    between atoms: C_11  and  C_12
REMARK    4  A    between atoms: C_17  and  C_18
REMARK                            x       y       z     vdW  Elec       q    Type
REMARK                         _______ _______ _______ _____ _____    ______ ____
ROOT
ATOM      1  N   UNL     1       1.596   9.280  18.739  0.00  0.00    +0.000 N 
ATOM      2  C   UNL     1       2.272   8.054  18.546  0.00  0.00    +0.000 A 
ATOM      3  C   UNL     1       3.263   7.992  17.585  0.00  0.00    +0.000 A 
ATOM      4  C   UNL     1       3.932   6.789  17.430  0.00  0.00    +0.000 A 
ATOM      5  N   UNL     1       3.605   5.696  18.160  0.00  0.00    +0.000 NA
ATOM      6  C   UNL     1       2.605   5.822  19.043  0.00  0.00    +0.000 A 
ATOM      7  N   UNL     1       1.941   6.966  19.258  0.00  0.00    +0.000 NA
ATOM      8  H   UNL     1       2.049  10.067  18.283  0.00  0.00    +0.000 HD
ENDROOT
BRANCH   1  14
ATOM      9  C   UNL     1       0.432   9.923  22.244  0.00  0.00    +0.000 A 
ATOM     10  C   UNL     1      -0.694  10.708  22.030  0.00  0.00    +0.000 A 
ATOM     11  C   UNL     1      -1.089  10.975  20.722  0.00  0.00    +0.000 A 
ATOM     12  C   UNL     1      -0.337  10.479  19.648  0.00  0.00    +0.000 A 
ATOM     13 CL   UNL     1      -0.868  10.860  18.041  0.00  0.00    +0.000 Cl
ATOM     14  C   UNL     1       0.834   9.723  19.853  0.00  0.00    +0.000 A 
ATOM     15  C   UNL     1       1.173   9.421  21.176  0.00  0.00    +0.000 A 
BRANCH   9  16
ATOM     16  O   UNL     1       0.861   9.618  23.503  0.00  0.00    +0.000 OA
ATOM     17  H   UNL     1       0.950   8.653  23.582  0.00  0.00    +0.000 HD
ENDBRANCH   9  16
ENDBRANCH   1  14
BRANCH   6  18
ATOM     18  C   UNL     1       2.192   4.623  19.794  0.00  0.00    +0.000 A 
ATOM     19  C   UNL     1       1.481   3.585  19.174  0.00  0.00    +0.000 A 
ATOM     20  C   UNL     1       1.085   2.487  19.920  0.00  0.00    +0.000 A 
ATOM     21  N   UNL     1       1.345   2.338  21.234  0.00  0.00    +0.000 NA
ATOM     22  C   UNL     1       2.033   3.334  21.825  0.00  0.00    +0.000 A 
ATOM     23  C   UNL     1       2.470   4.469  21.162  0.00  0.00    +0.000 A 
ENDBRANCH   6  18
BRANCH   4  24
ATOM     24  C   UNL     1       5.066   6.670  16.427  0.00  0.00    +0.000 C 
ATOM     25  F   UNL     1       4.760   7.193  15.203  0.00  0.00    +0.000 F 
ATOM     26  F   UNL     1       6.198   7.317  16.826  0.00  0.00    +0.000 F 
ATOM     27  F   UNL     1       5.430   5.379  16.191  0.00  0.00    +0.000 F 
ENDBRANCH   4  24
TORSDOF 4
ENDMDL
MODEL 7
REMARK VINA RESULT:      -8.2      3.131      6.135
REMARK  Name = 
REMARK  4 active torsions:
REMARK  status: ('A' for Active; 'I' for Inactive)
REMARK    1  A    between atoms: O_1  and  C_2
REMARK    2  A    between atoms: C_7  and  N_8
REMARK    3  A    between atoms: C_11  and  C_12
REMARK    4  A    between atoms: C_17  and  C_18
REMARK                            x       y       z     vdW  Elec       q    Type
REMARK                         _______ _______ _______ _____ _____    ______ ____
ROOT
ATOM      1  N   UNL     1       4.709   3.199  17.271  0.00  0.00    +0.000 N 
ATOM      2  C   UNL     1       3.930   3.830  18.266  0.00  0.00    +0.000 A 
ATOM      3  C   UNL     1       3.508   3.080  19.348  0.00  0.00    +0.000 A 
ATOM      4  C   UNL     1       2.769   3.724  20.326  0.00  0.00    +0.000 A 
ATOM      5  N   UNL     1       2.429   5.031  20.214  0.00  0.00    +0.000 NA
ATOM      6  C   UNL     1       2.839   5.681  19.116  0.00  0.00    +0.000 A 
ATOM      7  N   UNL     1       3.580   5.121  18.151  0.00  0.00    +0.000 NA
ATOM      8  H   UNL     1       5.060   2.287  17.551  0.00  0.00    +0.000 HD
ENDROOT
BRANCH   1  14
ATOM      9  C   UNL     1       6.227   4.166  13.982  0.00  0.00    +0.000 A 
ATOM     10  C   UNL     1       7.238   5.031  14.380  0.00  0.00    +0.000 A 
ATOM     11  C   UNL     1       7.444   5.246  15.741  0.00  0.00    +0.000 A 
ATOM     12  C   UNL     1       6.616   4.618  16.681  0.00  0.00    +0.000 A 
ATOM     13 CL   UNL     1       6.908   4.940  18.361  0.00  0.00    +0.000 Cl
ATOM     14  C   UNL     1       5.556   3.777  16.288  0.00  0.00    +0.000 A 
ATOM     15  C   UNL     1       5.412   3.534  14.919  0.00  0.00    +0.000 A 
BRANCH   9  16
ATOM     16  O   UNL     1       5.986   3.907  12.665  0.00  0.00    +0.000 OA
ATOM     17  H   UNL     1       5.414   4.604  12.304  0.00  0.00    +0.000 HD
ENDBRANCH   9  16
ENDBRANCH   1  14
BRANCH   6  18
ATOM     18  C   UNL     1       2.418   7.084  18.948  0.00  0.00    +0.000 A 
ATOM     19  C   UNL     1       1.772   7.779  19.981  0.00  0.00    +0.000 A 
ATOM     20  C   UNL     1       1.366   9.088  19.776  0.00  0.00    +0.000 A 
ATOM     21  N   UNL     1       1.556   9.761  18.624  0.00  0.00    +0.000 NA
ATOM     22  C   UNL     1       2.182   9.092  17.635  0.00  0.00    +0.000 A 
ATOM     23  C   UNL     1       2.622   7.783  17.748  0.00  0.00    +0.000 A 
ENDBRANCH   6  18
BRANCH   4  24
ATOM     24  C   UNL     1       2.320   2.970  21.564  0.00  0.00    +0.000 C 
ATOM     25  F   UNL     1       3.136   1.922  21.882  0.00  0.00    +0.000 F 
ATOM     26  F   UNL     1       2.283   3.753  22.680  0.00  0.00    +0.000 F 
ATOM     27  F   UNL     1       1.074   2.434  21.436  0.00  0.00    +0.000 F 
ENDBRANCH   4  24
TORSDOF 4
ENDMDL
MODEL 8
REMARK VINA RESULT:      -8.0      5.169      6.667
REMARK  Name = 
REMARK  4 active torsions:
REMARK  status: ('A' for Active; 'I' for Inactive)
REMARK    1  A    between atoms: O_1  and  C_2
REMARK    2  A    between atoms: C_7  and  N_8
REMARK    3  A    between atoms: C_11  and  C_12
REMARK    4  A    between atoms: C_17  and  C_18
REMARK                            x       y       z     vdW  Elec       q    Type
REMARK                         _______ _______ _______ _____ _____    ______ ____
ROOT
ATOM      1  N   UNL     1       4.267   5.378  18.946  0.00  0.00    +0.000 N 
ATOM      2  C   UNL     1       5.265   5.767  18.024  0.00  0.00    +0.000 A 
ATOM      3  C   UNL     1       6.092   6.823  18.356  0.00  0.00    +0.000 A 
ATOM      4  C   UNL     1       7.082   7.172  17.452  0.00  0.00    +0.000 A 
ATOM      5  N   UNL     1       7.215   6.534  16.264  0.00  0.00    +0.000 NA
ATOM      6  C   UNL     1       6.348   5.548  15.995  0.00  0.00    +0.000 A 
ATOM      7  N   UNL     1       5.389   5.147  16.841  0.00  0.00    +0.000 NA
ATOM      8  H   UNL     1       4.385   5.790  19.867  0.00  0.00    +0.000 HD
ENDROOT
BRANCH   1  14
ATOM      9  C   UNL     1       3.337   1.755  18.681  0.00  0.00    +0.000 A 
ATOM     10  C   UNL     1       2.107   1.731  19.325  0.00  0.00    +0.000 A 
ATOM     11  C   UNL     1       1.569   2.925  19.796  0.00  0.00    +0.000 A 
ATOM     12  C   UNL     1       2.283   4.122  19.644  0.00  0.00    +0.000 A 
ATOM     13 CL   UNL     1       1.571   5.576  20.267  0.00  0.00    +0.000 Cl
ATOM     14  C   UNL     1       3.554   4.152  19.036  0.00  0.00    +0.000 A 
ATOM     15  C   UNL     1       4.041   2.947  18.521  0.00  0.00    +0.000 A 
BRANCH   9  16
ATOM     16  O   UNL     1       3.909   0.619  18.188  0.00  0.00    +0.000 OA
ATOM     17  H   UNL     1       4.597   0.318  18.805  0.00  0.00    +0.000 HD
ENDBRANCH   9  16
ENDBRANCH   1  14
BRANCH   6  18
ATOM     18  C   UNL     1       6.436   4.892  14.678  0.00  0.00    +0.000 A 
ATOM     19  C   UNL     1       7.490   5.171  13.795  0.00  0.00    +0.000 A 
ATOM     20  C   UNL     1       7.524   4.556  12.554  0.00  0.00    +0.000 A 
ATOM     21  N   UNL     1       6.593   3.683  12.123  0.00  0.00    +0.000 NA
ATOM     22  C   UNL     1       5.584   3.413  12.975  0.00  0.00    +0.000 A 
ATOM     23  C   UNL     1       5.467   3.979  14.234  0.00  0.00    +0.000 A 
ENDBRANCH   6  18
BRANCH   4  24
ATOM     24  C   UNL     1       8.056   8.289  17.779  0.00  0.00    +0.000 C 
ATOM     25  F   UNL     1       7.442   9.483  18.030  0.00  0.00    +0.000 F 
ATOM     26  F   UNL     1       8.810   8.029  18.885  0.00  0.00    +0.000 F 
ATOM     27  F   UNL     1       8.936   8.537  16.769  0.00  0.00    +0.000 F 
ENDBRANCH   4  24
TORSDOF 4
ENDMDL
MODEL 9
REMARK VINA RESULT:      -8.0      3.311      4.964
REMARK  Name = 
REMARK  4 active torsions:
REMARK  status: ('A' for Active; 'I' for Inactive)
REMARK    1  A    between atoms: O_1  and  C_2
REMARK    2  A    between atoms: C_7  and  N_8
REMARK    3  A    between atoms: C_11  and  C_12
REMARK    4  A    between atoms: C_17  and  C_18
REMARK                            x       y       z     vdW  Elec       q    Type
REMARK                         _______ _______ _______ _____ _____    ______ ____
ROOT
ATOM      1  N   UNL     1       1.681   9.050  18.659  0.00  0.00    +0.000 N 
ATOM      2  C   UNL     1       2.425   7.860  18.495  0.00  0.00    +0.000 A 
ATOM      3  C   UNL     1       3.322   7.783  17.446  0.00  0.00    +0.000 A 
ATOM      4  C   UNL     1       4.062   6.619  17.318  0.00  0.00    +0.000 A 
ATOM      5  N   UNL     1       3.888   5.572  18.160  0.00  0.00    +0.000 NA
ATOM      6  C   UNL     1       2.970   5.705  19.127  0.00  0.00    +0.000 A 
ATOM      7  N   UNL     1       2.245   6.816  19.318  0.00  0.00    +0.000 NA
ATOM      8  H   UNL     1       2.029   9.824  18.100  0.00  0.00    +0.000 HD
ENDROOT
BRANCH   1  14
ATOM      9  C   UNL     1      -0.251   9.202  21.868  0.00  0.00    +0.000 A 
ATOM     10  C   UNL     1      -0.281  10.568  22.117  0.00  0.00    +0.000 A 
ATOM     11  C   UNL     1       0.295  11.434  21.191  0.00  0.00    +0.000 A 
ATOM     12  C   UNL     1       0.919  10.920  20.046  0.00  0.00    +0.000 A 
ATOM     13 CL   UNL     1       1.635  12.046  18.938  0.00  0.00    +0.000 Cl
ATOM     14  C   UNL     1       0.998   9.534  19.807  0.00  0.00    +0.000 A 
ATOM     15  C   UNL     1       0.359   8.693  20.724  0.00  0.00    +0.000 A 
BRANCH   9  16
ATOM     16  O   UNL     1      -0.809   8.306  22.732  0.00  0.00    +0.000 OA
ATOM     17  H   UNL     1      -1.756   8.503  22.826  0.00  0.00    +0.000 HD
ENDBRANCH   9  16
ENDBRANCH   1  14
BRANCH   6  18
ATOM     18  C   UNL     1       2.721   4.549  20.007  0.00  0.00    +0.000 A 
ATOM     19  C   UNL     1       1.561   4.469  20.792  0.00  0.00    +0.000 A 
ATOM     20  C   UNL     1       1.375   3.380  21.628  0.00  0.00    +0.000 A 
ATOM     21  N   UNL     1       2.251   2.363  21.742  0.00  0.00    +0.000 NA
ATOM     22  C   UNL     1       3.362   2.440  20.982  0.00  0.00    +0.000 A 
ATOM     23  C   UNL     1       3.634   3.488  20.119  0.00  0.00    +0.000 A 
ENDBRANCH   6  18
BRANCH   4  24
ATOM     24  C   UNL     1       5.100   6.491  16.219  0.00  0.00    +0.000 C 
ATOM     25  F   UNL     1       4.785   7.199  15.094  0.00  0.00    +0.000 F 
ATOM     26  F   UNL     1       6.332   6.939  16.597  0.00  0.00    +0.000 F 
ATOM     27  F   UNL     1       5.276   5.206  15.802  0.00  0.00    +0.000 F 
ENDBRANCH   4  24
TORSDOF 4
ENDMDL
