MODEL 1
REMARK VINA RESULT:      -8.2      0.000      0.000
REMARK  Name = 
REMARK  10 active torsions:
REMARK  status: ('A' for Active; 'I' for Inactive)
REMARK    1  A    between atoms: C_1  and  O_2
REMARK    2  A    between atoms: O_2  and  C_3
REMARK    3  A    between atoms: C_3  and  C_5
REMARK    4  A    between atoms: C_11  and  O_12
REMARK    5  A    between atoms: O_12  and  C_13
REMARK    6  A    between atoms: C_13  and  C_15
REMARK    7  A    between atoms: C_15  and  O_16
REMARK    8  A    between atoms: O_16  and  C_17
REMARK    9  A    between atoms: C_19  and  O_20
REMARK   10  A    between atoms: C_25  and  C_26
REMARK                            x       y       z     vdW  Elec       q    Type
REMARK                         _______ _______ _______ _____ _____    ______ ____
ROOT
ATOM      1  C   UNL     1       0.124  10.408  21.958  0.00  0.00    +0.000 A 
ATOM      2  C   UNL     1       0.286  11.213  20.828  0.00  0.00    +0.000 A 
ATOM      3  C   UNL     1       0.874  10.687  19.671  0.00  0.00    +0.000 A 
ATOM      4  C   UNL     1       1.319   9.360  19.646  0.00  0.00    +0.000 A 
ATOM      5  C   UNL     1       1.929   8.721  18.465  0.00  0.00    +0.000 A 
ATOM      6  O   UNL     1       2.115   9.272  17.390  0.00  0.00    +0.000 OA
ATOM      7  C   UNL     1       2.352   7.317  18.625  0.00  0.00    +0.000 A 
ATOM      8  C   UNL     1       2.185   6.693  19.801  0.00  0.00    +0.000 A 
ATOM      9  O   UNL     1       1.606   7.281  20.901  0.00  0.00    +0.000 OA
ATOM     10  C   UNL     1       1.186   8.583  20.798  0.00  0.00    +0.000 A 
ATOM     11  C   UNL     1       0.602   9.102  21.948  0.00  0.00    +0.000 A 
ENDROOT
BRANCH   8  12
ATOM     12  C   UNL     1       2.618   5.296  20.017  0.00  0.00    +0.000 A 
ATOM     13  C   UNL     1       3.706   4.760  19.313  0.00  0.00    +0.000 A 
ATOM     14  C   UNL     1       4.109   3.439  19.508  0.00  0.00    +0.000 A 
ATOM     15  C   UNL     1       3.442   2.637  20.430  0.00  0.00    +0.000 A 
ATOM     16  C   UNL     1       2.376   3.158  21.159  0.00  0.00    +0.000 A 
ATOM     17  C   UNL     1       1.967   4.480  20.959  0.00  0.00    +0.000 A 
ENDBRANCH   8  12
BRANCH   3  18
ATOM     18  O   UNL     1       1.002  11.485  18.570  0.00  0.00    +0.000 OA
ATOM     19  H   UNL     1       0.311  11.291  17.918  0.00  0.00    +0.000 HD
ENDBRANCH   3  18
BRANCH   1  20
ATOM     20  O   UNL     1      -0.479  10.992  23.032  0.00  0.00    +0.000 OA
BRANCH  20  21
ATOM     21  C   UNL     1      -1.008  12.300  22.812  0.00  0.00    +0.000 C 
BRANCH  21  22
ATOM     22  C   UNL     1      -2.518  12.324  22.945  0.00  0.00    +0.000 C 
ATOM     23  O   UNL     1      -3.138  11.671  23.778  0.00  0.00    +0.000 OA
BRANCH  22  24
ATOM     24  O   UNL     1      -3.054  13.302  22.120  0.00  0.00    +0.000 OA
BRANCH  24  31
ATOM     25  C   UNL     1      -4.982  12.665  20.802  0.00  0.00    +0.000 A 
ATOM     26  C   UNL     1      -5.507  12.121  19.620  0.00  0.00    +0.000 A 
ATOM     27  C   UNL     1      -4.656  11.780  18.569  0.00  0.00    +0.000 A 
ATOM     28 CL   UNL     1      -5.313  11.155  17.108  0.00  0.00    +0.000 Cl
ATOM     29  C   UNL     1      -3.279  11.947  18.685  0.00  0.00    +0.000 A 
ATOM     30  C   UNL     1      -2.745  12.471  19.857  0.00  0.00    +0.000 A 
ATOM     31  C   UNL     1      -3.597  12.862  20.902  0.00  0.00    +0.000 A 
BRANCH  25  32
ATOM     32  C   UNL     1      -5.889  13.048  21.913  0.00  0.00    +0.000 C 
ATOM     33  O   UNL     1      -6.247  12.296  22.806  0.00  0.00    +0.000 OA
BRANCH  32  35
ATOM     34  C   UNL     1      -6.204  15.101  22.985  0.00  0.00    +0.000 C 
ATOM     35  O   UNL     1      -6.267  14.346  21.772  0.00  0.00    +0.000 OA
ENDBRANCH  32  35
ENDBRANCH  25  32
ENDBRANCH  24  31
ENDBRANCH  22  24
ENDBRANCH  21  22
ENDBRANCH  20  21
ENDBRANCH   1  20
TORSDOF 9
ENDMDL
MODEL 2
REMARK VINA RESULT:      -8.2      3.363      5.702
REMARK  Name = 
REMARK  10 active torsions:
REMARK  status: ('A' for Active; 'I' for Inactive)
REMARK    1  A    between atoms: C_1  and  O_2
REMARK    2  A    between atoms: O_2  and  C_3
REMARK    3  A    between atoms: C_3  and  C_5
REMARK    4  A    between atoms: C_11  and  O_12
REMARK    5  A    between atoms: O_12  and  C_13
REMARK    6  A    between atoms: C_13  and  C_15
REMARK    7  A    between atoms: C_15  and  O_16
REMARK    8  A    between atoms: O_16  and  C_17
REMARK    9  A    between atoms: C_19  and  O_20
REMARK   10  A    between atoms: C_25  and  C_26
REMARK                            x       y       z     vdW  Elec       q    Type
REMARK                         _______ _______ _______ _____ _____    ______ ____
ROOT
ATOM      1  C   UNL     1       2.479   7.307  18.989  0.00  0.00    +0.000 A 
ATOM      2  C   UNL     1       2.260   6.280  19.911  0.00  0.00    +0.000 A 
ATOM      3  C   UNL     1       2.816   5.013  19.694  0.00  0.00    +0.000 A 
ATOM      4  C   UNL     1       3.578   4.764  18.546  0.00  0.00    +0.000 A 
ATOM      5  C   UNL     1       4.217   3.468  18.251  0.00  0.00    +0.000 A 
ATOM      6  O   UNL     1       4.151   2.478  18.964  0.00  0.00    +0.000 OA
ATOM      7  C   UNL     1       4.970   3.382  16.985  0.00  0.00    +0.000 A 
ATOM      8  C   UNL     1       5.037   4.445  16.169  0.00  0.00    +0.000 A 
ATOM      9  O   UNL     1       4.454   5.658  16.446  0.00  0.00    +0.000 OA
ATOM     10  C   UNL     1       3.751   5.791  17.616  0.00  0.00    +0.000 A 
ATOM     11  C   UNL     1       3.201   7.050  17.829  0.00  0.00    +0.000 A 
ENDROOT
BRANCH   8  12
ATOM     12  C   UNL     1       5.758   4.398  14.878  0.00  0.00    +0.000 A 
ATOM     13  C   UNL     1       5.232   3.699  13.783  0.00  0.00    +0.000 A 
ATOM     14  C   UNL     1       5.915   3.646  12.567  0.00  0.00    +0.000 A 
ATOM     15  C   UNL     1       7.129   4.311  12.423  0.00  0.00    +0.000 A 
ATOM     16  C   UNL     1       7.657   5.032  13.490  0.00  0.00    +0.000 A 
ATOM     17  C   UNL     1       6.975   5.081  14.710  0.00  0.00    +0.000 A 
ENDBRANCH   8  12
BRANCH   3  18
ATOM     18  O   UNL     1       2.610   4.030  20.619  0.00  0.00    +0.000 OA
ATOM     19  H   UNL     1       3.425   3.533  20.786  0.00  0.00    +0.000 HD
ENDBRANCH   3  18
BRANCH   1  20
ATOM     20  O   UNL     1       1.921   8.514  19.289  0.00  0.00    +0.000 OA
BRANCH  20  21
ATOM     21  C   UNL     1       1.926   9.480  18.237  0.00  0.00    +0.000 C 
BRANCH  21  22
ATOM     22  C   UNL     1       1.240  10.767  18.655  0.00  0.00    +0.000 C 
ATOM     23  O   UNL     1       1.570  11.876  18.249  0.00  0.00    +0.000 OA
BRANCH  22  24
ATOM     24  O   UNL     1       0.107  10.482  19.403  0.00  0.00    +0.000 OA
BRANCH  24  31
ATOM     25  C   UNL     1      -1.950  11.756  19.453  0.00  0.00    +0.000 A 
ATOM     26  C   UNL     1      -3.227  12.005  18.926  0.00  0.00    +0.000 A 
ATOM     27  C   UNL     1      -3.661  11.318  17.792  0.00  0.00    +0.000 A 
ATOM     28 CL   UNL     1      -5.210  11.661  17.128  0.00  0.00    +0.000 Cl
ATOM     29  C   UNL     1      -2.852  10.362  17.185  0.00  0.00    +0.000 A 
ATOM     30  C   UNL     1      -1.591  10.096  17.707  0.00  0.00    +0.000 A 
ATOM     31  C   UNL     1      -1.126  10.816  18.819  0.00  0.00    +0.000 A 
BRANCH  25  32
ATOM     32  C   UNL     1      -1.479  12.502  20.647  0.00  0.00    +0.000 C 
ATOM     33  O   UNL     1      -0.696  13.439  20.614  0.00  0.00    +0.000 OA
BRANCH  32  35
ATOM     34  C   UNL     1      -1.081  11.456  22.698  0.00  0.00    +0.000 C 
ATOM     35  O   UNL     1      -2.036  11.975  21.769  0.00  0.00    +0.000 OA
ENDBRANCH  32  35
ENDBRANCH  25  32
ENDBRANCH  24  31
ENDBRANCH  22  24
ENDBRANCH  21  22
ENDBRANCH  20  21
ENDBRANCH   1  20
TORSDOF 9
ENDMDL
MODEL 3
REMARK VINA RESULT:      -8.1      0.641      1.102
REMARK  Name = 
REMARK  10 active torsions:
REMARK  status: ('A' for Active; 'I' for Inactive)
REMARK    1  A    between atoms: C_1  and  O_2
REMARK    2  A    between atoms: O_2  and  C_3
REMARK    3  A    between atoms: C_3  and  C_5
REMARK    4  A    between atoms: C_11  and  O_12
REMARK    5  A    between atoms: O_12  and  C_13
REMARK    6  A    between atoms: C_13  and  C_15
REMARK    7  A    between atoms: C_15  and  O_16
REMARK    8  A    between atoms: O_16  and  C_17
REMARK    9  A    between atoms: C_19  and  O_20
REMARK   10  A    between atoms: C_25  and  C_26
REMARK                            x       y       z     vdW  Elec       q    Type
REMARK                         _______ _______ _______ _____ _____    ______ ____
ROOT
ATOM      1  C   UNL     1      -0.062  10.405  21.805  0.00  0.00    +0.000 A 
ATOM      2  C   UNL     1       0.106  11.207  20.673  0.00  0.00    +0.000 A 
ATOM      3  C   UNL     1       0.744  10.692  19.537  0.00  0.00    +0.000 A 
ATOM      4  C   UNL     1       1.230   9.380  19.536  0.00  0.00    +0.000 A 
ATOM      5  C   UNL     1       1.894   8.751  18.377  0.00  0.00    +0.000 A 
ATOM      6  O   UNL     1       2.093   9.300  17.304  0.00  0.00    +0.000 OA
ATOM      7  C   UNL     1       2.356   7.363  18.561  0.00  0.00    +0.000 A 
ATOM      8  C   UNL     1       2.175   6.743  19.737  0.00  0.00    +0.000 A 
ATOM      9  O   UNL     1       1.547   7.319  20.815  0.00  0.00    +0.000 OA
ATOM     10  C   UNL     1       1.089   8.607  20.690  0.00  0.00    +0.000 A 
ATOM     11  C   UNL     1       0.456   9.116  21.818  0.00  0.00    +0.000 A 
ENDROOT
BRANCH   8  12
ATOM     12  C   UNL     1       2.646   5.361  19.977  0.00  0.00    +0.000 A 
ATOM     13  C   UNL     1       1.984   4.520  20.882  0.00  0.00    +0.000 A 
ATOM     14  C   UNL     1       2.433   3.220  21.117  0.00  0.00    +0.000 A 
ATOM     15  C   UNL     1       3.542   2.733  20.431  0.00  0.00    +0.000 A 
ATOM     16  C   UNL     1       4.198   3.544  19.509  0.00  0.00    +0.000 A 
ATOM     17  C   UNL     1       3.753   4.848  19.278  0.00  0.00    +0.000 A 
ENDBRANCH   8  12
BRANCH   3  18
ATOM     18  O   UNL     1       0.877  11.485  18.434  0.00  0.00    +0.000 OA
ATOM     19  H   UNL     1       0.531  12.375  18.601  0.00  0.00    +0.000 HD
ENDBRANCH   3  18
BRANCH   1  20
ATOM     20  O   UNL     1      -0.714  10.978  22.856  0.00  0.00    +0.000 OA
BRANCH  20  21
ATOM     21  C   UNL     1      -1.285  12.264  22.608  0.00  0.00    +0.000 C 
BRANCH  21  22
ATOM     22  C   UNL     1      -2.750  12.311  22.996  0.00  0.00    +0.000 C 
ATOM     23  O   UNL     1      -3.234  11.649  23.908  0.00  0.00    +0.000 OA
BRANCH  22  24
ATOM     24  O   UNL     1      -3.396  13.319  22.295  0.00  0.00    +0.000 OA
BRANCH  24  31
ATOM     25  C   UNL     1      -5.618  12.710  21.555  0.00  0.00    +0.000 A 
ATOM     26  C   UNL     1      -6.456  12.194  20.553  0.00  0.00    +0.000 A 
ATOM     27  C   UNL     1      -5.935  11.883  19.298  0.00  0.00    +0.000 A 
ATOM     28 CL   UNL     1      -6.977  11.293  18.064  0.00  0.00    +0.000 Cl
ATOM     29  C   UNL     1      -4.580  12.051  19.028  0.00  0.00    +0.000 A 
ATOM     30  C   UNL     1      -3.737  12.546  20.016  0.00  0.00    +0.000 A 
ATOM     31  C   UNL     1      -4.260  12.908  21.268  0.00  0.00    +0.000 A 
BRANCH  25  32
ATOM     32  C   UNL     1      -6.177  13.063  22.884  0.00  0.00    +0.000 C 
ATOM     33  O   UNL     1      -6.555  12.251  23.714  0.00  0.00    +0.000 OA
BRANCH  32  35
ATOM     34  C   UNL     1      -7.433  15.007  22.562  0.00  0.00    +0.000 C 
ATOM     35  O   UNL     1      -6.216  14.414  23.024  0.00  0.00    +0.000 OA
ENDBRANCH  32  35
ENDBRANCH  25  32
ENDBRANCH  24  31
ENDBRANCH  22  24
ENDBRANCH  21  22
ENDBRANCH  20  21
ENDBRANCH   1  20
TORSDOF 9
ENDMDL
MODEL 4
REMARK VINA RESULT:      -8.1      8.490     12.018
REMARK  Name = 
REMARK  10 active torsions:
REMARK  status: ('A' for Active; 'I' for Inactive)
REMARK    1  A    between atoms: C_1  and  O_2
REMARK    2  A    between atoms: O_2  and  C_3
REMARK    3  A    between atoms: C_3  and  C_5
REMARK    4  A    between atoms: C_11  and  O_12
REMARK    5  A    between atoms: O_12  and  C_13
REMARK    6  A    between atoms: C_13  and  C_15
REMARK    7  A    between atoms: C_15  and  O_16
REMARK    8  A    between atoms: O_16  and  C_17
REMARK    9  A    between atoms: C_19  and  O_20
REMARK   10  A    between atoms: C_25  and  C_26
REMARK                            x       y       z     vdW  Elec       q    Type
REMARK                         _______ _______ _______ _____ _____    ______ ____
ROOT
ATOM      1  C   UNL     1       9.442  10.649  18.508  0.00  0.00    +0.000 A 
ATOM      2  C   UNL     1      10.200  11.621  17.850  0.00  0.00    +0.000 A 
ATOM      3  C   UNL     1      10.547  12.806  18.511  0.00  0.00    +0.000 A 
ATOM      4  C   UNL     1      10.122  13.031  19.825  0.00  0.00    +0.000 A 
ATOM      5  C   UNL     1      10.459  14.239  20.602  0.00  0.00    +0.000 A 
ATOM      6  O   UNL     1      11.136  15.169  20.189  0.00  0.00    +0.000 OA
ATOM      7  C   UNL     1       9.911  14.313  21.970  0.00  0.00    +0.000 A 
ATOM      8  C   UNL     1       9.142  13.320  22.441  0.00  0.00    +0.000 A 
ATOM      9  O   UNL     1       8.836  12.187  21.727  0.00  0.00    +0.000 OA
ATOM     10  C   UNL     1       9.330  12.067  20.453  0.00  0.00    +0.000 A 
ATOM     11  C   UNL     1       8.986  10.889  19.799  0.00  0.00    +0.000 A 
ENDROOT
BRANCH   8  12
ATOM     12  C   UNL     1       8.549  13.363  23.796  0.00  0.00    +0.000 A 
ATOM     13  C   UNL     1       8.234  12.182  24.483  0.00  0.00    +0.000 A 
ATOM     14  C   UNL     1       7.665  12.221  25.756  0.00  0.00    +0.000 A 
ATOM     15  C   UNL     1       7.421  13.445  26.372  0.00  0.00    +0.000 A 
ATOM     16  C   UNL     1       7.751  14.629  25.717  0.00  0.00    +0.000 A 
ATOM     17  C   UNL     1       8.315  14.591  24.439  0.00  0.00    +0.000 A 
ENDBRANCH   8  12
BRANCH   3  18
ATOM     18  O   UNL     1      11.308  13.732  17.857  0.00  0.00    +0.000 OA
ATOM     19  H   UNL     1      10.835  14.092  17.091  0.00  0.00    +0.000 HD
ENDBRANCH   3  18
BRANCH   1  20
ATOM     20  O   UNL     1       9.170   9.517  17.800  0.00  0.00    +0.000 OA
BRANCH  20  21
ATOM     21  C   UNL     1       7.806   9.093  17.805  0.00  0.00    +0.000 C 
BRANCH  21  22
ATOM     22  C   UNL     1       7.689   7.581  17.797  0.00  0.00    +0.000 C 
ATOM     23  O   UNL     1       8.122   6.860  18.690  0.00  0.00    +0.000 OA
BRANCH  22  24
ATOM     24  O   UNL     1       6.886   7.171  16.743  0.00  0.00    +0.000 OA
BRANCH  24  31
ATOM     25  C   UNL     1       5.699   5.061  16.755  0.00  0.00    +0.000 A 
ATOM     26  C   UNL     1       4.517   4.345  16.995  0.00  0.00    +0.000 A 
ATOM     27  C   UNL     1       3.409   4.989  17.545  0.00  0.00    +0.000 A 
ATOM     28 CL   UNL     1       1.979   4.093  17.877  0.00  0.00    +0.000 Cl
ATOM     29  C   UNL     1       3.449   6.349  17.838  0.00  0.00    +0.000 A 
ATOM     30  C   UNL     1       4.610   7.073  17.590  0.00  0.00    +0.000 A 
ATOM     31  C   UNL     1       5.746   6.424  17.081  0.00  0.00    +0.000 A 
BRANCH  25  32
ATOM     32  C   UNL     1       6.886   4.371  16.189  0.00  0.00    +0.000 C 
ATOM     33  O   UNL     1       7.938   4.201  16.786  0.00  0.00    +0.000 OA
BRANCH  32  35
ATOM     34  C   UNL     1       7.134   4.873  13.920  0.00  0.00    +0.000 C 
ATOM     35  O   UNL     1       6.627   3.978  14.914  0.00  0.00    +0.000 OA
ENDBRANCH  32  35
ENDBRANCH  25  32
ENDBRANCH  24  31
ENDBRANCH  22  24
ENDBRANCH  21  22
ENDBRANCH  20  21
ENDBRANCH   1  20
TORSDOF 9
ENDMDL
MODEL 5
REMARK VINA RESULT:      -8.1      3.015      5.463
REMARK  Name = 
REMARK  10 active torsions:
REMARK  status: ('A' for Active; 'I' for Inactive)
REMARK    1  A    between atoms: C_1  and  O_2
REMARK    2  A    between atoms: O_2  and  C_3
REMARK    3  A    between atoms: C_3  and  C_5
REMARK    4  A    between atoms: C_11  and  O_12
REMARK    5  A    between atoms: O_12  and  C_13
REMARK    6  A    between atoms: C_13  and  C_15
REMARK    7  A    between atoms: C_15  and  O_16
REMARK    8  A    between atoms: O_16  and  C_17
REMARK    9  A    between atoms: C_19  and  O_20
REMARK   10  A    between atoms: C_25  and  C_26
REMARK                            x       y       z     vdW  Elec       q    Type
REMARK                         _______ _______ _______ _____ _____    ______ ____
ROOT
ATOM      1  C   UNL     1       1.967   7.323  20.049  0.00  0.00    +0.000 A 
ATOM      2  C   UNL     1       1.426   6.222  20.718  0.00  0.00    +0.000 A 
ATOM      3  C   UNL     1       1.788   4.924  20.340  0.00  0.00    +0.000 A 
ATOM      4  C   UNL     1       2.679   4.722  19.279  0.00  0.00    +0.000 A 
ATOM      5  C   UNL     1       3.131   3.391  18.829  0.00  0.00    +0.000 A 
ATOM      6  O   UNL     1       2.780   2.330  19.324  0.00  0.00    +0.000 OA
ATOM      7  C   UNL     1       4.061   3.367  17.684  0.00  0.00    +0.000 A 
ATOM      8  C   UNL     1       4.444   4.515  17.104  0.00  0.00    +0.000 A 
ATOM      9  O   UNL     1       4.036   5.757  17.527  0.00  0.00    +0.000 OA
ATOM     10  C   UNL     1       3.178   5.832  18.595  0.00  0.00    +0.000 A 
ATOM     11  C   UNL     1       2.820   7.122  18.970  0.00  0.00    +0.000 A 
ENDROOT
BRANCH   8  12
ATOM     12  C   UNL     1       5.353   4.539  15.938  0.00  0.00    +0.000 A 
ATOM     13  C   UNL     1       6.615   5.145  16.019  0.00  0.00    +0.000 A 
ATOM     14  C   UNL     1       7.469   5.178  14.917  0.00  0.00    +0.000 A 
ATOM     15  C   UNL     1       7.082   4.585  13.719  0.00  0.00    +0.000 A 
ATOM     16  C   UNL     1       5.844   3.955  13.625  0.00  0.00    +0.000 A 
ATOM     17  C   UNL     1       4.985   3.927  14.727  0.00  0.00    +0.000 A 
ENDBRANCH   8  12
BRANCH   3  18
ATOM     18  O   UNL     1       1.266   3.863  21.022  0.00  0.00    +0.000 OA
ATOM     19  H   UNL     1       0.768   4.160  21.799  0.00  0.00    +0.000 HD
ENDBRANCH   3  18
BRANCH   1  20
ATOM     20  O   UNL     1       1.578   8.551  20.497  0.00  0.00    +0.000 OA
BRANCH  20  21
ATOM     21  C   UNL     1       0.475   8.560  21.404  0.00  0.00    +0.000 C 
BRANCH  21  22
ATOM     22  C   UNL     1       0.594   9.679  22.420  0.00  0.00    +0.000 C 
ATOM     23  O   UNL     1       0.958   9.510  23.579  0.00  0.00    +0.000 OA
BRANCH  22  24
ATOM     24  O   UNL     1       0.403  10.907  21.803  0.00  0.00    +0.000 OA
BRANCH  24  31
ATOM     25  C   UNL     1      -1.426  12.108  20.767  0.00  0.00    +0.000 A 
ATOM     26  C   UNL     1      -2.671  12.745  20.887  0.00  0.00    +0.000 A 
ATOM     27  C   UNL     1      -3.354  12.722  22.102  0.00  0.00    +0.000 A 
ATOM     28 CL   UNL     1      -4.898  13.467  22.227  0.00  0.00    +0.000 Cl
ATOM     29  C   UNL     1      -2.803  12.095  23.216  0.00  0.00    +0.000 A 
ATOM     30  C   UNL     1      -1.563  11.474  23.114  0.00  0.00    +0.000 A 
ATOM     31  C   UNL     1      -0.890  11.450  21.883  0.00  0.00    +0.000 A 
BRANCH  25  32
ATOM     32  C   UNL     1      -0.708  12.114  19.467  0.00  0.00    +0.000 C 
ATOM     33  O   UNL     1       0.279  12.790  19.223  0.00  0.00    +0.000 OA
BRANCH  32  35
ATOM     34  C   UNL     1      -0.513  10.166  18.191  0.00  0.00    +0.000 C 
ATOM     35  O   UNL     1      -1.325  11.271  18.597  0.00  0.00    +0.000 OA
ENDBRANCH  32  35
ENDBRANCH  25  32
ENDBRANCH  24  31
ENDBRANCH  22  24
ENDBRANCH  21  22
ENDBRANCH  20  21
ENDBRANCH   1  20
TORSDOF 9
ENDMDL
MODEL 6
REMARK VINA RESULT:      -8.0      2.215      2.994
REMARK  Name = 
REMARK  10 active torsions:
REMARK  status: ('A' for Active; 'I' for Inactive)
REMARK    1  A    between atoms: C_1  and  O_2
REMARK    2  A    between atoms: O_2  and  C_3
REMARK    3  A    between atoms: C_3  and  C_5
REMARK    4  A    between atoms: C_11  and  O_12
REMARK    5  A    between atoms: O_12  and  C_13
REMARK    6  A    between atoms: C_13  and  C_15
REMARK    7  A    between atoms: C_15  and  O_16
REMARK    8  A    between atoms: O_16  and  C_17
REMARK    9  A    between atoms: C_19  and  O_20
REMARK   10  A    between atoms: C_25  and  C_26
REMARK                            x       y       z     vdW  Elec       q    Type
REMARK                         _______ _______ _______ _____ _____    ______ ____
ROOT
ATOM      1  C   UNL     1       0.356  10.639  21.715  0.00  0.00    +0.000 A 
ATOM      2  C   UNL     1       0.515  11.356  20.527  0.00  0.00    +0.000 A 
ATOM      3  C   UNL     1       1.035  10.724  19.391  0.00  0.00    +0.000 A 
ATOM      4  C   UNL     1       1.413   9.378  19.444  0.00  0.00    +0.000 A 
ATOM      5  C   UNL     1       1.949   8.629  18.290  0.00  0.00    +0.000 A 
ATOM      6  O   UNL     1       2.122   9.095  17.174  0.00  0.00    +0.000 OA
ATOM      7  C   UNL     1       2.309   7.219  18.535  0.00  0.00    +0.000 A 
ATOM      8  C   UNL     1       2.156   6.687  19.756  0.00  0.00    +0.000 A 
ATOM      9  O   UNL     1       1.646   7.377  20.831  0.00  0.00    +0.000 OA
ATOM     10  C   UNL     1       1.286   8.688  20.651  0.00  0.00    +0.000 A 
ATOM     11  C   UNL     1       0.769   9.314  21.780  0.00  0.00    +0.000 A 
ENDROOT
BRANCH   8  12
ATOM     12  C   UNL     1       2.529   5.287  20.055  0.00  0.00    +0.000 A 
ATOM     13  C   UNL     1       3.616   4.678  19.414  0.00  0.00    +0.000 A 
ATOM     14  C   UNL     1       3.963   3.355  19.687  0.00  0.00    +0.000 A 
ATOM     15  C   UNL     1       3.238   2.625  20.625  0.00  0.00    +0.000 A 
ATOM     16  C   UNL     1       2.171   3.220  21.292  0.00  0.00    +0.000 A 
ATOM     17  C   UNL     1       1.818   4.544  21.014  0.00  0.00    +0.000 A 
ENDBRANCH   8  12
BRANCH   3  18
ATOM     18  O   UNL     1       1.160  11.437  18.233  0.00  0.00    +0.000 OA
ATOM     19  H   UNL     1       1.538  10.890  17.527  0.00  0.00    +0.000 HD
ENDBRANCH   3  18
BRANCH   1  20
ATOM     20  O   UNL     1      -0.179  11.325  22.765  0.00  0.00    +0.000 OA
BRANCH  20  21
ATOM     21  C   UNL     1      -1.504  10.948  23.143  0.00  0.00    +0.000 C 
BRANCH  21  22
ATOM     22  C   UNL     1      -2.516  12.016  22.778  0.00  0.00    +0.000 C 
ATOM     23  O   UNL     1      -2.530  12.601  21.700  0.00  0.00    +0.000 OA
BRANCH  22  24
ATOM     24  O   UNL     1      -3.498  12.097  23.755  0.00  0.00    +0.000 OA
BRANCH  24  31
ATOM     25  C   UNL     1      -5.238  13.774  23.621  0.00  0.00    +0.000 A 
ATOM     26  C   UNL     1      -5.656  15.096  23.836  0.00  0.00    +0.000 A 
ATOM     27  C   UNL     1      -4.811  16.002  24.477  0.00  0.00    +0.000 A 
ATOM     28 CL   UNL     1      -5.350  17.607  24.776  0.00  0.00    +0.000 Cl
ATOM     29  C   UNL     1      -3.537  15.619  24.887  0.00  0.00    +0.000 A 
ATOM     30  C   UNL     1      -3.105  14.316  24.665  0.00  0.00    +0.000 A 
ATOM     31  C   UNL     1      -3.966  13.384  24.064  0.00  0.00    +0.000 A 
BRANCH  25  32
ATOM     32  C   UNL     1      -6.145  12.804  22.958  0.00  0.00    +0.000 C 
ATOM     33  O   UNL     1      -6.932  12.078  23.546  0.00  0.00    +0.000 OA
BRANCH  32  35
ATOM     34  C   UNL     1      -7.075  13.345  20.883  0.00  0.00    +0.000 C 
ATOM     35  O   UNL     1      -5.954  12.838  21.613  0.00  0.00    +0.000 OA
ENDBRANCH  32  35
ENDBRANCH  25  32
ENDBRANCH  24  31
ENDBRANCH  22  24
ENDBRANCH  21  22
ENDBRANCH  20  21
ENDBRANCH   1  20
TORSDOF 9
ENDMDL
MODEL 7
REMARK VINA RESULT:      -8.0      3.396      5.470
REMARK  Name = 
REMARK  10 active torsions:
REMARK  status: ('A' for Active; 'I' for Inactive)
REMARK    1  A    between atoms: C_1  and  O_2
REMARK    2  A    between atoms: O_2  and  C_3
REMARK    3  A    between atoms: C_3  and  C_5
REMARK    4  A    between atoms: C_11  and  O_12
REMARK    5  A    between atoms: O_12  and  C_13
REMARK    6  A    between atoms: C_13  and  C_15
REMARK    7  A    between atoms: C_15  and  O_16
REMARK    8  A    between atoms: O_16  and  C_17
REMARK    9  A    between atoms: C_19  and  O_20
REMARK   10  A    between atoms: C_25  and  C_26
REMARK                            x       y       z     vdW  Elec       q    Type
REMARK                         _______ _______ _______ _____ _____    ______ ____
ROOT
ATOM      1  C   UNL     1       2.437   7.082  19.184  0.00  0.00    +0.000 A 
ATOM      2  C   UNL     1       2.177   6.007  20.039  0.00  0.00    +0.000 A 
ATOM      3  C   UNL     1       2.706   4.742  19.756  0.00  0.00    +0.000 A 
ATOM      4  C   UNL     1       3.481   4.543  18.607  0.00  0.00    +0.000 A 
ATOM      5  C   UNL     1       4.094   3.251  18.244  0.00  0.00    +0.000 A 
ATOM      6  O   UNL     1       3.992   2.222  18.896  0.00  0.00    +0.000 OA
ATOM      7  C   UNL     1       4.867   3.222  16.988  0.00  0.00    +0.000 A 
ATOM      8  C   UNL     1       4.974   4.329  16.238  0.00  0.00    +0.000 A 
ATOM      9  O   UNL     1       4.416   5.539  16.579  0.00  0.00    +0.000 OA
ATOM     10  C   UNL     1       3.696   5.618  17.743  0.00  0.00    +0.000 A 
ATOM     11  C   UNL     1       3.172   6.876  18.023  0.00  0.00    +0.000 A 
ENDROOT
BRANCH   8  12
ATOM     12  C   UNL     1       5.716   4.342  14.959  0.00  0.00    +0.000 A 
ATOM     13  C   UNL     1       6.904   5.073  14.821  0.00  0.00    +0.000 A 
ATOM     14  C   UNL     1       7.600   5.094  13.611  0.00  0.00    +0.000 A 
ATOM     15  C   UNL     1       7.126   4.364  12.524  0.00  0.00    +0.000 A 
ATOM     16  C   UNL     1       5.962   3.610  12.649  0.00  0.00    +0.000 A 
ATOM     17  C   UNL     1       5.262   3.594  13.858  0.00  0.00    +0.000 A 
ENDBRANCH   8  12
BRANCH   3  18
ATOM     18  O   UNL     1       2.460   3.711  20.616  0.00  0.00    +0.000 OA
ATOM     19  H   UNL     1       1.673   3.213  20.347  0.00  0.00    +0.000 HD
ENDBRANCH   3  18
BRANCH   1  20
ATOM     20  O   UNL     1       1.903   8.282  19.548  0.00  0.00    +0.000 OA
BRANCH  20  21
ATOM     21  C   UNL     1       1.488   8.391  20.910  0.00  0.00    +0.000 C 
BRANCH  21  22
ATOM     22  C   UNL     1       0.196   9.173  21.042  0.00  0.00    +0.000 C 
ATOM     23  O   UNL     1      -0.745   8.819  21.746  0.00  0.00    +0.000 OA
BRANCH  22  24
ATOM     24  O   UNL     1       0.312  10.397  20.401  0.00  0.00    +0.000 OA
BRANCH  24  31
ATOM     25  C   UNL     1      -1.679  11.666  19.865  0.00  0.00    +0.000 A 
ATOM     26  C   UNL     1      -2.757  11.909  18.999  0.00  0.00    +0.000 A 
ATOM     27  C   UNL     1      -2.855  11.216  17.793  0.00  0.00    +0.000 A 
ATOM     28 CL   UNL     1      -4.155  11.551  16.720  0.00  0.00    +0.000 Cl
ATOM     29  C   UNL     1      -1.906  10.259  17.443  0.00  0.00    +0.000 A 
ATOM     30  C   UNL     1      -0.842   9.999  18.299  0.00  0.00    +0.000 A 
ATOM     31  C   UNL     1      -0.708  10.725  19.493  0.00  0.00    +0.000 A 
BRANCH  25  32
ATOM     32  C   UNL     1      -1.562  12.420  21.139  0.00  0.00    +0.000 C 
ATOM     33  O   UNL     1      -1.908  11.994  22.230  0.00  0.00    +0.000 OA
BRANCH  32  35
ATOM     34  C   UNL     1      -1.733  14.714  21.547  0.00  0.00    +0.000 C 
ATOM     35  O   UNL     1      -1.032  13.649  20.900  0.00  0.00    +0.000 OA
ENDBRANCH  32  35
ENDBRANCH  25  32
ENDBRANCH  24  31
ENDBRANCH  22  24
ENDBRANCH  21  22
ENDBRANCH  20  21
ENDBRANCH   1  20
TORSDOF 9
ENDMDL
MODEL 8
REMARK VINA RESULT:      -8.0      3.114      5.358
REMARK  Name = 
REMARK  10 active torsions:
REMARK  status: ('A' for Active; 'I' for Inactive)
REMARK    1  A    between atoms: C_1  and  O_2
REMARK    2  A    between atoms: O_2  and  C_3
REMARK    3  A    between atoms: C_3  and  C_5
REMARK    4  A    between atoms: C_11  and  O_12
REMARK    5  A    between atoms: O_12  and  C_13
REMARK    6  A    between atoms: C_13  and  C_15
REMARK    7  A    between atoms: C_15  and  O_16
REMARK    8  A    between atoms: O_16  and  C_17
REMARK    9  A    between atoms: C_19  and  O_20
REMARK   10  A    between atoms: C_25  and  C_26
REMARK                            x       y       z     vdW  Elec       q    Type
REMARK                         _______ _______ _______ _____ _____    ______ ____
ROOT
ATOM      1  C   UNL     1       1.931   6.313  20.316  0.00  0.00    +0.000 A 
ATOM      2  C   UNL     1       1.354   5.116  20.749  0.00  0.00    +0.000 A 
ATOM      3  C   UNL     1       1.709   3.906  20.141  0.00  0.00    +0.000 A 
ATOM      4  C   UNL     1       2.629   3.890  19.087  0.00  0.00    +0.000 A 
ATOM      5  C   UNL     1       3.076   2.660  18.405  0.00  0.00    +0.000 A 
ATOM      6  O   UNL     1       2.695   1.532  18.679  0.00  0.00    +0.000 OA
ATOM      7  C   UNL     1       4.041   2.835  17.303  0.00  0.00    +0.000 A 
ATOM      8  C   UNL     1       4.458   4.063  16.962  0.00  0.00    +0.000 A 
ATOM      9  O   UNL     1       4.054   5.211  17.602  0.00  0.00    +0.000 OA
ATOM     10  C   UNL     1       3.165   5.100  18.640  0.00  0.00    +0.000 A 
ATOM     11  C   UNL     1       2.814   6.302  19.243  0.00  0.00    +0.000 A 
ENDROOT
BRANCH   8  12
ATOM     12  C   UNL     1       5.403   4.290  15.847  0.00  0.00    +0.000 A 
ATOM     13  C   UNL     1       6.565   5.053  16.031  0.00  0.00    +0.000 A 
ATOM     14  C   UNL     1       7.453   5.277  14.978  0.00  0.00    +0.000 A 
ATOM     15  C   UNL     1       7.201   4.720  13.726  0.00  0.00    +0.000 A 
ATOM     16  C   UNL     1       6.067   3.937  13.531  0.00  0.00    +0.000 A 
ATOM     17  C   UNL     1       5.173   3.719  14.584  0.00  0.00    +0.000 A 
ENDBRANCH   8  12
BRANCH   3  18
ATOM     18  O   UNL     1       1.151   2.745  20.595  0.00  0.00    +0.000 OA
ATOM     19  H   UNL     1       1.709   2.332  21.271  0.00  0.00    +0.000 HD
ENDBRANCH   3  18
BRANCH   1  20
ATOM     20  O   UNL     1       1.546   7.440  20.978  0.00  0.00    +0.000 OA
BRANCH  20  21
ATOM     21  C   UNL     1       1.458   8.626  20.187  0.00  0.00    +0.000 C 
BRANCH  21  22
ATOM     22  C   UNL     1       0.272   9.482  20.589  0.00  0.00    +0.000 C 
ATOM     23  O   UNL     1      -0.459   9.228  21.540  0.00  0.00    +0.000 OA
BRANCH  22  24
ATOM     24  O   UNL     1       0.254  10.651  19.843  0.00  0.00    +0.000 OA
BRANCH  24  31
ATOM     25  C   UNL     1      -1.878  11.696  19.370  0.00  0.00    +0.000 A 
ATOM     26  C   UNL     1      -3.025  11.785  18.566  0.00  0.00    +0.000 A 
ATOM     27  C   UNL     1      -3.128  11.014  17.409  0.00  0.00    +0.000 A 
ATOM     28 CL   UNL     1      -4.517  11.162  16.406  0.00  0.00    +0.000 Cl
ATOM     29  C   UNL     1      -2.115  10.129  17.050  0.00  0.00    +0.000 A 
ATOM     30  C   UNL     1      -0.981  10.021  17.847  0.00  0.00    +0.000 A 
ATOM     31  C   UNL     1      -0.846  10.827  18.988  0.00  0.00    +0.000 A 
BRANCH  25  32
ATOM     32  C   UNL     1      -1.758  12.533  20.591  0.00  0.00    +0.000 C 
ATOM     33  O   UNL     1      -1.989  12.142  21.725  0.00  0.00    +0.000 OA
BRANCH  32  35
ATOM     34  C   UNL     1      -0.018  14.093  20.600  0.00  0.00    +0.000 C 
ATOM     35  O   UNL     1      -1.372  13.791  20.251  0.00  0.00    +0.000 OA
ENDBRANCH  32  35
ENDBRANCH  25  32
ENDBRANCH  24  31
ENDBRANCH  22  24
ENDBRANCH  21  22
ENDBRANCH  20  21
ENDBRANCH   1  20
TORSDOF 9
ENDMDL
MODEL 9
REMARK VINA RESULT:      -8.0      8.798     12.479
REMARK  Name = 
REMARK  10 active torsions:
REMARK  status: ('A' for Active; 'I' for Inactive)
REMARK    1  A    between atoms: C_1  and  O_2
REMARK    2  A    between atoms: O_2  and  C_3
REMARK    3  A    between atoms: C_3  and  C_5
REMARK    4  A    between atoms: C_11  and  O_12
REMARK    5  A    between atoms: O_12  and  C_13
REMARK    6  A    between atoms: C_13  and  C_15
REMARK    7  A    between atoms: C_15  and  O_16
REMARK    8  A    between atoms: O_16  and  C_17
REMARK    9  A    between atoms: C_19  and  O_20
REMARK   10  A    between atoms: C_25  and  C_26
REMARK                            x       y       z     vdW  Elec       q    Type
REMARK                         _______ _______ _______ _____ _____    ______ ____
ROOT
ATOM      1  C   UNL     1       9.341  10.561  19.021  0.00  0.00    +0.000 A 
ATOM      2  C   UNL     1       9.749  11.239  17.869  0.00  0.00    +0.000 A 
ATOM      3  C   UNL     1      10.098  12.593  17.939  0.00  0.00    +0.000 A 
ATOM      4  C   UNL     1      10.024  13.279  19.157  0.00  0.00    +0.000 A 
ATOM      5  C   UNL     1      10.392  14.698  19.324  0.00  0.00    +0.000 A 
ATOM      6  O   UNL     1      10.796  15.425  18.429  0.00  0.00    +0.000 OA
ATOM      7  C   UNL     1      10.236  15.260  20.679  0.00  0.00    +0.000 A 
ATOM      8  C   UNL     1       9.769  14.493  21.676  0.00  0.00    +0.000 A 
ATOM      9  O   UNL     1       9.437  13.167  21.529  0.00  0.00    +0.000 OA
ATOM     10  C   UNL     1       9.574  12.596  20.289  0.00  0.00    +0.000 A 
ATOM     11  C   UNL     1       9.228  11.251  20.222  0.00  0.00    +0.000 A 
ENDROOT
BRANCH   8  12
ATOM     12  C   UNL     1       9.570  15.020  23.044  0.00  0.00    +0.000 A 
ATOM     13  C   UNL     1      10.206  16.197  23.464  0.00  0.00    +0.000 A 
ATOM     14  C   UNL     1      10.028  16.689  24.757  0.00  0.00    +0.000 A 
ATOM     15  C   UNL     1       9.190  16.021  25.646  0.00  0.00    +0.000 A 
ATOM     16  C   UNL     1       8.529  14.865  25.240  0.00  0.00    +0.000 A 
ATOM     17  C   UNL     1       8.713  14.367  23.947  0.00  0.00    +0.000 A 
ENDBRANCH   8  12
BRANCH   3  18
ATOM     18  O   UNL     1      10.516  13.230  16.806  0.00  0.00    +0.000 OA
ATOM     19  H   UNL     1      10.436  12.652  16.032  0.00  0.00    +0.000 HD
ENDBRANCH   3  18
BRANCH   1  20
ATOM     20  O   UNL     1       9.043   9.240  18.868  0.00  0.00    +0.000 OA
BRANCH  20  21
ATOM     21  C   UNL     1       8.042   8.937  17.896  0.00  0.00    +0.000 C 
BRANCH  21  22
ATOM     22  C   UNL     1       7.730   7.454  17.855  0.00  0.00    +0.000 C 
ATOM     23  O   UNL     1       8.021   6.672  18.754  0.00  0.00    +0.000 OA
BRANCH  22  24
ATOM     24  O   UNL     1       6.933   7.164  16.757  0.00  0.00    +0.000 OA
BRANCH  24  31
ATOM     25  C   UNL     1       5.664   5.181  16.197  0.00  0.00    +0.000 A 
ATOM     26  C   UNL     1       4.505   4.405  16.359  0.00  0.00    +0.000 A 
ATOM     27  C   UNL     1       3.540   4.778  17.294  0.00  0.00    +0.000 A 
ATOM     28 CL   UNL     1       2.145   3.798  17.517  0.00  0.00    +0.000 Cl
ATOM     29  C   UNL     1       3.696   5.932  18.057  0.00  0.00    +0.000 A 
ATOM     30  C   UNL     1       4.832   6.716  17.894  0.00  0.00    +0.000 A 
ATOM     31  C   UNL     1       5.832   6.324  16.990  0.00  0.00    +0.000 A 
BRANCH  25  32
ATOM     32  C   UNL     1       6.702   4.772  15.217  0.00  0.00    +0.000 C 
ATOM     33  O   UNL     1       7.757   5.361  15.039  0.00  0.00    +0.000 OA
BRANCH  32  35
ATOM     34  C   UNL     1       6.303   3.813  13.124  0.00  0.00    +0.000 C 
ATOM     35  O   UNL     1       6.292   3.664  14.546  0.00  0.00    +0.000 OA
ENDBRANCH  32  35
ENDBRANCH  25  32
ENDBRANCH  24  31
ENDBRANCH  22  24
ENDBRANCH  21  22
ENDBRANCH  20  21
ENDBRANCH   1  20
TORSDOF 9
ENDMDL
