MODEL 1
REMARK VINA RESULT:      -6.8      0.000      0.000
REMARK  Name = 
REMARK  3 active torsions:
REMARK  status: ('A' for Active; 'I' for Inactive)
REMARK    1  A    between atoms: C_1  and  C_2
REMARK    2  A    between atoms: C_2  and  C_3
REMARK    3  A    between atoms: C_2  and  N_11
REMARK                            x       y       z     vdW  Elec       q    Type
REMARK                         _______ _______ _______ _____ _____    ______ ____
ROOT
ATOM      1  N   UNL     1      -5.062  12.644  19.293  0.00  0.00    +0.000 N 
ATOM      2  C   UNL     1      -3.686  12.162  19.299  0.00  0.00    +0.000 A 
ATOM      3  C   UNL     1      -2.690  12.406  20.247  0.00  0.00    +0.000 A 
ATOM      4  C   UNL     1      -1.416  11.857  20.027  0.00  0.00    +0.000 A 
ATOM      5  C   UNL     1      -1.118  11.104  18.885  0.00  0.00    +0.000 A 
ATOM      6  C   UNL     1      -2.103  10.885  17.919  0.00  0.00    +0.000 A 
ATOM      7  C   UNL     1      -1.908  10.183  16.714  0.00  0.00    +0.000 A 
ATOM      8  C   UNL     1      -2.963  10.038  15.794  0.00  0.00    +0.000 A 
ATOM      9  C   UNL     1      -4.232  10.572  16.045  0.00  0.00    +0.000 A 
ATOM     10  C   UNL     1      -4.395  11.245  17.249  0.00  0.00    +0.000 A 
ATOM     11  C   UNL     1      -3.362  11.406  18.153  0.00  0.00    +0.000 A 
ATOM     12  S   UNL     1      -5.822  12.054  17.884  0.00  0.00    +0.000 S 
ATOM     13  O   UNL     1      -6.654  10.902  18.114  0.00  0.00    +0.000 OA
ATOM     14  O   UNL     1      -5.999  13.034  16.843  0.00  0.00    +0.000 OA
ENDROOT
BRANCH   1  16
ATOM     15  C   UNL     1      -7.246  13.875  19.723  0.00  0.00    +0.000 C 
ATOM     16  C   UNL     1      -5.887  13.420  20.227  0.00  0.00    +0.000 C 
BRANCH  16  17
ATOM     17  C   UNL     1      -6.018  12.738  21.604  0.00  0.00    +0.000 C 
ATOM     18  O   UNL     1      -6.770  11.761  21.703  0.00  0.00    +0.000 OA
ATOM     19  N   UNL     1      -5.265  13.170  22.687  0.00  0.00    +0.000 N 
ATOM     20  C   UNL     1      -4.397  14.350  22.720  0.00  0.00    +0.000 C 
ATOM     21  C   UNL     1      -3.194  14.121  23.633  0.00  0.00    +0.000 C 
ATOM     22  O   UNL     1      -3.613  13.767  24.954  0.00  0.00    +0.000 OA
ATOM     23  C   UNL     1      -4.391  12.558  24.930  0.00  0.00    +0.000 C 
ATOM     24  C   UNL     1      -5.625  12.690  24.028  0.00  0.00    +0.000 C 
ENDBRANCH  16  17
ENDBRANCH   1  16
TORSDOF 2
ENDMDL
MODEL 2
REMARK VINA RESULT:      -6.7     10.297     12.592
REMARK  Name = 
REMARK  3 active torsions:
REMARK  status: ('A' for Active; 'I' for Inactive)
REMARK    1  A    between atoms: C_1  and  C_2
REMARK    2  A    between atoms: C_2  and  C_3
REMARK    3  A    between atoms: C_2  and  N_11
REMARK                            x       y       z     vdW  Elec       q    Type
REMARK                         _______ _______ _______ _____ _____    ______ ____
ROOT
ATOM      1  N   UNL     1       4.170   4.238  17.340  0.00  0.00    +0.000 N 
ATOM      2  C   UNL     1       3.410   5.200  18.129  0.00  0.00    +0.000 A 
ATOM      3  C   UNL     1       3.465   6.595  18.077  0.00  0.00    +0.000 A 
ATOM      4  C   UNL     1       2.656   7.324  18.964  0.00  0.00    +0.000 A 
ATOM      5  C   UNL     1       1.826   6.696  19.901  0.00  0.00    +0.000 A 
ATOM      6  C   UNL     1       1.793   5.302  19.976  0.00  0.00    +0.000 A 
ATOM      7  C   UNL     1       1.033   4.563  20.904  0.00  0.00    +0.000 A 
ATOM      8  C   UNL     1       1.087   3.158  20.913  0.00  0.00    +0.000 A 
ATOM      9  C   UNL     1       1.882   2.450  20.004  0.00  0.00    +0.000 A 
ATOM     10  C   UNL     1       2.606   3.207  19.093  0.00  0.00    +0.000 A 
ATOM     11  C   UNL     1       2.572   4.588  19.085  0.00  0.00    +0.000 A 
ATOM     12  S   UNL     1       3.714   2.671  17.836  0.00  0.00    +0.000 S 
ATOM     13  O   UNL     1       2.769   2.036  16.955  0.00  0.00    +0.000 OA
ATOM     14  O   UNL     1       4.681   2.000  18.668  0.00  0.00    +0.000 OA
ENDROOT
BRANCH   1  16
ATOM     15  C   UNL     1       4.631   3.912  14.860  0.00  0.00    +0.000 C 
ATOM     16  C   UNL     1       5.126   4.340  16.231  0.00  0.00    +0.000 C 
BRANCH  16  17
ATOM     17  C   UNL     1       5.796   5.727  16.157  0.00  0.00    +0.000 C 
ATOM     18  O   UNL     1       5.400   6.524  15.298  0.00  0.00    +0.000 OA
ATOM     19  N   UNL     1       6.775   6.095  17.071  0.00  0.00    +0.000 N 
ATOM     20  C   UNL     1       7.379   5.228  18.085  0.00  0.00    +0.000 C 
ATOM     21  C   UNL     1       7.747   6.021  19.338  0.00  0.00    +0.000 C 
ATOM     22  O   UNL     1       8.622   7.106  19.017  0.00  0.00    +0.000 OA
ATOM     23  C   UNL     1       7.993   8.005  18.089  0.00  0.00    +0.000 C 
ATOM     24  C   UNL     1       7.578   7.293  16.795  0.00  0.00    +0.000 C 
ENDBRANCH  16  17
ENDBRANCH   1  16
TORSDOF 2
ENDMDL
MODEL 3
REMARK VINA RESULT:      -6.6      9.028     11.818
REMARK  Name = 
REMARK  3 active torsions:
REMARK  status: ('A' for Active; 'I' for Inactive)
REMARK    1  A    between atoms: C_1  and  C_2
REMARK    2  A    between atoms: C_2  and  C_3
REMARK    3  A    between atoms: C_2  and  N_11
REMARK                            x       y       z     vdW  Elec       q    Type
REMARK                         _______ _______ _______ _____ _____    ______ ____
ROOT
ATOM      1  N   UNL     1       3.064   4.982  19.268  0.00  0.00    +0.000 N 
ATOM      2  C   UNL     1       2.955   6.337  18.739  0.00  0.00    +0.000 A 
ATOM      3  C   UNL     1       3.638   6.900  17.659  0.00  0.00    +0.000 A 
ATOM      4  C   UNL     1       3.393   8.247  17.349  0.00  0.00    +0.000 A 
ATOM      5  C   UNL     1       2.512   9.035  18.100  0.00  0.00    +0.000 A 
ATOM      6  C   UNL     1       1.852   8.484  19.200  0.00  0.00    +0.000 A 
ATOM      7  C   UNL     1       0.980   9.189  20.053  0.00  0.00    +0.000 A 
ATOM      8  C   UNL     1       0.382   8.546  21.152  0.00  0.00    +0.000 A 
ATOM      9  C   UNL     1       0.621   7.195  21.429  0.00  0.00    +0.000 A 
ATOM     10  C   UNL     1       1.473   6.525  20.561  0.00  0.00    +0.000 A 
ATOM     11  C   UNL     1       2.077   7.150  19.486  0.00  0.00    +0.000 A 
ATOM     12  S   UNL     1       2.015   4.852  20.607  0.00  0.00    +0.000 S 
ATOM     13  O   UNL     1       0.768   4.200  20.305  0.00  0.00    +0.000 OA
ATOM     14  O   UNL     1       2.673   4.871  21.888  0.00  0.00    +0.000 OA
ENDROOT
BRANCH   1  16
ATOM     15  C   UNL     1       3.228   2.446  19.344  0.00  0.00    +0.000 C 
ATOM     16  C   UNL     1       3.789   3.772  18.862  0.00  0.00    +0.000 C 
BRANCH  16  17
ATOM     17  C   UNL     1       4.059   3.728  17.344  0.00  0.00    +0.000 C 
ATOM     18  O   UNL     1       3.159   3.319  16.601  0.00  0.00    +0.000 OA
ATOM     19  N   UNL     1       5.257   4.195  16.820  0.00  0.00    +0.000 N 
ATOM     20  C   UNL     1       6.422   4.638  17.589  0.00  0.00    +0.000 C 
ATOM     21  C   UNL     1       7.168   5.755  16.863  0.00  0.00    +0.000 C 
ATOM     22  O   UNL     1       7.558   5.341  15.551  0.00  0.00    +0.000 OA
ATOM     23  C   UNL     1       6.405   4.992  14.767  0.00  0.00    +0.000 C 
ATOM     24  C   UNL     1       5.583   3.876  15.424  0.00  0.00    +0.000 C 
ENDBRANCH  16  17
ENDBRANCH   1  16
TORSDOF 2
ENDMDL
MODEL 4
REMARK VINA RESULT:      -6.6      2.088      3.396
REMARK  Name = 
REMARK  3 active torsions:
REMARK  status: ('A' for Active; 'I' for Inactive)
REMARK    1  A    between atoms: C_1  and  C_2
REMARK    2  A    between atoms: C_2  and  C_3
REMARK    3  A    between atoms: C_2  and  N_11
REMARK                            x       y       z     vdW  Elec       q    Type
REMARK                         _______ _______ _______ _____ _____    ______ ____
ROOT
ATOM      1  N   UNL     1      -4.051  12.402  19.535  0.00  0.00    +0.000 N 
ATOM      2  C   UNL     1      -3.391  11.505  18.593  0.00  0.00    +0.000 A 
ATOM      3  C   UNL     1      -3.945  10.848  17.492  0.00  0.00    +0.000 A 
ATOM      4  C   UNL     1      -3.117  10.001  16.740  0.00  0.00    +0.000 A 
ATOM      5  C   UNL     1      -1.775   9.782  17.075  0.00  0.00    +0.000 A 
ATOM      6  C   UNL     1      -1.226  10.412  18.194  0.00  0.00    +0.000 A 
ATOM      7  C   UNL     1       0.094  10.235  18.653  0.00  0.00    +0.000 A 
ATOM      8  C   UNL     1       0.543  10.900  19.808  0.00  0.00    +0.000 A 
ATOM      9  C   UNL     1      -0.293  11.760  20.530  0.00  0.00    +0.000 A 
ATOM     10  C   UNL     1      -1.582  11.925  20.043  0.00  0.00    +0.000 A 
ATOM     11  C   UNL     1      -2.039  11.265  18.917  0.00  0.00    +0.000 A 
ATOM     12  S   UNL     1      -2.899  12.895  20.692  0.00  0.00    +0.000 S 
ATOM     13  O   UNL     1      -2.357  14.206  20.447  0.00  0.00    +0.000 OA
ATOM     14  O   UNL     1      -3.027  12.257  21.977  0.00  0.00    +0.000 OA
ENDROOT
BRANCH   1  16
ATOM     15  C   UNL     1      -6.210  13.045  18.356  0.00  0.00    +0.000 C 
ATOM     16  C   UNL     1      -5.396  12.981  19.636  0.00  0.00    +0.000 C 
BRANCH  16  17
ATOM     17  C   UNL     1      -6.225  12.354  20.776  0.00  0.00    +0.000 C 
ATOM     18  O   UNL     1      -6.419  11.133  20.754  0.00  0.00    +0.000 OA
ATOM     19  N   UNL     1      -6.685  13.129  21.832  0.00  0.00    +0.000 N 
ATOM     20  C   UNL     1      -6.583  14.586  21.942  0.00  0.00    +0.000 C 
ATOM     21  C   UNL     1      -6.420  15.016  23.399  0.00  0.00    +0.000 C 
ATOM     22  O   UNL     1      -7.497  14.524  24.201  0.00  0.00    +0.000 OA
ATOM     23  C   UNL     1      -7.541  13.088  24.163  0.00  0.00    +0.000 C 
ATOM     24  C   UNL     1      -7.696  12.558  22.732  0.00  0.00    +0.000 C 
ENDBRANCH  16  17
ENDBRANCH   1  16
TORSDOF 2
ENDMDL
MODEL 5
REMARK VINA RESULT:      -6.5      3.078      5.172
REMARK  Name = 
REMARK  3 active torsions:
REMARK  status: ('A' for Active; 'I' for Inactive)
REMARK    1  A    between atoms: C_1  and  C_2
REMARK    2  A    between atoms: C_2  and  C_3
REMARK    3  A    between atoms: C_2  and  N_11
REMARK                            x       y       z     vdW  Elec       q    Type
REMARK                         _______ _______ _______ _____ _____    ______ ____
ROOT
ATOM      1  N   UNL     1      -2.885  12.688  20.644  0.00  0.00    +0.000 N 
ATOM      2  C   UNL     1      -3.290  12.113  19.367  0.00  0.00    +0.000 A 
ATOM      3  C   UNL     1      -2.477  11.588  18.360  0.00  0.00    +0.000 A 
ATOM      4  C   UNL     1      -3.093  11.113  17.191  0.00  0.00    +0.000 A 
ATOM      5  C   UNL     1      -4.480  11.175  17.002  0.00  0.00    +0.000 A 
ATOM      6  C   UNL     1      -5.292  11.728  17.995  0.00  0.00    +0.000 A 
ATOM      7  C   UNL     1      -6.688  11.882  17.899  0.00  0.00    +0.000 A 
ATOM      8  C   UNL     1      -7.414  12.475  18.948  0.00  0.00    +0.000 A 
ATOM      9  C   UNL     1      -6.783  12.919  20.116  0.00  0.00    +0.000 A 
ATOM     10  C   UNL     1      -5.408  12.739  20.185  0.00  0.00    +0.000 A 
ATOM     11  C   UNL     1      -4.683  12.171  19.154  0.00  0.00    +0.000 A 
ATOM     12  S   UNL     1      -4.292  13.188  21.468  0.00  0.00    +0.000 S 
ATOM     13  O   UNL     1      -4.728  12.265  22.483  0.00  0.00    +0.000 OA
ATOM     14  O   UNL     1      -4.516  14.611  21.464  0.00  0.00    +0.000 OA
ENDROOT
BRANCH   1  16
ATOM     15  C   UNL     1      -1.485  14.024  22.295  0.00  0.00    +0.000 C 
ATOM     16  C   UNL     1      -1.604  12.845  21.344  0.00  0.00    +0.000 C 
BRANCH  16  17
ATOM     17  C   UNL     1      -1.145  11.544  22.033  0.00  0.00    +0.000 C 
ATOM     18  O   UNL     1      -1.668  11.237  23.111  0.00  0.00    +0.000 OA
ATOM     19  N   UNL     1      -0.217  10.707  21.429  0.00  0.00    +0.000 N 
ATOM     20  C   UNL     1       0.523  10.985  20.196  0.00  0.00    +0.000 C 
ATOM     21  C   UNL     1       0.790   9.701  19.413  0.00  0.00    +0.000 C 
ATOM     22  O   UNL     1       1.491   8.749  20.217  0.00  0.00    +0.000 OA
ATOM     23  C   UNL     1       0.723   8.409  21.383  0.00  0.00    +0.000 C 
ATOM     24  C   UNL     1       0.397   9.643  22.234  0.00  0.00    +0.000 C 
ENDBRANCH  16  17
ENDBRANCH   1  16
TORSDOF 2
ENDMDL
MODEL 6
REMARK VINA RESULT:      -6.3      3.463      5.277
REMARK  Name = 
REMARK  3 active torsions:
REMARK  status: ('A' for Active; 'I' for Inactive)
REMARK    1  A    between atoms: C_1  and  C_2
REMARK    2  A    between atoms: C_2  and  C_3
REMARK    3  A    between atoms: C_2  and  N_11
REMARK                            x       y       z     vdW  Elec       q    Type
REMARK                         _______ _______ _______ _____ _____    ______ ____
ROOT
ATOM      1  N   UNL     1      -2.108  12.205  20.733  0.00  0.00    +0.000 N 
ATOM      2  C   UNL     1      -2.195  11.494  19.463  0.00  0.00    +0.000 A 
ATOM      3  C   UNL     1      -1.211  10.731  18.831  0.00  0.00    +0.000 A 
ATOM      4  C   UNL     1      -1.514  10.160  17.584  0.00  0.00    +0.000 A 
ATOM      5  C   UNL     1      -2.751  10.354  16.958  0.00  0.00    +0.000 A 
ATOM      6  C   UNL     1      -3.726  11.142  17.573  0.00  0.00    +0.000 A 
ATOM      7  C   UNL     1      -4.986  11.442  17.020  0.00  0.00    +0.000 A 
ATOM      8  C   UNL     1      -5.891  12.268  17.712  0.00  0.00    +0.000 A 
ATOM      9  C   UNL     1      -5.578  12.808  18.965  0.00  0.00    +0.000 A 
ATOM     10  C   UNL     1      -4.335  12.480  19.489  0.00  0.00    +0.000 A 
ATOM     11  C   UNL     1      -3.433  11.681  18.812  0.00  0.00    +0.000 A 
ATOM     12  S   UNL     1      -3.600  12.985  21.005  0.00  0.00    +0.000 S 
ATOM     13  O   UNL     1      -4.463  12.284  21.921  0.00  0.00    +0.000 OA
ATOM     14  O   UNL     1      -3.584  14.408  20.778  0.00  0.00    +0.000 OA
ENDROOT
BRANCH   1  16
ATOM     15  C   UNL     1      -1.154  11.294  22.907  0.00  0.00    +0.000 C 
ATOM     16  C   UNL     1      -1.090  12.315  21.785  0.00  0.00    +0.000 C 
BRANCH  16  17
ATOM     17  C   UNL     1       0.340  12.406  21.214  0.00  0.00    +0.000 C 
ATOM     18  O   UNL     1       1.098  11.442  21.379  0.00  0.00    +0.000 OA
ATOM     19  N   UNL     1       0.745  13.513  20.480  0.00  0.00    +0.000 N 
ATOM     20  C   UNL     1      -0.026  14.740  20.273  0.00  0.00    +0.000 C 
ATOM     21  C   UNL     1       0.266  15.347  18.902  0.00  0.00    +0.000 C 
ATOM     22  O   UNL     1       1.664  15.597  18.740  0.00  0.00    +0.000 OA
ATOM     23  C   UNL     1       2.413  14.376  18.855  0.00  0.00    +0.000 C 
ATOM     24  C   UNL     1       2.177  13.685  20.204  0.00  0.00    +0.000 C 
ENDBRANCH  16  17
ENDBRANCH   1  16
TORSDOF 2
ENDMDL
MODEL 7
REMARK VINA RESULT:      -6.3      2.239      3.208
REMARK  Name = 
REMARK  3 active torsions:
REMARK  status: ('A' for Active; 'I' for Inactive)
REMARK    1  A    between atoms: C_1  and  C_2
REMARK    2  A    between atoms: C_2  and  C_3
REMARK    3  A    between atoms: C_2  and  N_11
REMARK                            x       y       z     vdW  Elec       q    Type
REMARK                         _______ _______ _______ _____ _____    ______ ____
ROOT
ATOM      1  N   UNL     1      -3.857  11.846  18.733  0.00  0.00    +0.000 N 
ATOM      2  C   UNL     1      -2.843  12.078  19.756  0.00  0.00    +0.000 A 
ATOM      3  C   UNL     1      -2.927  12.893  20.887  0.00  0.00    +0.000 A 
ATOM      4  C   UNL     1      -1.802  12.987  21.722  0.00  0.00    +0.000 A 
ATOM      5  C   UNL     1      -0.607  12.313  21.439  0.00  0.00    +0.000 A 
ATOM      6  C   UNL     1      -0.510  11.523  20.291  0.00  0.00    +0.000 A 
ATOM      7  C   UNL     1       0.650  10.836  19.883  0.00  0.00    +0.000 A 
ATOM      8  C   UNL     1       0.652  10.084  18.694  0.00  0.00    +0.000 A 
ATOM      9  C   UNL     1      -0.489   9.984  17.889  0.00  0.00    +0.000 A 
ATOM     10  C   UNL     1      -1.619  10.659  18.328  0.00  0.00    +0.000 A 
ATOM     11  C   UNL     1      -1.628  11.413  19.486  0.00  0.00    +0.000 A 
ATOM     12  S   UNL     1      -3.204  10.778  17.575  0.00  0.00    +0.000 S 
ATOM     13  O   UNL     1      -3.636   9.414  17.737  0.00  0.00    +0.000 OA
ATOM     14  O   UNL     1      -2.812  11.402  16.337  0.00  0.00    +0.000 OA
ENDROOT
BRANCH   1  16
ATOM     15  C   UNL     1      -5.757  12.366  17.125  0.00  0.00    +0.000 C 
ATOM     16  C   UNL     1      -5.253  12.262  18.554  0.00  0.00    +0.000 C 
BRANCH  16  17
ATOM     17  C   UNL     1      -6.230  11.435  19.415  0.00  0.00    +0.000 C 
ATOM     18  O   UNL     1      -6.457  10.266  19.082  0.00  0.00    +0.000 OA
ATOM     19  N   UNL     1      -6.789  11.968  20.569  0.00  0.00    +0.000 N 
ATOM     20  C   UNL     1      -6.657  13.351  21.033  0.00  0.00    +0.000 C 
ATOM     21  C   UNL     1      -6.656  13.420  22.558  0.00  0.00    +0.000 C 
ATOM     22  O   UNL     1      -7.835  12.818  23.099  0.00  0.00    +0.000 OA
ATOM     23  C   UNL     1      -7.917  11.435  22.716  0.00  0.00    +0.000 C 
ATOM     24  C   UNL     1      -7.917  11.263  21.192  0.00  0.00    +0.000 C 
ENDBRANCH  16  17
ENDBRANCH   1  16
TORSDOF 2
ENDMDL
MODEL 8
REMARK VINA RESULT:      -6.3      3.208      6.170
REMARK  Name = 
REMARK  3 active torsions:
REMARK  status: ('A' for Active; 'I' for Inactive)
REMARK    1  A    between atoms: C_1  and  C_2
REMARK    2  A    between atoms: C_2  and  C_3
REMARK    3  A    between atoms: C_2  and  N_11
REMARK                            x       y       z     vdW  Elec       q    Type
REMARK                         _______ _______ _______ _____ _____    ______ ____
ROOT
ATOM      1  N   UNL     1      -3.217  13.165  22.081  0.00  0.00    +0.000 N 
ATOM      2  C   UNL     1      -4.193  12.751  21.079  0.00  0.00    +0.000 A 
ATOM      3  C   UNL     1      -4.004  12.587  19.705  0.00  0.00    +0.000 A 
ATOM      4  C   UNL     1      -5.108  12.209  18.925  0.00  0.00    +0.000 A 
ATOM      5  C   UNL     1      -6.381  12.017  19.479  0.00  0.00    +0.000 A 
ATOM      6  C   UNL     1      -6.579  12.211  20.848  0.00  0.00    +0.000 A 
ATOM      7  C   UNL     1      -7.818  12.090  21.507  0.00  0.00    +0.000 A 
ATOM      8  C   UNL     1      -7.916  12.330  22.890  0.00  0.00    +0.000 A 
ATOM      9  C   UNL     1      -6.798  12.683  23.653  0.00  0.00    +0.000 A 
ATOM     10  C   UNL     1      -5.590  12.778  22.976  0.00  0.00    +0.000 A 
ATOM     11  C   UNL     1      -5.483  12.559  21.616  0.00  0.00    +0.000 A 
ATOM     12  S   UNL     1      -4.001  13.215  23.594  0.00  0.00    +0.000 S 
ATOM     13  O   UNL     1      -3.751  12.058  24.415  0.00  0.00    +0.000 OA
ATOM     14  O   UNL     1      -4.308  14.540  24.068  0.00  0.00    +0.000 OA
ENDROOT
BRANCH   1  16
ATOM     15  C   UNL     1      -1.278  14.504  23.037  0.00  0.00    +0.000 C 
ATOM     16  C   UNL     1      -1.778  13.455  22.059  0.00  0.00    +0.000 C 
BRANCH  16  17
ATOM     17  C   UNL     1      -0.917  12.178  22.146  0.00  0.00    +0.000 C 
ATOM     18  O   UNL     1      -0.770  11.646  23.253  0.00  0.00    +0.000 OA
ATOM     19  N   UNL     1      -0.375  11.605  21.004  0.00  0.00    +0.000 N 
ATOM     20  C   UNL     1      -0.416  12.169  19.652  0.00  0.00    +0.000 C 
ATOM     21  C   UNL     1      -0.489  11.065  18.599  0.00  0.00    +0.000 C 
ATOM     22  O   UNL     1       0.607  10.156  18.733  0.00  0.00    +0.000 OA
ATOM     23  C   UNL     1       0.595   9.537  20.030  0.00  0.00    +0.000 C 
ATOM     24  C   UNL     1       0.658  10.573  21.159  0.00  0.00    +0.000 C 
ENDBRANCH  16  17
ENDBRANCH   1  16
TORSDOF 2
ENDMDL
MODEL 9
REMARK VINA RESULT:      -6.2      3.284      4.321
REMARK  Name = 
REMARK  3 active torsions:
REMARK  status: ('A' for Active; 'I' for Inactive)
REMARK    1  A    between atoms: C_1  and  C_2
REMARK    2  A    between atoms: C_2  and  C_3
REMARK    3  A    between atoms: C_2  and  N_11
REMARK                            x       y       z     vdW  Elec       q    Type
REMARK                         _______ _______ _______ _____ _____    ______ ____
ROOT
ATOM      1  N   UNL     1      -0.954  12.384  20.646  0.00  0.00    +0.000 N 
ATOM      2  C   UNL     1      -0.537  11.171  21.340  0.00  0.00    +0.000 A 
ATOM      3  C   UNL     1      -0.743  10.827  22.678  0.00  0.00    +0.000 A 
ATOM      4  C   UNL     1      -0.219   9.608  23.138  0.00  0.00    +0.000 A 
ATOM      5  C   UNL     1       0.515   8.753  22.306  0.00  0.00    +0.000 A 
ATOM      6  C   UNL     1       0.750   9.109  20.976  0.00  0.00    +0.000 A 
ATOM      7  C   UNL     1       1.509   8.353  20.062  0.00  0.00    +0.000 A 
ATOM      8  C   UNL     1       1.706   8.812  18.747  0.00  0.00    +0.000 A 
ATOM      9  C   UNL     1       1.154  10.019  18.302  0.00  0.00    +0.000 A 
ATOM     10  C   UNL     1       0.399  10.732  19.223  0.00  0.00    +0.000 A 
ATOM     11  C   UNL     1       0.210  10.298  20.522  0.00  0.00    +0.000 A 
ATOM     12  S   UNL     1      -0.417  12.279  19.031  0.00  0.00    +0.000 S 
ATOM     13  O   UNL     1      -1.444  11.880  18.103  0.00  0.00    +0.000 OA
ATOM     14  O   UNL     1       0.730  13.095  18.725  0.00  0.00    +0.000 OA
ENDROOT
BRANCH   1  16
ATOM     15  C   UNL     1      -1.431  14.856  20.290  0.00  0.00    +0.000 C 
ATOM     16  C   UNL     1      -1.751  13.560  21.015  0.00  0.00    +0.000 C 
BRANCH  16  17
ATOM     17  C   UNL     1      -3.267  13.280  20.983  0.00  0.00    +0.000 C 
ATOM     18  O   UNL     1      -3.801  13.074  19.887  0.00  0.00    +0.000 OA
ATOM     19  N   UNL     1      -4.001  13.197  22.159  0.00  0.00    +0.000 N 
ATOM     20  C   UNL     1      -3.506  13.486  23.507  0.00  0.00    +0.000 C 
ATOM     21  C   UNL     1      -4.191  12.599  24.545  0.00  0.00    +0.000 C 
ATOM     22  O   UNL     1      -5.613  12.747  24.487  0.00  0.00    +0.000 OA
ATOM     23  C   UNL     1      -6.106  12.377  23.189  0.00  0.00    +0.000 C 
ATOM     24  C   UNL     1      -5.467  13.214  22.074  0.00  0.00    +0.000 C 
ENDBRANCH  16  17
ENDBRANCH   1  16
TORSDOF 2
ENDMDL
