MODEL 1
REMARK VINA RESULT:      -8.3      0.000      0.000
REMARK  Name = 
REMARK  5 active torsions:
REMARK  status: ('A' for Active; 'I' for Inactive)
REMARK    1  A    between atoms: C_1  and  N_2
REMARK    2  A    between atoms: C_6  and  C_7
REMARK    3  A    between atoms: C_7  and  N_8
REMARK    4  A    between atoms: C_13  and  C_14
REMARK    5  A    between atoms: C_16  and  C_17
REMARK                            x       y       z     vdW  Elec       q    Type
REMARK                         _______ _______ _______ _____ _____    ______ ____
ROOT
ATOM      1  N   UNL     1       2.880   4.791  19.087  0.00  0.00    +0.000 NA
ATOM      2  C   UNL     1       1.732   4.243  18.356  0.00  0.00    +0.000 C 
ATOM      3  C   UNL     1       1.473   2.741  18.501  0.00  0.00    +0.000 C 
ATOM      4  C   UNL     1       2.732   1.899  18.617  0.00  0.00    +0.000 C 
ATOM      5  C   UNL     1       3.702   2.532  19.601  0.00  0.00    +0.000 C 
ATOM      6  C   UNL     1       4.093   3.956  19.180  0.00  0.00    +0.000 C 
ENDROOT
BRANCH   6   7
ATOM      7  C   UNL     1       5.090   3.966  18.044  0.00  0.00    +0.000 A 
ATOM      8  N   UNL     1       4.954   3.786  16.747  0.00  0.00    +0.000 NA
ATOM      9  C   UNL     1       6.176   4.193  16.246  0.00  0.00    +0.000 A 
ATOM     10  N   UNL     1       7.057   4.556  17.194  0.00  0.00    +0.000 NA
ATOM     11  O   UNL     1       6.340   4.424  18.377  0.00  0.00    +0.000 OA
BRANCH   9  12
ATOM     12  C   UNL     1       6.449   4.288  14.812  0.00  0.00    +0.000 A 
ATOM     13  C   UNL     1       7.472   5.133  14.355  0.00  0.00    +0.000 A 
ATOM     14  C   UNL     1       7.794   5.187  12.993  0.00  0.00    +0.000 A 
ATOM     15  C   UNL     1       7.101   4.404  12.069  0.00  0.00    +0.000 A 
ATOM     16  C   UNL     1       6.070   3.574  12.504  0.00  0.00    +0.000 A 
ATOM     17  C   UNL     1       5.749   3.512  13.866  0.00  0.00    +0.000 A 
ENDBRANCH   9  12
ENDBRANCH   6   7
BRANCH   1  18
ATOM     18  C   UNL     1       3.143   6.194  18.715  0.00  0.00    +0.000 C 
BRANCH  18  24
ATOM     19  C   UNL     1       2.102   8.953  17.740  0.00  0.00    +0.000 C 
ATOM     20  N   UNL     1       1.878   8.379  19.043  0.00  0.00    +0.000 N 
ATOM     21  C   UNL     1       1.216   9.005  20.062  0.00  0.00    +0.000 A 
ATOM     22  C   UNL     1       1.173   8.087  21.081  0.00  0.00    +0.000 A 
ATOM     23  N   UNL     1       1.824   6.937  20.723  0.00  0.00    +0.000 NA
ATOM     24  C   UNL     1       2.272   7.139  19.496  0.00  0.00    +0.000 A 
ENDBRANCH  18  24
ENDBRANCH   1  18
TORSDOF 4
ENDMDL
MODEL 2
REMARK VINA RESULT:      -8.0      0.440      1.078
REMARK  Name = 
REMARK  5 active torsions:
REMARK  status: ('A' for Active; 'I' for Inactive)
REMARK    1  A    between atoms: C_1  and  N_2
REMARK    2  A    between atoms: C_6  and  C_7
REMARK    3  A    between atoms: C_7  and  N_8
REMARK    4  A    between atoms: C_13  and  C_14
REMARK    5  A    between atoms: C_16  and  C_17
REMARK                            x       y       z     vdW  Elec       q    Type
REMARK                         _______ _______ _______ _____ _____    ______ ____
ROOT
ATOM      1  N   UNL     1       2.775   4.639  18.666  0.00  0.00    +0.000 NA
ATOM      2  C   UNL     1       1.787   3.824  17.951  0.00  0.00    +0.000 C 
ATOM      3  C   UNL     1       1.821   2.315  18.204  0.00  0.00    +0.000 C 
ATOM      4  C   UNL     1       3.215   1.749  18.416  0.00  0.00    +0.000 C 
ATOM      5  C   UNL     1       4.002   2.629  19.373  0.00  0.00    +0.000 C 
ATOM      6  C   UNL     1       4.123   4.070  18.854  0.00  0.00    +0.000 C 
ENDROOT
BRANCH   6   7
ATOM      7  C   UNL     1       5.144   4.198  17.746  0.00  0.00    +0.000 A 
ATOM      8  N   UNL     1       5.143   3.793  16.494  0.00  0.00    +0.000 NA
ATOM      9  C   UNL     1       6.228   4.457  15.952  0.00  0.00    +0.000 A 
ATOM     10  N   UNL     1       6.911   5.198  16.842  0.00  0.00    +0.000 NA
ATOM     11  O   UNL     1       6.190   5.043  18.019  0.00  0.00    +0.000 OA
BRANCH   9  12
ATOM     12  C   UNL     1       6.550   4.410  14.525  0.00  0.00    +0.000 A 
ATOM     13  C   UNL     1       5.785   3.606  13.667  0.00  0.00    +0.000 A 
ATOM     14  C   UNL     1       6.034   3.599  12.289  0.00  0.00    +0.000 A 
ATOM     15  C   UNL     1       7.049   4.391  11.748  0.00  0.00    +0.000 A 
ATOM     16  C   UNL     1       7.829   5.181  12.590  0.00  0.00    +0.000 A 
ATOM     17  C   UNL     1       7.579   5.195  13.968  0.00  0.00    +0.000 A 
ENDBRANCH   9  12
ENDBRANCH   6   7
BRANCH   1  18
ATOM     18  C   UNL     1       2.773   6.037  18.195  0.00  0.00    +0.000 C 
BRANCH  18  24
ATOM     19  C   UNL     1       2.051   9.026  17.761  0.00  0.00    +0.000 C 
ATOM     20  N   UNL     1       1.900   8.292  18.991  0.00  0.00    +0.000 N 
ATOM     21  C   UNL     1       1.465   8.834  20.169  0.00  0.00    +0.000 A 
ATOM     22  C   UNL     1       1.406   7.783  21.049  0.00  0.00    +0.000 A 
ATOM     23  N   UNL     1       1.829   6.627  20.450  0.00  0.00    +0.000 NA
ATOM     24  C   UNL     1       2.153   6.956  19.212  0.00  0.00    +0.000 A 
ENDBRANCH  18  24
ENDBRANCH   1  18
TORSDOF 4
ENDMDL
MODEL 3
REMARK VINA RESULT:      -7.9      2.164      3.925
REMARK  Name = 
REMARK  5 active torsions:
REMARK  status: ('A' for Active; 'I' for Inactive)
REMARK    1  A    between atoms: C_1  and  N_2
REMARK    2  A    between atoms: C_6  and  C_7
REMARK    3  A    between atoms: C_7  and  N_8
REMARK    4  A    between atoms: C_13  and  C_14
REMARK    5  A    between atoms: C_16  and  C_17
REMARK                            x       y       z     vdW  Elec       q    Type
REMARK                         _______ _______ _______ _____ _____    ______ ____
ROOT
ATOM      1  N   UNL     1       5.077   5.790  18.175  0.00  0.00    +0.000 NA
ATOM      2  C   UNL     1       5.808   5.052  19.210  0.00  0.00    +0.000 C 
ATOM      3  C   UNL     1       7.166   5.616  19.634  0.00  0.00    +0.000 C 
ATOM      4  C   UNL     1       7.953   6.261  18.506  0.00  0.00    +0.000 C 
ATOM      5  C   UNL     1       7.052   7.168  17.684  0.00  0.00    +0.000 C 
ATOM      6  C   UNL     1       5.863   6.400  17.086  0.00  0.00    +0.000 C 
ENDROOT
BRANCH   6   7
ATOM      7  C   UNL     1       6.263   5.559  15.896  0.00  0.00    +0.000 A 
ATOM      8  N   UNL     1       5.595   4.693  15.162  0.00  0.00    +0.000 NA
ATOM      9  C   UNL     1       6.432   4.490  14.082  0.00  0.00    +0.000 A 
ATOM     10  N   UNL     1       7.598   5.156  14.165  0.00  0.00    +0.000 NA
ATOM     11  O   UNL     1       7.482   5.873  15.350  0.00  0.00    +0.000 OA
BRANCH   9  12
ATOM     12  C   UNL     1       6.045   3.684  12.924  0.00  0.00    +0.000 A 
ATOM     13  C   UNL     1       6.998   2.862  12.301  0.00  0.00    +0.000 A 
ATOM     14  C   UNL     1       6.631   2.032  11.234  0.00  0.00    +0.000 A 
ATOM     15  C   UNL     1       5.314   2.012  10.772  0.00  0.00    +0.000 A 
ATOM     16  C   UNL     1       4.362   2.836  11.367  0.00  0.00    +0.000 A 
ATOM     17  C   UNL     1       4.723   3.663  12.438  0.00  0.00    +0.000 A 
ENDBRANCH   9  12
ENDBRANCH   6   7
BRANCH   1  18
ATOM     18  C   UNL     1       3.888   5.048  17.714  0.00  0.00    +0.000 C 
BRANCH  18  24
ATOM     19  C   UNL     1       2.778   2.263  18.523  0.00  0.00    +0.000 C 
ATOM     20  N   UNL     1       2.435   3.519  19.139  0.00  0.00    +0.000 N 
ATOM     21  C   UNL     1       1.517   3.665  20.142  0.00  0.00    +0.000 A 
ATOM     22  C   UNL     1       1.554   4.996  20.473  0.00  0.00    +0.000 A 
ATOM     23  N   UNL     1       2.440   5.668  19.675  0.00  0.00    +0.000 NA
ATOM     24  C   UNL     1       2.944   4.766  18.851  0.00  0.00    +0.000 A 
ENDBRANCH  18  24
ENDBRANCH   1  18
TORSDOF 4
ENDMDL
MODEL 4
REMARK VINA RESULT:      -7.7      2.319      4.206
REMARK  Name = 
REMARK  5 active torsions:
REMARK  status: ('A' for Active; 'I' for Inactive)
REMARK    1  A    between atoms: C_1  and  N_2
REMARK    2  A    between atoms: C_6  and  C_7
REMARK    3  A    between atoms: C_7  and  N_8
REMARK    4  A    between atoms: C_13  and  C_14
REMARK    5  A    between atoms: C_16  and  C_17
REMARK                            x       y       z     vdW  Elec       q    Type
REMARK                         _______ _______ _______ _____ _____    ______ ____
ROOT
ATOM      1  N   UNL     1       4.952   5.878  18.031  0.00  0.00    +0.000 NA
ATOM      2  C   UNL     1       5.557   5.074  19.097  0.00  0.00    +0.000 C 
ATOM      3  C   UNL     1       6.935   5.515  19.600  0.00  0.00    +0.000 C 
ATOM      4  C   UNL     1       7.836   6.092  18.522  0.00  0.00    +0.000 C 
ATOM      5  C   UNL     1       7.065   7.079  17.661  0.00  0.00    +0.000 C 
ATOM      6  C   UNL     1       5.847   6.422  16.992  0.00  0.00    +0.000 C 
ENDROOT
BRANCH   6   7
ATOM      7  C   UNL     1       6.236   5.554  15.817  0.00  0.00    +0.000 A 
ATOM      8  N   UNL     1       5.556   4.688  15.095  0.00  0.00    +0.000 NA
ATOM      9  C   UNL     1       6.393   4.452  14.022  0.00  0.00    +0.000 A 
ATOM     10  N   UNL     1       7.571   5.098  14.099  0.00  0.00    +0.000 NA
ATOM     11  O   UNL     1       7.463   5.836  15.271  0.00  0.00    +0.000 OA
BRANCH   9  12
ATOM     12  C   UNL     1       5.997   3.634  12.875  0.00  0.00    +0.000 A 
ATOM     13  C   UNL     1       6.930   2.769  12.285  0.00  0.00    +0.000 A 
ATOM     14  C   UNL     1       6.552   1.929  11.230  0.00  0.00    +0.000 A 
ATOM     15  C   UNL     1       5.241   1.941  10.749  0.00  0.00    +0.000 A 
ATOM     16  C   UNL     1       4.308   2.808  11.312  0.00  0.00    +0.000 A 
ATOM     17  C   UNL     1       4.681   3.646  12.371  0.00  0.00    +0.000 A 
ENDBRANCH   9  12
ENDBRANCH   6   7
BRANCH   1  18
ATOM     18  C   UNL     1       3.730   5.246  17.499  0.00  0.00    +0.000 C 
BRANCH  18  24
ATOM     19  C   UNL     1       1.991   4.948  20.055  0.00  0.00    +0.000 C 
ATOM     20  N   UNL     1       2.689   3.883  19.381  0.00  0.00    +0.000 N 
ATOM     21  C   UNL     1       2.729   2.586  19.814  0.00  0.00    +0.000 A 
ATOM     22  C   UNL     1       3.433   1.907  18.852  0.00  0.00    +0.000 A 
ATOM     23  N   UNL     1       3.854   2.761  17.868  0.00  0.00    +0.000 NA
ATOM     24  C   UNL     1       3.422   3.960  18.217  0.00  0.00    +0.000 A 
ENDBRANCH  18  24
ENDBRANCH   1  18
TORSDOF 4
ENDMDL
MODEL 5
REMARK VINA RESULT:      -7.5      4.415      6.033
REMARK  Name = 
REMARK  5 active torsions:
REMARK  status: ('A' for Active; 'I' for Inactive)
REMARK    1  A    between atoms: C_1  and  N_2
REMARK    2  A    between atoms: C_6  and  C_7
REMARK    3  A    between atoms: C_7  and  N_8
REMARK    4  A    between atoms: C_13  and  C_14
REMARK    5  A    between atoms: C_16  and  C_17
REMARK                            x       y       z     vdW  Elec       q    Type
REMARK                         _______ _______ _______ _____ _____    ______ ____
ROOT
ATOM      1  N   UNL     1       5.837   4.674  17.984  0.00  0.00    +0.000 NA
ATOM      2  C   UNL     1       4.824   4.743  16.926  0.00  0.00    +0.000 C 
ATOM      3  C   UNL     1       5.311   4.551  15.487  0.00  0.00    +0.000 C 
ATOM      4  C   UNL     1       6.690   5.126  15.213  0.00  0.00    +0.000 C 
ATOM      5  C   UNL     1       7.652   4.744  16.327  0.00  0.00    +0.000 C 
ATOM      6  C   UNL     1       7.166   5.245  17.696  0.00  0.00    +0.000 C 
ENDROOT
BRANCH   6   7
ATOM      7  C   UNL     1       7.393   6.729  17.879  0.00  0.00    +0.000 A 
ATOM      8  N   UNL     1       8.237   7.407  18.626  0.00  0.00    +0.000 NA
ATOM      9  C   UNL     1       8.126   8.693  18.132  0.00  0.00    +0.000 A 
ATOM     10  N   UNL     1       7.209   8.823  17.157  0.00  0.00    +0.000 NA
ATOM     11  O   UNL     1       6.737   7.528  16.977  0.00  0.00    +0.000 OA
BRANCH   9  12
ATOM     12  C   UNL     1       8.984   9.790  18.583  0.00  0.00    +0.000 A 
ATOM     13  C   UNL     1       9.613  10.612  17.636  0.00  0.00    +0.000 A 
ATOM     14  C   UNL     1      10.384  11.707  18.046  0.00  0.00    +0.000 A 
ATOM     15  C   UNL     1      10.540  11.995  19.403  0.00  0.00    +0.000 A 
ATOM     16  C   UNL     1       9.938  11.177  20.356  0.00  0.00    +0.000 A 
ATOM     17  C   UNL     1       9.161  10.084  19.949  0.00  0.00    +0.000 A 
ENDBRANCH   9  12
ENDBRANCH   6   7
BRANCH   1  18
ATOM     18  C   UNL     1       5.285   5.068  19.293  0.00  0.00    +0.000 C 
BRANCH  18  24
ATOM     19  C   UNL     1       2.433   6.225  19.711  0.00  0.00    +0.000 C 
ATOM     20  N   UNL     1       2.812   4.842  19.855  0.00  0.00    +0.000 N 
ATOM     21  C   UNL     1       1.966   3.845  20.256  0.00  0.00    +0.000 A 
ATOM     22  C   UNL     1       2.710   2.694  20.189  0.00  0.00    +0.000 A 
ATOM     23  N   UNL     1       3.992   2.969  19.795  0.00  0.00    +0.000 NA
ATOM     24  C   UNL     1       4.048   4.279  19.625  0.00  0.00    +0.000 A 
ENDBRANCH  18  24
ENDBRANCH   1  18
TORSDOF 4
ENDMDL
MODEL 6
REMARK VINA RESULT:      -7.5      2.238      4.359
REMARK  Name = 
REMARK  5 active torsions:
REMARK  status: ('A' for Active; 'I' for Inactive)
REMARK    1  A    between atoms: C_1  and  N_2
REMARK    2  A    between atoms: C_6  and  C_7
REMARK    3  A    between atoms: C_7  and  N_8
REMARK    4  A    between atoms: C_13  and  C_14
REMARK    5  A    between atoms: C_16  and  C_17
REMARK                            x       y       z     vdW  Elec       q    Type
REMARK                         _______ _______ _______ _____ _____    ______ ____
ROOT
ATOM      1  N   UNL     1       5.994   5.536  18.592  0.00  0.00    +0.000 NA
ATOM      2  C   UNL     1       7.327   5.619  19.197  0.00  0.00    +0.000 C 
ATOM      3  C   UNL     1       8.110   6.916  18.973  0.00  0.00    +0.000 C 
ATOM      4  C   UNL     1       7.887   7.551  17.612  0.00  0.00    +0.000 C 
ATOM      5  C   UNL     1       6.405   7.569  17.273  0.00  0.00    +0.000 C 
ATOM      6  C   UNL     1       5.805   6.155  17.266  0.00  0.00    +0.000 C 
ENDROOT
BRANCH   6   7
ATOM      7  C   UNL     1       6.178   5.378  16.024  0.00  0.00    +0.000 A 
ATOM      8  N   UNL     1       5.515   4.503  15.298  0.00  0.00    +0.000 NA
ATOM      9  C   UNL     1       6.297   4.383  14.164  0.00  0.00    +0.000 A 
ATOM     10  N   UNL     1       7.429   5.108  14.207  0.00  0.00    +0.000 NA
ATOM     11  O   UNL     1       7.345   5.776  15.422  0.00  0.00    +0.000 OA
BRANCH   9  12
ATOM     12  C   UNL     1       5.885   3.598  13.000  0.00  0.00    +0.000 A 
ATOM     13  C   UNL     1       4.590   3.751  12.483  0.00  0.00    +0.000 A 
ATOM     14  C   UNL     1       4.200   3.059  11.329  0.00  0.00    +0.000 A 
ATOM     15  C   UNL     1       5.092   2.204  10.679  0.00  0.00    +0.000 A 
ATOM     16  C   UNL     1       6.375   2.027  11.192  0.00  0.00    +0.000 A 
ATOM     17  C   UNL     1       6.771   2.722  12.341  0.00  0.00    +0.000 A 
ENDBRANCH   9  12
ENDBRANCH   6   7
BRANCH   1  18
ATOM     18  C   UNL     1       5.427   4.179  18.708  0.00  0.00    +0.000 C 
BRANCH  18  24
ATOM     19  C   UNL     1       3.308   1.927  18.419  0.00  0.00    +0.000 C 
ATOM     20  N   UNL     1       3.091   3.217  19.023  0.00  0.00    +0.000 N 
ATOM     21  C   UNL     1       1.888   3.653  19.507  0.00  0.00    +0.000 A 
ATOM     22  C   UNL     1       2.145   4.888  20.048  0.00  0.00    +0.000 A 
ATOM     23  N   UNL     1       3.459   5.229  19.872  0.00  0.00    +0.000 NA
ATOM     24  C   UNL     1       4.014   4.220  19.223  0.00  0.00    +0.000 A 
ENDBRANCH  18  24
ENDBRANCH   1  18
TORSDOF 4
ENDMDL
MODEL 7
REMARK VINA RESULT:      -7.5      0.835      1.753
REMARK  Name = 
REMARK  5 active torsions:
REMARK  status: ('A' for Active; 'I' for Inactive)
REMARK    1  A    between atoms: C_1  and  N_2
REMARK    2  A    between atoms: C_6  and  C_7
REMARK    3  A    between atoms: C_7  and  N_8
REMARK    4  A    between atoms: C_13  and  C_14
REMARK    5  A    between atoms: C_16  and  C_17
REMARK                            x       y       z     vdW  Elec       q    Type
REMARK                         _______ _______ _______ _____ _____    ______ ____
ROOT
ATOM      1  N   UNL     1       3.055   5.707  18.511  0.00  0.00    +0.000 NA
ATOM      2  C   UNL     1       1.869   5.151  17.853  0.00  0.00    +0.000 C 
ATOM      3  C   UNL     1       1.467   3.725  18.240  0.00  0.00    +0.000 C 
ATOM      4  C   UNL     1       2.639   2.803  18.528  0.00  0.00    +0.000 C 
ATOM      5  C   UNL     1       3.655   3.502  19.417  0.00  0.00    +0.000 C 
ATOM      6  C   UNL     1       4.183   4.793  18.773  0.00  0.00    +0.000 C 
ENDROOT
BRANCH   6   7
ATOM      7  C   UNL     1       5.188   4.519  17.678  0.00  0.00    +0.000 A 
ATOM      8  N   UNL     1       5.052   4.320  16.384  0.00  0.00    +0.000 NA
ATOM      9  C   UNL     1       6.350   4.406  15.917  0.00  0.00    +0.000 A 
ATOM     10  N   UNL     1       7.263   4.593  16.886  0.00  0.00    +0.000 NA
ATOM     11  O   UNL     1       6.500   4.684  18.043  0.00  0.00    +0.000 OA
BRANCH   9  12
ATOM     12  C   UNL     1       6.681   4.372  14.492  0.00  0.00    +0.000 A 
ATOM     13  C   UNL     1       6.016   3.470  13.648  0.00  0.00    +0.000 A 
ATOM     14  C   UNL     1       6.271   3.468  12.270  0.00  0.00    +0.000 A 
ATOM     15  C   UNL     1       7.190   4.362  11.718  0.00  0.00    +0.000 A 
ATOM     16  C   UNL     1       7.872   5.250  12.546  0.00  0.00    +0.000 A 
ATOM     17  C   UNL     1       7.616   5.259  13.923  0.00  0.00    +0.000 A 
ENDBRANCH   9  12
ENDBRANCH   6   7
BRANCH   1  18
ATOM     18  C   UNL     1       3.454   6.997  17.916  0.00  0.00    +0.000 C 
BRANCH  18  24
ATOM     19  C   UNL     1       2.042   7.388  20.655  0.00  0.00    +0.000 C 
ATOM     20  N   UNL     1       1.829   8.186  19.474  0.00  0.00    +0.000 N 
ATOM     21  C   UNL     1       0.920   9.204  19.381  0.00  0.00    +0.000 A 
ATOM     22  C   UNL     1       1.096   9.729  18.125  0.00  0.00    +0.000 A 
ATOM     23  N   UNL     1       2.058   9.035  17.442  0.00  0.00    +0.000 NA
ATOM     24  C   UNL     1       2.473   8.084  18.260  0.00  0.00    +0.000 A 
ENDBRANCH  18  24
ENDBRANCH   1  18
TORSDOF 4
ENDMDL
MODEL 8
REMARK VINA RESULT:      -7.4      4.349      6.069
REMARK  Name = 
REMARK  5 active torsions:
REMARK  status: ('A' for Active; 'I' for Inactive)
REMARK    1  A    between atoms: C_1  and  N_2
REMARK    2  A    between atoms: C_6  and  C_7
REMARK    3  A    between atoms: C_7  and  N_8
REMARK    4  A    between atoms: C_13  and  C_14
REMARK    5  A    between atoms: C_16  and  C_17
REMARK                            x       y       z     vdW  Elec       q    Type
REMARK                         _______ _______ _______ _____ _____    ______ ____
ROOT
ATOM      1  N   UNL     1       5.694   4.666  18.118  0.00  0.00    +0.000 NA
ATOM      2  C   UNL     1       4.789   4.655  16.964  0.00  0.00    +0.000 C 
ATOM      3  C   UNL     1       5.406   4.325  15.603  0.00  0.00    +0.000 C 
ATOM      4  C   UNL     1       6.819   4.849  15.415  0.00  0.00    +0.000 C 
ATOM      5  C   UNL     1       7.660   4.556  16.646  0.00  0.00    +0.000 C 
ATOM      6  C   UNL     1       7.059   5.187  17.911  0.00  0.00    +0.000 C 
ENDROOT
BRANCH   6   7
ATOM      7  C   UNL     1       7.304   6.677  17.982  0.00  0.00    +0.000 A 
ATOM      8  N   UNL     1       8.142   7.401  18.693  0.00  0.00    +0.000 NA
ATOM      9  C   UNL     1       8.061   8.646  18.097  0.00  0.00    +0.000 A 
ATOM     10  N   UNL     1       7.167   8.710  17.094  0.00  0.00    +0.000 NA
ATOM     11  O   UNL     1       6.680   7.412  17.005  0.00  0.00    +0.000 OA
BRANCH   9  12
ATOM     12  C   UNL     1       8.925   9.762  18.479  0.00  0.00    +0.000 A 
ATOM     13  C   UNL     1       9.176  10.012  19.837  0.00  0.00    +0.000 A 
ATOM     14  C   UNL     1      10.054  11.034  20.221  0.00  0.00    +0.000 A 
ATOM     15  C   UNL     1      10.691  11.821  19.259  0.00  0.00    +0.000 A 
ATOM     16  C   UNL     1      10.437  11.597  17.908  0.00  0.00    +0.000 A 
ATOM     17  C   UNL     1       9.565  10.572  17.520  0.00  0.00    +0.000 A 
ENDBRANCH   9  12
ENDBRANCH   6   7
BRANCH   1  18
ATOM     18  C   UNL     1       5.029   5.187  19.327  0.00  0.00    +0.000 C 
BRANCH  18  24
ATOM     19  C   UNL     1       4.464   2.225  20.074  0.00  0.00    +0.000 C 
ATOM     20  N   UNL     1       3.469   3.230  19.795  0.00  0.00    +0.000 N 
ATOM     21  C   UNL     1       2.121   2.999  19.765  0.00  0.00    +0.000 A 
ATOM     22  C   UNL     1       1.551   4.225  19.535  0.00  0.00    +0.000 A 
ATOM     23  N   UNL     1       2.515   5.186  19.386  0.00  0.00    +0.000 NA
ATOM     24  C   UNL     1       3.673   4.564  19.517  0.00  0.00    +0.000 A 
ENDBRANCH  18  24
ENDBRANCH   1  18
TORSDOF 4
ENDMDL
MODEL 9
REMARK VINA RESULT:      -7.4      1.971      6.615
REMARK  Name = 
REMARK  5 active torsions:
REMARK  status: ('A' for Active; 'I' for Inactive)
REMARK    1  A    between atoms: C_1  and  N_2
REMARK    2  A    between atoms: C_6  and  C_7
REMARK    3  A    between atoms: C_7  and  N_8
REMARK    4  A    between atoms: C_13  and  C_14
REMARK    5  A    between atoms: C_16  and  C_17
REMARK                            x       y       z     vdW  Elec       q    Type
REMARK                         _______ _______ _______ _____ _____    ______ ____
ROOT
ATOM      1  N   UNL     1       5.286   3.998  17.477  0.00  0.00    +0.000 NA
ATOM      2  C   UNL     1       5.884   4.102  16.142  0.00  0.00    +0.000 C 
ATOM      3  C   UNL     1       7.110   5.007  16.001  0.00  0.00    +0.000 C 
ATOM      4  C   UNL     1       7.078   6.244  16.882  0.00  0.00    +0.000 C 
ATOM      5  C   UNL     1       6.647   5.876  18.293  0.00  0.00    +0.000 C 
ATOM      6  C   UNL     1       5.260   5.215  18.311  0.00  0.00    +0.000 C 
ENDROOT
BRANCH   6   7
ATOM      7  C   UNL     1       4.143   6.217  18.129  0.00  0.00    +0.000 A 
ATOM      8  N   UNL     1       3.189   6.631  18.935  0.00  0.00    +0.000 NA
ATOM      9  C   UNL     1       2.683   7.736  18.276  0.00  0.00    +0.000 A 
ATOM     10  N   UNL     1       3.258   7.967  17.082  0.00  0.00    +0.000 NA
ATOM     11  O   UNL     1       4.231   6.979  16.991  0.00  0.00    +0.000 OA
BRANCH   9  12
ATOM     12  C   UNL     1       1.668   8.610  18.864  0.00  0.00    +0.000 A 
ATOM     13  C   UNL     1       0.963   9.504  18.044  0.00  0.00    +0.000 A 
ATOM     14  C   UNL     1      -0.059  10.301  18.575  0.00  0.00    +0.000 A 
ATOM     15  C   UNL     1      -0.389  10.221  19.930  0.00  0.00    +0.000 A 
ATOM     16  C   UNL     1       0.315   9.352  20.760  0.00  0.00    +0.000 A 
ATOM     17  C   UNL     1       1.333   8.549  20.231  0.00  0.00    +0.000 A 
ENDBRANCH   9  12
ENDBRANCH   6   7
BRANCH   1  18
ATOM     18  C   UNL     1       4.007   3.264  17.446  0.00  0.00    +0.000 C 
BRANCH  18  24
ATOM     19  C   UNL     1       1.150   3.644  18.603  0.00  0.00    +0.000 C 
ATOM     20  N   UNL     1       2.290   3.131  19.320  0.00  0.00    +0.000 N 
ATOM     21  C   UNL     1       2.282   2.790  20.645  0.00  0.00    +0.000 A 
ATOM     22  C   UNL     1       3.535   2.291  20.895  0.00  0.00    +0.000 A 
ATOM     23  N   UNL     1       4.314   2.355  19.771  0.00  0.00    +0.000 NA
ATOM     24  C   UNL     1       3.556   2.894  18.832  0.00  0.00    +0.000 A 
ENDBRANCH  18  24
ENDBRANCH   1  18
TORSDOF 4
ENDMDL
