MODEL 1
REMARK VINA RESULT:      -8.2      0.000      0.000
REMARK  Name = 
REMARK  8 active torsions:
REMARK  status: ('A' for Active; 'I' for Inactive)
REMARK    1  A    between atoms: C_1  and  C_2
REMARK    2  A    between atoms: C_2  and  C_3
REMARK    3  A    between atoms: C_2  and  O_4
REMARK    4  A    between atoms: O_4  and  C_5
REMARK    5  A    between atoms: C_9  and  C_10
REMARK    6  A    between atoms: N_15  and  C_16
REMARK    7  A    between atoms: C_19  and  N_20
REMARK    8  A    between atoms: N_23  and  C_24
REMARK                            x       y       z     vdW  Elec       q    Type
REMARK                         _______ _______ _______ _____ _____    ______ ____
ROOT
ATOM      1  C   UNL     1       3.005   5.547  18.815  0.00  0.00    +0.000 A 
ATOM      2  C   UNL     1       2.341   4.519  18.196  0.00  0.00    +0.000 A 
ATOM      3  C   UNL     1       3.135   3.656  17.476  0.00  0.00    +0.000 A 
ATOM      4  N   UNL     1       4.468   3.791  17.344  0.00  0.00    +0.000 NA
ATOM      5  C   UNL     1       5.027   4.847  17.946  0.00  0.00    +0.000 A 
ATOM      6  N   UNL     1       6.388   5.052  17.739  0.00  0.00    +0.000 N 
ATOM      7  N   UNL     1       4.334   5.701  18.710  0.00  0.00    +0.000 NA
ATOM      8  H   UNL     1       6.798   4.292  17.219  0.00  0.00    +0.000 HD
ENDROOT
BRANCH   1  13
ATOM      9  C   UNL     1       1.031  10.349  18.924  0.00  0.00    +0.000 A 
ATOM     10  C   UNL     1       1.924   9.890  17.843  0.00  0.00    +0.000 A 
ATOM     11  C   UNL     1       2.393   8.642  17.947  0.00  0.00    +0.000 A 
ATOM     12  C   UNL     1       2.061   7.881  19.094  0.00  0.00    +0.000 A 
ATOM     13  C   UNL     1       2.320   6.599  19.552  0.00  0.00    +0.000 A 
ATOM     14  C   UNL     1       1.700   6.571  20.822  0.00  0.00    +0.000 A 
ATOM     15  N   UNL     1       1.079   7.710  21.132  0.00  0.00    +0.000 NA
ATOM     16  N   UNL     1       1.268   8.491  20.053  0.00  0.00    +0.000 N 
ATOM     17  N   UNL     1       0.695   9.722  19.999  0.00  0.00    +0.000 NA
BRANCH   9  18
ATOM     18  O   UNL     1       0.583  11.580  18.573  0.00  0.00    +0.000 OA
BRANCH  18  20
ATOM     19  C   UNL     1       2.153  13.358  18.353  0.00  0.00    +0.000 C 
ATOM     20  C   UNL     1       1.075  12.756  19.252  0.00  0.00    +0.000 C 
ATOM     21  C   UNL     1      -0.067  13.754  19.421  0.00  0.00    +0.000 C 
ENDBRANCH  18  20
ENDBRANCH   9  18
ENDBRANCH   1  13
BRANCH   6  22
ATOM     22  C   UNL     1       7.138   6.229  17.854  0.00  0.00    +0.000 A 
ATOM     23  C   UNL     1       6.985   7.313  16.986  0.00  0.00    +0.000 A 
ATOM     24  C   UNL     1       7.623   8.533  17.215  0.00  0.00    +0.000 A 
ATOM     25  C   UNL     1       8.438   8.730  18.330  0.00  0.00    +0.000 A 
ATOM     26  C   UNL     1       8.638   7.624  19.166  0.00  0.00    +0.000 A 
ATOM     27  C   UNL     1       7.996   6.397  18.942  0.00  0.00    +0.000 A 
BRANCH  25  28
ATOM     28  N   UNL     1       8.915   9.992  18.625  0.00  0.00    +0.000 N 
ATOM     29  C   UNL     1       8.499  11.152  17.830  0.00  0.00    +0.000 C 
ATOM     30  C   UNL     1       9.644  12.184  17.797  0.00  0.00    +0.000 C 
ATOM     31  N   UNL     1      10.065  12.608  19.151  0.00  0.00    +0.000 NA
ATOM     32  C   UNL     1      11.167  13.560  19.059  0.00  0.00    +0.000 C 
ATOM     33  C   UNL     1      10.466  11.411  19.930  0.00  0.00    +0.000 C 
ATOM     34  C   UNL     1       9.360  10.327  19.989  0.00  0.00    +0.000 C 
ENDBRANCH  25  28
ENDBRANCH   6  22
TORSDOF 5
ENDMDL
MODEL 2
REMARK VINA RESULT:      -8.1      4.026      8.207
REMARK  Name = 
REMARK  8 active torsions:
REMARK  status: ('A' for Active; 'I' for Inactive)
REMARK    1  A    between atoms: C_1  and  C_2
REMARK    2  A    between atoms: C_2  and  C_3
REMARK    3  A    between atoms: C_2  and  O_4
REMARK    4  A    between atoms: O_4  and  C_5
REMARK    5  A    between atoms: C_9  and  C_10
REMARK    6  A    between atoms: N_15  and  C_16
REMARK    7  A    between atoms: C_19  and  N_20
REMARK    8  A    between atoms: N_23  and  C_24
REMARK                            x       y       z     vdW  Elec       q    Type
REMARK                         _______ _______ _______ _____ _____    ______ ____
ROOT
ATOM      1  C   UNL     1       4.250   4.989  18.729  0.00  0.00    +0.000 A 
ATOM      2  C   UNL     1       4.486   3.785  19.342  0.00  0.00    +0.000 A 
ATOM      3  C   UNL     1       3.632   3.474  20.375  0.00  0.00    +0.000 A 
ATOM      4  N   UNL     1       2.641   4.280  20.800  0.00  0.00    +0.000 NA
ATOM      5  C   UNL     1       2.510   5.454  20.173  0.00  0.00    +0.000 A 
ATOM      6  N   UNL     1       1.551   6.335  20.664  0.00  0.00    +0.000 N 
ATOM      7  N   UNL     1       3.263   5.807  19.123  0.00  0.00    +0.000 NA
ATOM      8  H   UNL     1       1.003   5.911  21.395  0.00  0.00    +0.000 HD
ENDROOT
BRANCH   1  13
ATOM      9  C   UNL     1       6.399   4.415  14.035  0.00  0.00    +0.000 A 
ATOM     10  C   UNL     1       5.756   3.295  14.749  0.00  0.00    +0.000 A 
ATOM     11  C   UNL     1       5.270   3.563  15.965  0.00  0.00    +0.000 A 
ATOM     12  C   UNL     1       5.455   4.860  16.503  0.00  0.00    +0.000 A 
ATOM     13  C   UNL     1       5.102   5.516  17.671  0.00  0.00    +0.000 A 
ATOM     14  C   UNL     1       5.692   6.792  17.525  0.00  0.00    +0.000 A 
ATOM     15  N   UNL     1       6.332   6.947  16.365  0.00  0.00    +0.000 NA
ATOM     16  N   UNL     1       6.146   5.777  15.729  0.00  0.00    +0.000 N 
ATOM     17  N   UNL     1       6.614   5.612  14.463  0.00  0.00    +0.000 NA
BRANCH   9  18
ATOM     18  O   UNL     1       6.716   3.967  12.795  0.00  0.00    +0.000 OA
BRANCH  18  20
ATOM     19  C   UNL     1       4.807   3.354  11.508  0.00  0.00    +0.000 C 
ATOM     20  C   UNL     1       6.037   2.820  12.240  0.00  0.00    +0.000 C 
ATOM     21  C   UNL     1       6.960   2.120  11.247  0.00  0.00    +0.000 C 
ENDBRANCH  18  20
ENDBRANCH   9  18
ENDBRANCH   1  13
BRANCH   6  22
ATOM     22  C   UNL     1       1.468   7.727  20.526  0.00  0.00    +0.000 A 
ATOM     23  C   UNL     1       1.653   8.380  19.304  0.00  0.00    +0.000 A 
ATOM     24  C   UNL     1       1.407   9.746  19.157  0.00  0.00    +0.000 A 
ATOM     25  C   UNL     1       0.954  10.522  20.224  0.00  0.00    +0.000 A 
ATOM     26  C   UNL     1       0.827   9.879  21.462  0.00  0.00    +0.000 A 
ATOM     27  C   UNL     1       1.070   8.505  21.613  0.00  0.00    +0.000 A 
BRANCH  25  28
ATOM     28  N   UNL     1       0.553  11.827  20.010  0.00  0.00    +0.000 N 
ATOM     29  C   UNL     1      -0.607  12.121  19.162  0.00  0.00    +0.000 C 
ATOM     30  C   UNL     1      -0.397  13.482  18.467  0.00  0.00    +0.000 C 
ATOM     31  N   UNL     1      -0.165  14.582  19.430  0.00  0.00    +0.000 NA
ATOM     32  C   UNL     1       0.055  15.836  18.716  0.00  0.00    +0.000 C 
ATOM     33  C   UNL     1       1.005  14.245  20.276  0.00  0.00    +0.000 C 
ATOM     34  C   UNL     1       0.861  12.879  20.994  0.00  0.00    +0.000 C 
ENDBRANCH  25  28
ENDBRANCH   6  22
TORSDOF 5
ENDMDL
MODEL 3
REMARK VINA RESULT:      -8.1      0.855      1.032
REMARK  Name = 
REMARK  8 active torsions:
REMARK  status: ('A' for Active; 'I' for Inactive)
REMARK    1  A    between atoms: C_1  and  C_2
REMARK    2  A    between atoms: C_2  and  C_3
REMARK    3  A    between atoms: C_2  and  O_4
REMARK    4  A    between atoms: O_4  and  C_5
REMARK    5  A    between atoms: C_9  and  C_10
REMARK    6  A    between atoms: N_15  and  C_16
REMARK    7  A    between atoms: C_19  and  N_20
REMARK    8  A    between atoms: N_23  and  C_24
REMARK                            x       y       z     vdW  Elec       q    Type
REMARK                         _______ _______ _______ _____ _____    ______ ____
ROOT
ATOM      1  C   UNL     1       3.059   5.474  18.785  0.00  0.00    +0.000 A 
ATOM      2  C   UNL     1       2.403   4.450  18.149  0.00  0.00    +0.000 A 
ATOM      3  C   UNL     1       3.203   3.612  17.407  0.00  0.00    +0.000 A 
ATOM      4  N   UNL     1       4.534   3.767  17.270  0.00  0.00    +0.000 NA
ATOM      5  C   UNL     1       5.083   4.817  17.890  0.00  0.00    +0.000 A 
ATOM      6  N   UNL     1       6.440   5.044  17.679  0.00  0.00    +0.000 N 
ATOM      7  N   UNL     1       4.384   5.647  18.676  0.00  0.00    +0.000 NA
ATOM      8  H   UNL     1       6.857   4.300  17.141  0.00  0.00    +0.000 HD
ENDROOT
BRANCH   1  13
ATOM      9  C   UNL     1       0.957  10.219  18.980  0.00  0.00    +0.000 A 
ATOM     10  C   UNL     1       1.833   9.791  17.873  0.00  0.00    +0.000 A 
ATOM     11  C   UNL     1       2.339   8.556  17.955  0.00  0.00    +0.000 A 
ATOM     12  C   UNL     1       2.058   7.779  19.105  0.00  0.00    +0.000 A 
ATOM     13  C   UNL     1       2.364   6.502  19.547  0.00  0.00    +0.000 A 
ATOM     14  C   UNL     1       1.779   6.448  20.833  0.00  0.00    +0.000 A 
ATOM     15  N   UNL     1       1.135   7.568  21.167  0.00  0.00    +0.000 NA
ATOM     16  N   UNL     1       1.275   8.360  20.089  0.00  0.00    +0.000 N 
ATOM     17  N   UNL     1       0.667   9.576  20.059  0.00  0.00    +0.000 NA
BRANCH   9  18
ATOM     18  O   UNL     1       0.466  11.439  18.650  0.00  0.00    +0.000 OA
BRANCH  18  20
ATOM     19  C   UNL     1      -1.474  10.316  17.842  0.00  0.00    +0.000 C 
ATOM     20  C   UNL     1      -0.951  11.621  18.440  0.00  0.00    +0.000 C 
ATOM     21  C   UNL     1      -1.630  11.877  19.782  0.00  0.00    +0.000 C 
ENDBRANCH  18  20
ENDBRANCH   9  18
ENDBRANCH   1  13
BRANCH   6  22
ATOM     22  C   UNL     1       7.176   6.229  17.813  0.00  0.00    +0.000 A 
ATOM     23  C   UNL     1       7.024   7.317  16.951  0.00  0.00    +0.000 A 
ATOM     24  C   UNL     1       7.645   8.542  17.198  0.00  0.00    +0.000 A 
ATOM     25  C   UNL     1       8.442   8.739  18.326  0.00  0.00    +0.000 A 
ATOM     26  C   UNL     1       8.642   7.629  19.157  0.00  0.00    +0.000 A 
ATOM     27  C   UNL     1       8.016   6.397  18.914  0.00  0.00    +0.000 A 
BRANCH  25  28
ATOM     28  N   UNL     1       8.901  10.004  18.637  0.00  0.00    +0.000 N 
ATOM     29  C   UNL     1       8.472  11.168  17.854  0.00  0.00    +0.000 C 
ATOM     30  C   UNL     1       9.603  12.216  17.837  0.00  0.00    +0.000 C 
ATOM     31  N   UNL     1      10.015  12.629  19.197  0.00  0.00    +0.000 NA
ATOM     32  C   UNL     1      11.104  13.597  19.120  0.00  0.00    +0.000 C 
ATOM     33  C   UNL     1      10.429  11.429  19.963  0.00  0.00    +0.000 C 
ATOM     34  C   UNL     1       9.337  10.330  20.007  0.00  0.00    +0.000 C 
ENDBRANCH  25  28
ENDBRANCH   6  22
TORSDOF 5
ENDMDL
MODEL 4
REMARK VINA RESULT:      -8.1      0.868      1.312
REMARK  Name = 
REMARK  8 active torsions:
REMARK  status: ('A' for Active; 'I' for Inactive)
REMARK    1  A    between atoms: C_1  and  C_2
REMARK    2  A    between atoms: C_2  and  C_3
REMARK    3  A    between atoms: C_2  and  O_4
REMARK    4  A    between atoms: O_4  and  C_5
REMARK    5  A    between atoms: C_9  and  C_10
REMARK    6  A    between atoms: N_15  and  C_16
REMARK    7  A    between atoms: C_19  and  N_20
REMARK    8  A    between atoms: N_23  and  C_24
REMARK                            x       y       z     vdW  Elec       q    Type
REMARK                         _______ _______ _______ _____ _____    ______ ____
ROOT
ATOM      1  C   UNL     1       3.113   5.497  18.682  0.00  0.00    +0.000 A 
ATOM      2  C   UNL     1       2.479   4.489  18.000  0.00  0.00    +0.000 A 
ATOM      3  C   UNL     1       3.300   3.681  17.249  0.00  0.00    +0.000 A 
ATOM      4  N   UNL     1       4.632   3.850  17.144  0.00  0.00    +0.000 NA
ATOM      5  C   UNL     1       5.160   4.884  17.808  0.00  0.00    +0.000 A 
ATOM      6  N   UNL     1       6.519   5.127  17.632  0.00  0.00    +0.000 N 
ATOM      7  N   UNL     1       4.439   5.683  18.605  0.00  0.00    +0.000 NA
ATOM      8  H   UNL     1       6.952   4.404  17.079  0.00  0.00    +0.000 HD
ENDROOT
BRANCH   1  13
ATOM      9  C   UNL     1       0.975  10.220  18.986  0.00  0.00    +0.000 A 
ATOM     10  C   UNL     1       1.878   9.834  17.885  0.00  0.00    +0.000 A 
ATOM     11  C   UNL     1       2.390   8.601  17.938  0.00  0.00    +0.000 A 
ATOM     12  C   UNL     1       2.090   7.784  19.055  0.00  0.00    +0.000 A 
ATOM     13  C   UNL     1       2.395   6.495  19.462  0.00  0.00    +0.000 A 
ATOM     14  C   UNL     1       1.782   6.395  20.732  0.00  0.00    +0.000 A 
ATOM     15  N   UNL     1       1.124   7.500  21.088  0.00  0.00    +0.000 NA
ATOM     16  N   UNL     1       1.281   8.328  20.040  0.00  0.00    +0.000 N 
ATOM     17  N   UNL     1       0.666   9.540  20.037  0.00  0.00    +0.000 NA
BRANCH   9  18
ATOM     18  O   UNL     1       0.483  11.447  18.685  0.00  0.00    +0.000 OA
BRANCH  18  20
ATOM     19  C   UNL     1      -0.844  13.272  19.450  0.00  0.00    +0.000 C 
ATOM     20  C   UNL     1      -0.870  11.799  19.048  0.00  0.00    +0.000 C 
ATOM     21  C   UNL     1      -1.779  11.615  17.836  0.00  0.00    +0.000 C 
ENDBRANCH  18  20
ENDBRANCH   9  18
ENDBRANCH   1  13
BRANCH   6  22
ATOM     22  C   UNL     1       7.243   6.312  17.819  0.00  0.00    +0.000 A 
ATOM     23  C   UNL     1       7.077   7.437  17.007  0.00  0.00    +0.000 A 
ATOM     24  C   UNL     1       7.686   8.656  17.309  0.00  0.00    +0.000 A 
ATOM     25  C   UNL     1       8.484   8.810  18.444  0.00  0.00    +0.000 A 
ATOM     26  C   UNL     1       8.697   7.665  19.223  0.00  0.00    +0.000 A 
ATOM     27  C   UNL     1       8.084   6.439  18.925  0.00  0.00    +0.000 A 
BRANCH  25  28
ATOM     28  N   UNL     1       8.930  10.064  18.812  0.00  0.00    +0.000 N 
ATOM     29  C   UNL     1       9.467  10.301  20.156  0.00  0.00    +0.000 C 
ATOM     30  C   UNL     1       9.160  11.753  20.578  0.00  0.00    +0.000 C 
ATOM     31  N   UNL     1       9.697  12.747  19.622  0.00  0.00    +0.000 NA
ATOM     32  C   UNL     1       9.354  14.097  20.056  0.00  0.00    +0.000 C 
ATOM     33  C   UNL     1       9.145  12.470  18.274  0.00  0.00    +0.000 C 
ATOM     34  C   UNL     1       9.408  11.019  17.797  0.00  0.00    +0.000 C 
ENDBRANCH  25  28
ENDBRANCH   6  22
TORSDOF 5
ENDMDL
MODEL 5
REMARK VINA RESULT:      -7.9      3.975      8.061
REMARK  Name = 
REMARK  8 active torsions:
REMARK  status: ('A' for Active; 'I' for Inactive)
REMARK    1  A    between atoms: C_1  and  C_2
REMARK    2  A    between atoms: C_2  and  C_3
REMARK    3  A    between atoms: C_2  and  O_4
REMARK    4  A    between atoms: O_4  and  C_5
REMARK    5  A    between atoms: C_9  and  C_10
REMARK    6  A    between atoms: N_15  and  C_16
REMARK    7  A    between atoms: C_19  and  N_20
REMARK    8  A    between atoms: N_23  and  C_24
REMARK                            x       y       z     vdW  Elec       q    Type
REMARK                         _______ _______ _______ _____ _____    ______ ____
ROOT
ATOM      1  C   UNL     1       4.575   4.426  19.278  0.00  0.00    +0.000 A 
ATOM      2  C   UNL     1       4.643   3.273  20.018  0.00  0.00    +0.000 A 
ATOM      3  C   UNL     1       3.588   3.063  20.876  0.00  0.00    +0.000 A 
ATOM      4  N   UNL     1       2.558   3.917  21.025  0.00  0.00    +0.000 NA
ATOM      5  C   UNL     1       2.596   5.037  20.296  0.00  0.00    +0.000 A 
ATOM      6  N   UNL     1       1.587   5.972  20.512  0.00  0.00    +0.000 N 
ATOM      7  N   UNL     1       3.557   5.290  19.398  0.00  0.00    +0.000 NA
ATOM      8  H   UNL     1       0.889   5.618  21.146  0.00  0.00    +0.000 HD
ENDROOT
BRANCH   1  13
ATOM      9  C   UNL     1       6.610   4.495  14.500  0.00  0.00    +0.000 A 
ATOM     10  C   UNL     1       5.512   3.583  14.874  0.00  0.00    +0.000 A 
ATOM     11  C   UNL     1       5.099   3.638  16.145  0.00  0.00    +0.000 A 
ATOM     12  C   UNL     1       5.768   4.504  17.044  0.00  0.00    +0.000 A 
ATOM     13  C   UNL     1       5.640   4.850  18.379  0.00  0.00    +0.000 A 
ATOM     14  C   UNL     1       6.716   5.742  18.594  0.00  0.00    +0.000 A 
ATOM     15  N   UNL     1       7.441   5.968  17.497  0.00  0.00    +0.000 NA
ATOM     16  N   UNL     1       6.829   5.240  16.544  0.00  0.00    +0.000 N 
ATOM     17  N   UNL     1       7.273   5.297  15.261  0.00  0.00    +0.000 NA
BRANCH   9  18
ATOM     18  O   UNL     1       6.796   4.364  13.163  0.00  0.00    +0.000 OA
BRANCH  18  20
ATOM     19  C   UNL     1       4.961   3.652  11.821  0.00  0.00    +0.000 C 
ATOM     20  C   UNL     1       6.275   3.212  12.464  0.00  0.00    +0.000 C 
ATOM     21  C   UNL     1       7.261   2.794  11.377  0.00  0.00    +0.000 C 
ENDBRANCH  18  20
ENDBRANCH   9  18
ENDBRANCH   1  13
BRANCH   6  22
ATOM     22  C   UNL     1       1.580   7.349  20.252  0.00  0.00    +0.000 A 
ATOM     23  C   UNL     1       1.893   7.886  19.002  0.00  0.00    +0.000 A 
ATOM     24  C   UNL     1       1.723   9.243  18.722  0.00  0.00    +0.000 A 
ATOM     25  C   UNL     1       1.222  10.126  19.679  0.00  0.00    +0.000 A 
ATOM     26  C   UNL     1       0.965   9.597  20.951  0.00  0.00    +0.000 A 
ATOM     27  C   UNL     1       1.131   8.233  21.234  0.00  0.00    +0.000 A 
BRANCH  25  28
ATOM     28  N   UNL     1       0.900  11.422  19.324  0.00  0.00    +0.000 N 
ATOM     29  C   UNL     1       1.950  12.431  19.153  0.00  0.00    +0.000 C 
ATOM     30  C   UNL     1       1.391  13.817  19.536  0.00  0.00    +0.000 C 
ATOM     31  N   UNL     1       0.189  14.181  18.752  0.00  0.00    +0.000 NA
ATOM     32  C   UNL     1      -0.310  15.484  19.175  0.00  0.00    +0.000 C 
ATOM     33  C   UNL     1      -0.844  13.134  18.938  0.00  0.00    +0.000 C 
ATOM     34  C   UNL     1      -0.339  11.712  18.582  0.00  0.00    +0.000 C 
ENDBRANCH  25  28
ENDBRANCH   6  22
TORSDOF 5
ENDMDL
MODEL 6
REMARK VINA RESULT:      -7.8      4.032      8.272
REMARK  Name = 
REMARK  8 active torsions:
REMARK  status: ('A' for Active; 'I' for Inactive)
REMARK    1  A    between atoms: C_1  and  C_2
REMARK    2  A    between atoms: C_2  and  C_3
REMARK    3  A    between atoms: C_2  and  O_4
REMARK    4  A    between atoms: O_4  and  C_5
REMARK    5  A    between atoms: C_9  and  C_10
REMARK    6  A    between atoms: N_15  and  C_16
REMARK    7  A    between atoms: C_19  and  N_20
REMARK    8  A    between atoms: N_23  and  C_24
REMARK                            x       y       z     vdW  Elec       q    Type
REMARK                         _______ _______ _______ _____ _____    ______ ____
ROOT
ATOM      1  C   UNL     1       4.044   5.133  18.827  0.00  0.00    +0.000 A 
ATOM      2  C   UNL     1       4.241   3.911  19.418  0.00  0.00    +0.000 A 
ATOM      3  C   UNL     1       3.381   3.611  20.449  0.00  0.00    +0.000 A 
ATOM      4  N   UNL     1       2.418   4.442  20.892  0.00  0.00    +0.000 NA
ATOM      5  C   UNL     1       2.325   5.630  20.287  0.00  0.00    +0.000 A 
ATOM      6  N   UNL     1       1.398   6.535  20.797  0.00  0.00    +0.000 N 
ATOM      7  N   UNL     1       3.086   5.977  19.241  0.00  0.00    +0.000 NA
ATOM      8  H   UNL     1       0.838   6.116  21.523  0.00  0.00    +0.000 HD
ENDROOT
BRANCH   1  13
ATOM      9  C   UNL     1       6.331   4.475  14.211  0.00  0.00    +0.000 A 
ATOM     10  C   UNL     1       5.699   3.360  14.942  0.00  0.00    +0.000 A 
ATOM     11  C   UNL     1       5.174   3.652  16.137  0.00  0.00    +0.000 A 
ATOM     12  C   UNL     1       5.310   4.969  16.639  0.00  0.00    +0.000 A 
ATOM     13  C   UNL     1       4.909   5.651  17.777  0.00  0.00    +0.000 A 
ATOM     14  C   UNL     1       5.470   6.937  17.606  0.00  0.00    +0.000 A 
ATOM     15  N   UNL     1       6.136   7.074  16.458  0.00  0.00    +0.000 NA
ATOM     16  N   UNL     1       5.998   5.880  15.854  0.00  0.00    +0.000 N 
ATOM     17  N   UNL     1       6.504   5.690  14.607  0.00  0.00    +0.000 NA
BRANCH   9  18
ATOM     18  O   UNL     1       6.692   3.998  12.994  0.00  0.00    +0.000 OA
BRANCH  18  20
ATOM     19  C   UNL     1       4.757   3.542  11.681  0.00  0.00    +0.000 C 
ATOM     20  C   UNL     1       5.955   2.913  12.390  0.00  0.00    +0.000 C 
ATOM     21  C   UNL     1       6.843   2.210  11.367  0.00  0.00    +0.000 C 
ENDBRANCH  18  20
ENDBRANCH   9  18
ENDBRANCH   1  13
BRANCH   6  22
ATOM     22  C   UNL     1       1.362   7.931  20.684  0.00  0.00    +0.000 A 
ATOM     23  C   UNL     1       1.440   8.594  19.458  0.00  0.00    +0.000 A 
ATOM     24  C   UNL     1       1.239   9.972  19.354  0.00  0.00    +0.000 A 
ATOM     25  C   UNL     1       0.941  10.750  20.472  0.00  0.00    +0.000 A 
ATOM     26  C   UNL     1       0.922  10.093  21.710  0.00  0.00    +0.000 A 
ATOM     27  C   UNL     1       1.120   8.708  21.818  0.00  0.00    +0.000 A 
BRANCH  25  28
ATOM     28  N   UNL     1       0.577  12.073  20.318  0.00  0.00    +0.000 N 
ATOM     29  C   UNL     1       1.582  13.139  20.403  0.00  0.00    +0.000 C 
ATOM     30  C   UNL     1       0.924  14.414  20.969  0.00  0.00    +0.000 C 
ATOM     31  N   UNL     1      -0.237  14.859  20.167  0.00  0.00    +0.000 NA
ATOM     32  C   UNL     1      -0.834  16.049  20.764  0.00  0.00    +0.000 C 
ATOM     33  C   UNL     1      -1.224  13.755  20.092  0.00  0.00    +0.000 C 
ATOM     34  C   UNL     1      -0.621  12.437  19.541  0.00  0.00    +0.000 C 
ENDBRANCH  25  28
ENDBRANCH   6  22
TORSDOF 5
ENDMDL
MODEL 7
REMARK VINA RESULT:      -7.7      3.211      8.626
REMARK  Name = 
REMARK  8 active torsions:
REMARK  status: ('A' for Active; 'I' for Inactive)
REMARK    1  A    between atoms: C_1  and  C_2
REMARK    2  A    between atoms: C_2  and  C_3
REMARK    3  A    between atoms: C_2  and  O_4
REMARK    4  A    between atoms: O_4  and  C_5
REMARK    5  A    between atoms: C_9  and  C_10
REMARK    6  A    between atoms: N_15  and  C_16
REMARK    7  A    between atoms: C_19  and  N_20
REMARK    8  A    between atoms: N_23  and  C_24
REMARK                            x       y       z     vdW  Elec       q    Type
REMARK                         _______ _______ _______ _____ _____    ______ ____
ROOT
ATOM      1  C   UNL     1       1.800  14.051  20.015  0.00  0.00    +0.000 A 
ATOM      2  C   UNL     1       0.938  15.026  19.581  0.00  0.00    +0.000 A 
ATOM      3  C   UNL     1      -0.292  14.576  19.160  0.00  0.00    +0.000 A 
ATOM      4  N   UNL     1      -0.652  13.278  19.137  0.00  0.00    +0.000 NA
ATOM      5  C   UNL     1       0.267  12.393  19.538  0.00  0.00    +0.000 A 
ATOM      6  N   UNL     1      -0.059  11.044  19.429  0.00  0.00    +0.000 N 
ATOM      7  N   UNL     1       1.466  12.753  20.014  0.00  0.00    +0.000 NA
ATOM      8  H   UNL     1      -1.016  10.920  19.139  0.00  0.00    +0.000 HD
ENDROOT
BRANCH   1  13
ATOM      9  C   UNL     1       6.665  15.313  18.703  0.00  0.00    +0.000 A 
ATOM     10  C   UNL     1       5.668  14.880  17.706  0.00  0.00    +0.000 A 
ATOM     11  C   UNL     1       4.460  14.550  18.174  0.00  0.00    +0.000 A 
ATOM     12  C   UNL     1       4.239  14.577  19.573  0.00  0.00    +0.000 A 
ATOM     13  C   UNL     1       3.171  14.334  20.420  0.00  0.00    +0.000 A 
ATOM     14  C   UNL     1       3.725  14.506  21.709  0.00  0.00    +0.000 A 
ATOM     15  N   UNL     1       5.012  14.857  21.687  0.00  0.00    +0.000 NA
ATOM     16  N   UNL     1       5.307  14.939  20.377  0.00  0.00    +0.000 N 
ATOM     17  N   UNL     1       6.542  15.351  19.986  0.00  0.00    +0.000 NA
BRANCH   9  18
ATOM     18  O   UNL     1       7.767  15.705  18.018  0.00  0.00    +0.000 OA
BRANCH  18  20
ATOM     19  C   UNL     1       9.213  13.812  18.061  0.00  0.00    +0.000 C 
ATOM     20  C   UNL     1       9.080  15.284  18.448  0.00  0.00    +0.000 C 
ATOM     21  C   UNL     1      10.138  16.103  17.714  0.00  0.00    +0.000 C 
ENDBRANCH  18  20
ENDBRANCH   9  18
ENDBRANCH   1  13
BRANCH   6  22
ATOM     22  C   UNL     1       0.786   9.929  19.349  0.00  0.00    +0.000 A 
ATOM     23  C   UNL     1       1.032   9.085  20.435  0.00  0.00    +0.000 A 
ATOM     24  C   UNL     1       1.743   7.893  20.293  0.00  0.00    +0.000 A 
ATOM     25  C   UNL     1       2.236   7.484  19.053  0.00  0.00    +0.000 A 
ATOM     26  C   UNL     1       2.041   8.360  17.977  0.00  0.00    +0.000 A 
ATOM     27  C   UNL     1       1.322   9.557  18.116  0.00  0.00    +0.000 A 
BRANCH  25  28
ATOM     28  N   UNL     1       2.782   6.224  18.907  0.00  0.00    +0.000 N 
ATOM     29  C   UNL     1       3.775   5.956  17.861  0.00  0.00    +0.000 C 
ATOM     30  C   UNL     1       3.640   4.493  17.393  0.00  0.00    +0.000 C 
ATOM     31  N   UNL     1       3.785   3.526  18.505  0.00  0.00    +0.000 NA
ATOM     32  C   UNL     1       3.621   2.164  18.009  0.00  0.00    +0.000 C 
ATOM     33  C   UNL     1       2.776   3.833  19.547  0.00  0.00    +0.000 C 
ATOM     34  C   UNL     1       2.851   5.297  20.051  0.00  0.00    +0.000 C 
ENDBRANCH  25  28
ENDBRANCH   6  22
TORSDOF 5
ENDMDL
MODEL 8
REMARK VINA RESULT:      -7.6      3.555      7.082
REMARK  Name = 
REMARK  8 active torsions:
REMARK  status: ('A' for Active; 'I' for Inactive)
REMARK    1  A    between atoms: C_1  and  C_2
REMARK    2  A    between atoms: C_2  and  C_3
REMARK    3  A    between atoms: C_2  and  O_4
REMARK    4  A    between atoms: O_4  and  C_5
REMARK    5  A    between atoms: C_9  and  C_10
REMARK    6  A    between atoms: N_15  and  C_16
REMARK    7  A    between atoms: C_19  and  N_20
REMARK    8  A    between atoms: N_23  and  C_24
REMARK                            x       y       z     vdW  Elec       q    Type
REMARK                         _______ _______ _______ _____ _____    ______ ____
ROOT
ATOM      1  C   UNL     1       0.709  10.563  20.005  0.00  0.00    +0.000 A 
ATOM      2  C   UNL     1      -0.278  10.234  20.900  0.00  0.00    +0.000 A 
ATOM      3  C   UNL     1      -0.783  11.285  21.630  0.00  0.00    +0.000 A 
ATOM      4  N   UNL     1      -0.349  12.555  21.522  0.00  0.00    +0.000 NA
ATOM      5  C   UNL     1       0.645  12.778  20.656  0.00  0.00    +0.000 A 
ATOM      6  N   UNL     1       1.167  14.067  20.603  0.00  0.00    +0.000 N 
ATOM      7  N   UNL     1       1.153  11.821  19.868  0.00  0.00    +0.000 NA
ATOM      8  H   UNL     1       0.639  14.700  21.182  0.00  0.00    +0.000 HD
ENDROOT
BRANCH   1  13
ATOM      9  C   UNL     1       2.333   5.667  19.402  0.00  0.00    +0.000 A 
ATOM     10  C   UNL     1       1.819   6.173  20.689  0.00  0.00    +0.000 A 
ATOM     11  C   UNL     1       1.464   7.461  20.725  0.00  0.00    +0.000 A 
ATOM     12  C   UNL     1       1.657   8.255  19.568  0.00  0.00    +0.000 A 
ATOM     13  C   UNL     1       1.414   9.570  19.207  0.00  0.00    +0.000 A 
ATOM     14  C   UNL     1       1.933   9.654  17.895  0.00  0.00    +0.000 A 
ATOM     15  N   UNL     1       2.431   8.499  17.449  0.00  0.00    +0.000 NA
ATOM     16  N   UNL     1       2.220   7.639  18.462  0.00  0.00    +0.000 N 
ATOM     17  N   UNL     1       2.548   6.328  18.316  0.00  0.00    +0.000 NA
BRANCH   9  18
ATOM     18  O   UNL     1       2.524   4.332  19.547  0.00  0.00    +0.000 OA
BRANCH  18  20
ATOM     19  C   UNL     1       0.992   2.607  18.954  0.00  0.00    +0.000 C 
ATOM     20  C   UNL     1       1.476   3.502  20.094  0.00  0.00    +0.000 C 
ATOM     21  C   UNL     1       2.050   2.639  21.214  0.00  0.00    +0.000 C 
ENDBRANCH  18  20
ENDBRANCH   9  18
ENDBRANCH   1  13
BRANCH   6  22
ATOM     22  C   UNL     1       2.423  14.501  20.157  0.00  0.00    +0.000 A 
ATOM     23  C   UNL     1       3.509  14.686  21.015  0.00  0.00    +0.000 A 
ATOM     24  C   UNL     1       4.789  14.961  20.530  0.00  0.00    +0.000 A 
ATOM     25  C   UNL     1       5.044  15.055  19.162  0.00  0.00    +0.000 A 
ATOM     26  C   UNL     1       3.942  14.929  18.306  0.00  0.00    +0.000 A 
ATOM     27  C   UNL     1       2.655  14.649  18.789  0.00  0.00    +0.000 A 
BRANCH  25  28
ATOM     28  N   UNL     1       6.343  15.154  18.705  0.00  0.00    +0.000 N 
ATOM     29  C   UNL     1       6.850  14.226  17.688  0.00  0.00    +0.000 C 
ATOM     30  C   UNL     1       8.360  14.003  17.909  0.00  0.00    +0.000 C 
ATOM     31  N   UNL     1       9.130  15.267  17.888  0.00  0.00    +0.000 NA
ATOM     32  C   UNL     1      10.543  14.999  18.130  0.00  0.00    +0.000 C 
ATOM     33  C   UNL     1       8.583  16.184  18.917  0.00  0.00    +0.000 C 
ATOM     34  C   UNL     1       7.063  16.439  18.758  0.00  0.00    +0.000 C 
ENDBRANCH  25  28
ENDBRANCH   6  22
TORSDOF 5
ENDMDL
MODEL 9
REMARK VINA RESULT:      -7.6      4.160      7.778
REMARK  Name = 
REMARK  8 active torsions:
REMARK  status: ('A' for Active; 'I' for Inactive)
REMARK    1  A    between atoms: C_1  and  C_2
REMARK    2  A    between atoms: C_2  and  C_3
REMARK    3  A    between atoms: C_2  and  O_4
REMARK    4  A    between atoms: O_4  and  C_5
REMARK    5  A    between atoms: C_9  and  C_10
REMARK    6  A    between atoms: N_15  and  C_16
REMARK    7  A    between atoms: C_19  and  N_20
REMARK    8  A    between atoms: N_23  and  C_24
REMARK                            x       y       z     vdW  Elec       q    Type
REMARK                         _______ _______ _______ _____ _____    ______ ____
ROOT
ATOM      1  C   UNL     1       4.422   4.030  19.599  0.00  0.00    +0.000 A 
ATOM      2  C   UNL     1       4.414   2.824  20.253  0.00  0.00    +0.000 A 
ATOM      3  C   UNL     1       3.290   2.570  21.005  0.00  0.00    +0.000 A 
ATOM      4  N   UNL     1       2.262   3.429  21.135  0.00  0.00    +0.000 NA
ATOM      5  C   UNL     1       2.373   4.600  20.498  0.00  0.00    +0.000 A 
ATOM      6  N   UNL     1       1.361   5.535  20.701  0.00  0.00    +0.000 N 
ATOM      7  N   UNL     1       3.407   4.901  19.702  0.00  0.00    +0.000 NA
ATOM      8  H   UNL     1       0.609   5.147  21.249  0.00  0.00    +0.000 HD
ENDROOT
BRANCH   1  13
ATOM      9  C   UNL     1       6.491   5.203  14.982  0.00  0.00    +0.000 A 
ATOM     10  C   UNL     1       5.228   4.452  15.110  0.00  0.00    +0.000 A 
ATOM     11  C   UNL     1       4.817   4.183  16.354  0.00  0.00    +0.000 A 
ATOM     12  C   UNL     1       5.634   4.574  17.442  0.00  0.00    +0.000 A 
ATOM     13  C   UNL     1       5.561   4.500  18.824  0.00  0.00    +0.000 A 
ATOM     14  C   UNL     1       6.791   5.052  19.250  0.00  0.00    +0.000 A 
ATOM     15  N   UNL     1       7.561   5.466  18.242  0.00  0.00    +0.000 NA
ATOM     16  N   UNL     1       6.828   5.209  17.143  0.00  0.00    +0.000 N 
ATOM     17  N   UNL     1       7.291   5.580  15.920  0.00  0.00    +0.000 NA
BRANCH   9  18
ATOM     18  O   UNL     1       6.664   5.466  13.663  0.00  0.00    +0.000 OA
BRANCH  18  20
ATOM     19  C   UNL     1       7.183   3.953  11.897  0.00  0.00    +0.000 C 
ATOM     20  C   UNL     1       7.778   4.891  12.946  0.00  0.00    +0.000 C 
ATOM     21  C   UNL     1       8.559   6.004  12.253  0.00  0.00    +0.000 C 
ENDBRANCH  18  20
ENDBRANCH   9  18
ENDBRANCH   1  13
BRANCH   6  22
ATOM     22  C   UNL     1       1.392   6.927  20.547  0.00  0.00    +0.000 A 
ATOM     23  C   UNL     1       1.886   7.551  19.399  0.00  0.00    +0.000 A 
ATOM     24  C   UNL     1       1.759   8.927  19.199  0.00  0.00    +0.000 A 
ATOM     25  C   UNL     1       1.122   9.742  20.135  0.00  0.00    +0.000 A 
ATOM     26  C   UNL     1       0.681   9.124  21.312  0.00  0.00    +0.000 A 
ATOM     27  C   UNL     1       0.804   7.741  21.515  0.00  0.00    +0.000 A 
BRANCH  25  28
ATOM     28  N   UNL     1       0.856  11.064  19.835  0.00  0.00    +0.000 N 
ATOM     29  C   UNL     1       1.530  11.725  18.712  0.00  0.00    +0.000 C 
ATOM     30  C   UNL     1       1.701  13.224  19.032  0.00  0.00    +0.000 C 
ATOM     31  N   UNL     1       0.414  13.891  19.330  0.00  0.00    +0.000 NA
ATOM     32  C   UNL     1       0.640  15.296  19.652  0.00  0.00    +0.000 C 
ATOM     33  C   UNL     1      -0.245  13.190  20.458  0.00  0.00    +0.000 C 
ATOM     34  C   UNL     1      -0.434  11.673  20.204  0.00  0.00    +0.000 C 
ENDBRANCH  25  28
ENDBRANCH   6  22
TORSDOF 5
ENDMDL
