MODEL 1
REMARK VINA RESULT:      -6.3      0.000      0.000
REMARK  Name = 
REMARK  7 active torsions:
REMARK  status: ('A' for Active; 'I' for Inactive)
REMARK    1  A    between atoms: C_1  and  C_2
REMARK    2  A    between atoms: C_2  and  O_3
REMARK    3  A    between atoms: C_2  and  C_4
REMARK    4  A    between atoms: C_5  and  O_6
REMARK    5  A    between atoms: N_11  and  C_12
REMARK    6  A    between atoms: C_12  and  C_13
REMARK    7  A    between atoms: C_13  and  N_14
REMARK                            x       y       z     vdW  Elec       q    Type
REMARK                         _______ _______ _______ _____ _____    ______ ____
ROOT
ATOM      1  C   UNL     1       4.490   5.520  17.177  0.00  0.00    +0.000 A 
ATOM      2  C   UNL     1       5.623   6.243  17.001  0.00  0.00    +0.000 A 
ATOM      3  C   UNL     1       6.759   5.675  16.209  0.00  0.00    +0.000 A 
ATOM      4  O   UNL     1       7.806   6.307  16.087  0.00  0.00    +0.000 OA
ATOM      5  C   UNL     1       6.580   4.365  15.575  0.00  0.00    +0.000 A 
ATOM      6  C   UNL     1       5.432   3.724  15.830  0.00  0.00    +0.000 A 
ATOM      7  N   UNL     1       4.400   4.185  16.649  0.00  0.00    +0.000 N 
ENDROOT
BRANCH   1   9
ATOM      8  C   UNL     1       3.275   6.105  19.486  0.00  0.00    +0.000 C 
ATOM      9  C   UNL     1       3.296   6.105  17.955  0.00  0.00    +0.000 C 
BRANCH   9  10
ATOM     10  O   UNL     1       3.129   7.481  17.571  0.00  0.00    +0.000 OA
ATOM     11  H   UNL     1       2.542   7.472  16.797  0.00  0.00    +0.000 HD
ENDBRANCH   9  10
ENDBRANCH   1   9
BRANCH   2  12
ATOM     12  O   UNL     1       5.828   7.491  17.553  0.00  0.00    +0.000 OA
ATOM     13  H   UNL     1       6.313   7.333  18.387  0.00  0.00    +0.000 HD
ENDBRANCH   2  12
BRANCH   7  14
ATOM     14  C   UNL     1       3.206   3.306  16.845  0.00  0.00    +0.000 C 
BRANCH  14  15
ATOM     15  C   UNL     1       3.419   2.113  17.829  0.00  0.00    +0.000 C 
BRANCH  15  16
ATOM     16  N   UNL     1       2.676   2.134  19.108  0.00  0.00    +0.000 NA
ATOM     17  C   UNL     1       3.519   2.576  20.218  0.00  0.00    +0.000 C 
ATOM     18  C   UNL     1       2.751   2.541  21.550  0.00  0.00    +0.000 C 
ATOM     19  C   UNL     1       1.499   3.404  21.488  0.00  0.00    +0.000 C 
ATOM     20  C   UNL     1       0.660   3.030  20.273  0.00  0.00    +0.000 C 
ATOM     21  C   UNL     1       1.496   3.015  18.992  0.00  0.00    +0.000 C 
ENDBRANCH  15  16
ENDBRANCH  14  15
ENDBRANCH   7  14
TORSDOF 6
ENDMDL
MODEL 2
REMARK VINA RESULT:      -6.2      1.106      1.458
REMARK  Name = 
REMARK  7 active torsions:
REMARK  status: ('A' for Active; 'I' for Inactive)
REMARK    1  A    between atoms: C_1  and  C_2
REMARK    2  A    between atoms: C_2  and  O_3
REMARK    3  A    between atoms: C_2  and  C_4
REMARK    4  A    between atoms: C_5  and  O_6
REMARK    5  A    between atoms: N_11  and  C_12
REMARK    6  A    between atoms: C_12  and  C_13
REMARK    7  A    between atoms: C_13  and  N_14
REMARK                            x       y       z     vdW  Elec       q    Type
REMARK                         _______ _______ _______ _____ _____    ______ ____
ROOT
ATOM      1  C   UNL     1       5.646   5.208  16.630  0.00  0.00    +0.000 A 
ATOM      2  C   UNL     1       6.749   5.634  15.967  0.00  0.00    +0.000 A 
ATOM      3  C   UNL     1       7.096   5.046  14.635  0.00  0.00    +0.000 A 
ATOM      4  O   UNL     1       8.121   5.394  14.052  0.00  0.00    +0.000 OA
ATOM      5  C   UNL     1       6.178   4.067  14.044  0.00  0.00    +0.000 A 
ATOM      6  C   UNL     1       5.129   3.698  14.791  0.00  0.00    +0.000 A 
ATOM      7  N   UNL     1       4.839   4.153  16.079  0.00  0.00    +0.000 N 
ENDROOT
BRANCH   1   9
ATOM      8  C   UNL     1       5.995   5.459  19.269  0.00  0.00    +0.000 C 
ATOM      9  C   UNL     1       5.252   5.832  17.982  0.00  0.00    +0.000 C 
BRANCH   9  10
ATOM     10  O   UNL     1       5.364   7.262  17.878  0.00  0.00    +0.000 OA
ATOM     11  H   UNL     1       5.943   7.429  17.116  0.00  0.00    +0.000 HD
ENDBRANCH   9  10
ENDBRANCH   1   9
BRANCH   2  12
ATOM     12  O   UNL     1       7.629   6.573  16.467  0.00  0.00    +0.000 OA
ATOM     13  H   UNL     1       7.696   7.263  15.778  0.00  0.00    +0.000 HD
ENDBRANCH   2  12
BRANCH   7  14
ATOM     14  C   UNL     1       3.639   3.594  16.773  0.00  0.00    +0.000 C 
BRANCH  14  15
ATOM     15  C   UNL     1       3.946   2.512  17.855  0.00  0.00    +0.000 C 
BRANCH  15  16
ATOM     16  N   UNL     1       2.997   2.376  18.983  0.00  0.00    +0.000 NA
ATOM     17  C   UNL     1       3.605   2.769  20.253  0.00  0.00    +0.000 C 
ATOM     18  C   UNL     1       2.627   2.572  21.423  0.00  0.00    +0.000 C 
ATOM     19  C   UNL     1       1.343   3.359  21.210  0.00  0.00    +0.000 C 
ATOM     20  C   UNL     1       0.752   3.044  19.842  0.00  0.00    +0.000 C 
ATOM     21  C   UNL     1       1.792   3.191  18.729  0.00  0.00    +0.000 C 
ENDBRANCH  15  16
ENDBRANCH  14  15
ENDBRANCH   7  14
TORSDOF 6
ENDMDL
MODEL 3
REMARK VINA RESULT:      -6.1      1.357      1.984
REMARK  Name = 
REMARK  7 active torsions:
REMARK  status: ('A' for Active; 'I' for Inactive)
REMARK    1  A    between atoms: C_1  and  C_2
REMARK    2  A    between atoms: C_2  and  O_3
REMARK    3  A    between atoms: C_2  and  C_4
REMARK    4  A    between atoms: C_5  and  O_6
REMARK    5  A    between atoms: N_11  and  C_12
REMARK    6  A    between atoms: C_12  and  C_13
REMARK    7  A    between atoms: C_13  and  N_14
REMARK                            x       y       z     vdW  Elec       q    Type
REMARK                         _______ _______ _______ _____ _____    ______ ____
ROOT
ATOM      1  C   UNL     1       6.013   5.030  16.804  0.00  0.00    +0.000 A 
ATOM      2  C   UNL     1       6.908   5.593  15.955  0.00  0.00    +0.000 A 
ATOM      3  C   UNL     1       7.093   5.028  14.581  0.00  0.00    +0.000 A 
ATOM      4  O   UNL     1       7.937   5.504  13.824  0.00  0.00    +0.000 OA
ATOM      5  C   UNL     1       6.236   3.914  14.163  0.00  0.00    +0.000 A 
ATOM      6  C   UNL     1       5.401   3.418  15.086  0.00  0.00    +0.000 A 
ATOM      7  N   UNL     1       5.282   3.858  16.406  0.00  0.00    +0.000 N 
ENDROOT
BRANCH   1   9
ATOM      8  C   UNL     1       6.863   5.540  19.288  0.00  0.00    +0.000 C 
ATOM      9  C   UNL     1       5.781   5.624  18.207  0.00  0.00    +0.000 C 
BRANCH   9  10
ATOM     10  O   UNL     1       5.487   7.025  18.069  0.00  0.00    +0.000 OA
ATOM     11  H   UNL     1       6.287   7.494  18.359  0.00  0.00    +0.000 HD
ENDBRANCH   9  10
ENDBRANCH   1   9
BRANCH   2  12
ATOM     12  O   UNL     1       7.717   6.659  16.291  0.00  0.00    +0.000 OA
ATOM     13  H   UNL     1       7.525   7.353  15.630  0.00  0.00    +0.000 HD
ENDBRANCH   2  12
BRANCH   7  14
ATOM     14  C   UNL     1       4.318   3.150  17.303  0.00  0.00    +0.000 C 
BRANCH  14  15
ATOM     15  C   UNL     1       2.843   3.650  17.213  0.00  0.00    +0.000 C 
BRANCH  15  16
ATOM     16  N   UNL     1       2.069   3.745  18.470  0.00  0.00    +0.000 NA
ATOM     17  C   UNL     1       2.103   2.493  19.224  0.00  0.00    +0.000 C 
ATOM     18  C   UNL     1       1.251   2.588  20.501  0.00  0.00    +0.000 C 
ATOM     19  C   UNL     1       1.715   3.730  21.392  0.00  0.00    +0.000 C 
ATOM     20  C   UNL     1       1.791   5.025  20.594  0.00  0.00    +0.000 C 
ATOM     21  C   UNL     1       2.592   4.847  19.302  0.00  0.00    +0.000 C 
ENDBRANCH  15  16
ENDBRANCH  14  15
ENDBRANCH   7  14
TORSDOF 6
ENDMDL
MODEL 4
REMARK VINA RESULT:      -6.1      2.146      2.685
REMARK  Name = 
REMARK  7 active torsions:
REMARK  status: ('A' for Active; 'I' for Inactive)
REMARK    1  A    between atoms: C_1  and  C_2
REMARK    2  A    between atoms: C_2  and  O_3
REMARK    3  A    between atoms: C_2  and  C_4
REMARK    4  A    between atoms: C_5  and  O_6
REMARK    5  A    between atoms: N_11  and  C_12
REMARK    6  A    between atoms: C_12  and  C_13
REMARK    7  A    between atoms: C_13  and  N_14
REMARK                            x       y       z     vdW  Elec       q    Type
REMARK                         _______ _______ _______ _____ _____    ______ ____
ROOT
ATOM      1  C   UNL     1       5.797   5.391  17.868  0.00  0.00    +0.000 A 
ATOM      2  C   UNL     1       6.791   4.893  17.093  0.00  0.00    +0.000 A 
ATOM      3  C   UNL     1       6.845   5.231  15.635  0.00  0.00    +0.000 A 
ATOM      4  O   UNL     1       7.716   4.743  14.918  0.00  0.00    +0.000 OA
ATOM      5  C   UNL     1       5.850   6.164  15.098  0.00  0.00    +0.000 A 
ATOM      6  C   UNL     1       4.897   6.580  15.943  0.00  0.00    +0.000 A 
ATOM      7  N   UNL     1       4.763   6.199  17.280  0.00  0.00    +0.000 N 
ENDROOT
BRANCH   1   9
ATOM      8  C   UNL     1       5.337   3.704  19.891  0.00  0.00    +0.000 C 
ATOM      9  C   UNL     1       5.750   5.087  19.378  0.00  0.00    +0.000 C 
BRANCH   9  10
ATOM     10  O   UNL     1       7.053   5.328  19.935  0.00  0.00    +0.000 OA
ATOM     11  H   UNL     1       7.351   4.475  20.292  0.00  0.00    +0.000 HD
ENDBRANCH   9  10
ENDBRANCH   1   9
BRANCH   2  12
ATOM     12  O   UNL     1       7.767   4.034  17.557  0.00  0.00    +0.000 OA
ATOM     13  H   UNL     1       8.336   4.575  18.140  0.00  0.00    +0.000 HD
ENDBRANCH   2  12
BRANCH   7  14
ATOM     14  C   UNL     1       3.606   6.742  18.057  0.00  0.00    +0.000 C 
BRANCH  14  15
ATOM     15  C   UNL     1       2.339   5.831  18.077  0.00  0.00    +0.000 C 
BRANCH  15  16
ATOM     16  N   UNL     1       2.322   4.694  19.024  0.00  0.00    +0.000 NA
ATOM     17  C   UNL     1       1.967   5.121  20.376  0.00  0.00    +0.000 C 
ATOM     18  C   UNL     1       2.006   3.941  21.361  0.00  0.00    +0.000 C 
ATOM     19  C   UNL     1       1.073   2.822  20.920  0.00  0.00    +0.000 C 
ATOM     20  C   UNL     1       1.357   2.438  19.474  0.00  0.00    +0.000 C 
ATOM     21  C   UNL     1       1.374   3.664  18.557  0.00  0.00    +0.000 C 
ENDBRANCH  15  16
ENDBRANCH  14  15
ENDBRANCH   7  14
TORSDOF 6
ENDMDL
MODEL 5
REMARK VINA RESULT:      -6.1      1.698      2.957
REMARK  Name = 
REMARK  7 active torsions:
REMARK  status: ('A' for Active; 'I' for Inactive)
REMARK    1  A    between atoms: C_1  and  C_2
REMARK    2  A    between atoms: C_2  and  O_3
REMARK    3  A    between atoms: C_2  and  C_4
REMARK    4  A    between atoms: C_5  and  O_6
REMARK    5  A    between atoms: N_11  and  C_12
REMARK    6  A    between atoms: C_12  and  C_13
REMARK    7  A    between atoms: C_13  and  N_14
REMARK                            x       y       z     vdW  Elec       q    Type
REMARK                         _______ _______ _______ _____ _____    ______ ____
ROOT
ATOM      1  C   UNL     1       6.237   5.746  17.084  0.00  0.00    +0.000 A 
ATOM      2  C   UNL     1       6.666   5.322  15.870  0.00  0.00    +0.000 A 
ATOM      3  C   UNL     1       5.948   4.212  15.168  0.00  0.00    +0.000 A 
ATOM      4  O   UNL     1       6.361   3.791  14.090  0.00  0.00    +0.000 OA
ATOM      5  C   UNL     1       4.740   3.659  15.790  0.00  0.00    +0.000 A 
ATOM      6  C   UNL     1       4.416   4.132  17.000  0.00  0.00    +0.000 A 
ATOM      7  N   UNL     1       5.126   5.093  17.723  0.00  0.00    +0.000 N 
ENDROOT
BRANCH   1   9
ATOM      8  C   UNL     1       8.150   6.672  18.708  0.00  0.00    +0.000 C 
ATOM      9  C   UNL     1       6.939   6.915  17.802  0.00  0.00    +0.000 C 
BRANCH   9  10
ATOM     10  O   UNL     1       7.386   7.858  16.813  0.00  0.00    +0.000 OA
ATOM     11  H   UNL     1       8.356   7.801  16.810  0.00  0.00    +0.000 HD
ENDBRANCH   9  10
ENDBRANCH   1   9
BRANCH   2  12
ATOM     12  O   UNL     1       7.779   5.830  15.231  0.00  0.00    +0.000 OA
ATOM     13  H   UNL     1       7.536   5.886  14.286  0.00  0.00    +0.000 HD
ENDBRANCH   2  12
BRANCH   7  14
ATOM     14  C   UNL     1       4.627   5.468  19.082  0.00  0.00    +0.000 C 
BRANCH  14  15
ATOM     15  C   UNL     1       3.125   5.887  19.142  0.00  0.00    +0.000 C 
BRANCH  15  16
ATOM     16  N   UNL     1       2.181   4.973  19.822  0.00  0.00    +0.000 NA
ATOM     17  C   UNL     1       1.634   3.977  18.903  0.00  0.00    +0.000 C 
ATOM     18  C   UNL     1       0.614   3.068  19.610  0.00  0.00    +0.000 C 
ATOM     19  C   UNL     1       1.235   2.367  20.809  0.00  0.00    +0.000 C 
ATOM     20  C   UNL     1       1.906   3.382  21.724  0.00  0.00    +0.000 C 
ATOM     21  C   UNL     1       2.855   4.300  20.950  0.00  0.00    +0.000 C 
ENDBRANCH  15  16
ENDBRANCH  14  15
ENDBRANCH   7  14
TORSDOF 6
ENDMDL
MODEL 6
REMARK VINA RESULT:      -6.0      2.090      2.812
REMARK  Name = 
REMARK  7 active torsions:
REMARK  status: ('A' for Active; 'I' for Inactive)
REMARK    1  A    between atoms: C_1  and  C_2
REMARK    2  A    between atoms: C_2  and  O_3
REMARK    3  A    between atoms: C_2  and  C_4
REMARK    4  A    between atoms: C_5  and  O_6
REMARK    5  A    between atoms: N_11  and  C_12
REMARK    6  A    between atoms: C_12  and  C_13
REMARK    7  A    between atoms: C_13  and  N_14
REMARK                            x       y       z     vdW  Elec       q    Type
REMARK                         _______ _______ _______ _____ _____    ______ ____
ROOT
ATOM      1  C   UNL     1       5.677   5.244  17.966  0.00  0.00    +0.000 A 
ATOM      2  C   UNL     1       6.710   4.852  17.182  0.00  0.00    +0.000 A 
ATOM      3  C   UNL     1       6.785   5.309  15.758  0.00  0.00    +0.000 A 
ATOM      4  O   UNL     1       7.693   4.918  15.028  0.00  0.00    +0.000 OA
ATOM      5  C   UNL     1       5.762   6.239  15.270  0.00  0.00    +0.000 A 
ATOM      6  C   UNL     1       4.772   6.545  16.119  0.00  0.00    +0.000 A 
ATOM      7  N   UNL     1       4.622   6.052  17.416  0.00  0.00    +0.000 N 
ENDROOT
BRANCH   1   9
ATOM      8  C   UNL     1       5.164   3.404  19.838  0.00  0.00    +0.000 C 
ATOM      9  C   UNL     1       5.607   4.816  19.445  0.00  0.00    +0.000 C 
BRANCH   9  10
ATOM     10  O   UNL     1       6.908   4.986  20.033  0.00  0.00    +0.000 OA
ATOM     11  H   UNL     1       7.529   4.528  19.442  0.00  0.00    +0.000 HD
ENDBRANCH   9  10
ENDBRANCH   1   9
BRANCH   2  12
ATOM     12  O   UNL     1       7.712   4.001  17.602  0.00  0.00    +0.000 OA
ATOM     13  H   UNL     1       8.550   4.442  17.360  0.00  0.00    +0.000 HD
ENDBRANCH   2  12
BRANCH   7  14
ATOM     14  C   UNL     1       3.424   6.481  18.202  0.00  0.00    +0.000 C 
BRANCH  14  15
ATOM     15  C   UNL     1       2.070   5.865  17.730  0.00  0.00    +0.000 C 
BRANCH  15  16
ATOM     16  N   UNL     1       1.507   4.750  18.524  0.00  0.00    +0.000 NA
ATOM     17  C   UNL     1       1.962   3.451  18.031  0.00  0.00    +0.000 C 
ATOM     18  C   UNL     1       1.326   2.299  18.829  0.00  0.00    +0.000 C 
ATOM     19  C   UNL     1       1.637   2.417  20.314  0.00  0.00    +0.000 C 
ATOM     20  C   UNL     1       1.270   3.806  20.821  0.00  0.00    +0.000 C 
ATOM     21  C   UNL     1       1.875   4.906  19.945  0.00  0.00    +0.000 C 
ENDBRANCH  15  16
ENDBRANCH  14  15
ENDBRANCH   7  14
TORSDOF 6
ENDMDL
MODEL 7
REMARK VINA RESULT:      -5.9      3.768      5.866
REMARK  Name = 
REMARK  7 active torsions:
REMARK  status: ('A' for Active; 'I' for Inactive)
REMARK    1  A    between atoms: C_1  and  C_2
REMARK    2  A    between atoms: C_2  and  O_3
REMARK    3  A    between atoms: C_2  and  C_4
REMARK    4  A    between atoms: C_5  and  O_6
REMARK    5  A    between atoms: N_11  and  C_12
REMARK    6  A    between atoms: C_12  and  C_13
REMARK    7  A    between atoms: C_13  and  N_14
REMARK                            x       y       z     vdW  Elec       q    Type
REMARK                         _______ _______ _______ _____ _____    ______ ____
ROOT
ATOM      1  C   UNL     1       3.710   4.024  18.976  0.00  0.00    +0.000 A 
ATOM      2  C   UNL     1       3.856   3.076  19.934  0.00  0.00    +0.000 A 
ATOM      3  C   UNL     1       2.866   2.983  21.052  0.00  0.00    +0.000 A 
ATOM      4  O   UNL     1       3.020   2.157  21.950  0.00  0.00    +0.000 OA
ATOM      5  C   UNL     1       1.709   3.884  21.036  0.00  0.00    +0.000 A 
ATOM      6  C   UNL     1       1.671   4.798  20.058  0.00  0.00    +0.000 A 
ATOM      7  N   UNL     1       2.634   4.975  19.063  0.00  0.00    +0.000 N 
ENDROOT
BRANCH   1   9
ATOM      8  C   UNL     1       6.122   4.632  17.995  0.00  0.00    +0.000 C 
ATOM      9  C   UNL     1       4.697   4.108  17.796  0.00  0.00    +0.000 C 
BRANCH   9  10
ATOM     10  O   UNL     1       4.849   2.794  17.231  0.00  0.00    +0.000 OA
ATOM     11  H   UNL     1       5.092   2.213  17.971  0.00  0.00    +0.000 HD
ENDBRANCH   9  10
ENDBRANCH   1   9
BRANCH   2  12
ATOM     12  O   UNL     1       4.911   2.188  19.977  0.00  0.00    +0.000 OA
ATOM     13  H   UNL     1       4.512   1.301  19.871  0.00  0.00    +0.000 HD
ENDBRANCH   2  12
BRANCH   7  14
ATOM     14  C   UNL     1       2.437   6.080  18.075  0.00  0.00    +0.000 C 
BRANCH  14  15
ATOM     15  C   UNL     1       2.692   7.516  18.631  0.00  0.00    +0.000 C 
BRANCH  15  16
ATOM     16  N   UNL     1       1.515   8.321  19.027  0.00  0.00    +0.000 NA
ATOM     17  C   UNL     1       1.449   8.509  20.475  0.00  0.00    +0.000 C 
ATOM     18  C   UNL     1       0.193   9.301  20.877  0.00  0.00    +0.000 C 
ATOM     19  C   UNL     1       0.149  10.656  20.186  0.00  0.00    +0.000 C 
ATOM     20  C   UNL     1       0.326  10.487  18.683  0.00  0.00    +0.000 C 
ATOM     21  C   UNL     1       1.552   9.633  18.351  0.00  0.00    +0.000 C 
ENDBRANCH  15  16
ENDBRANCH  14  15
ENDBRANCH   7  14
TORSDOF 6
ENDMDL
MODEL 8
REMARK VINA RESULT:      -5.9      1.790      2.914
REMARK  Name = 
REMARK  7 active torsions:
REMARK  status: ('A' for Active; 'I' for Inactive)
REMARK    1  A    between atoms: C_1  and  C_2
REMARK    2  A    between atoms: C_2  and  O_3
REMARK    3  A    between atoms: C_2  and  C_4
REMARK    4  A    between atoms: C_5  and  O_6
REMARK    5  A    between atoms: N_11  and  C_12
REMARK    6  A    between atoms: C_12  and  C_13
REMARK    7  A    between atoms: C_13  and  N_14
REMARK                            x       y       z     vdW  Elec       q    Type
REMARK                         _______ _______ _______ _____ _____    ______ ____
ROOT
ATOM      1  C   UNL     1       6.140   4.660  16.587  0.00  0.00    +0.000 A 
ATOM      2  C   UNL     1       7.039   5.632  16.876  0.00  0.00    +0.000 A 
ATOM      3  C   UNL     1       7.229   6.080  18.292  0.00  0.00    +0.000 A 
ATOM      4  O   UNL     1       8.007   6.994  18.554  0.00  0.00    +0.000 OA
ATOM      5  C   UNL     1       6.478   5.391  19.347  0.00  0.00    +0.000 A 
ATOM      6  C   UNL     1       5.599   4.461  18.952  0.00  0.00    +0.000 A 
ATOM      7  N   UNL     1       5.328   4.097  17.631  0.00  0.00    +0.000 N 
ENDROOT
BRANCH   1   9
ATOM      8  C   UNL     1       5.068   4.910  14.149  0.00  0.00    +0.000 C 
ATOM      9  C   UNL     1       5.962   4.159  15.140  0.00  0.00    +0.000 C 
BRANCH   9  10
ATOM     10  O   UNL     1       7.256   4.096  14.515  0.00  0.00    +0.000 OA
ATOM     11  H   UNL     1       7.903   4.149  15.237  0.00  0.00    +0.000 HD
ENDBRANCH   9  10
ENDBRANCH   1   9
BRANCH   2  12
ATOM     12  O   UNL     1       7.790   6.290  15.923  0.00  0.00    +0.000 OA
ATOM     13  H   UNL     1       7.265   6.246  15.100  0.00  0.00    +0.000 HD
ENDBRANCH   2  12
BRANCH   7  14
ATOM     14  C   UNL     1       4.279   3.060  17.384  0.00  0.00    +0.000 C 
BRANCH  14  15
ATOM     15  C   UNL     1       2.816   3.600  17.336  0.00  0.00    +0.000 C 
BRANCH  15  16
ATOM     16  N   UNL     1       2.019   3.544  18.582  0.00  0.00    +0.000 NA
ATOM     17  C   UNL     1       2.433   2.436  19.441  0.00  0.00    +0.000 C 
ATOM     18  C   UNL     1       1.562   2.357  20.706  0.00  0.00    +0.000 C 
ATOM     19  C   UNL     1       1.613   3.657  21.495  0.00  0.00    +0.000 C 
ATOM     20  C   UNL     1       1.290   4.837  20.588  0.00  0.00    +0.000 C 
ATOM     21  C   UNL     1       2.140   4.820  19.315  0.00  0.00    +0.000 C 
ENDBRANCH  15  16
ENDBRANCH  14  15
ENDBRANCH   7  14
TORSDOF 6
ENDMDL
MODEL 9
REMARK VINA RESULT:      -5.9      1.142      1.850
REMARK  Name = 
REMARK  7 active torsions:
REMARK  status: ('A' for Active; 'I' for Inactive)
REMARK    1  A    between atoms: C_1  and  C_2
REMARK    2  A    between atoms: C_2  and  O_3
REMARK    3  A    between atoms: C_2  and  C_4
REMARK    4  A    between atoms: C_5  and  O_6
REMARK    5  A    between atoms: N_11  and  C_12
REMARK    6  A    between atoms: C_12  and  C_13
REMARK    7  A    between atoms: C_13  and  N_14
REMARK                            x       y       z     vdW  Elec       q    Type
REMARK                         _______ _______ _______ _____ _____    ______ ____
ROOT
ATOM      1  C   UNL     1       5.635   5.268  16.561  0.00  0.00    +0.000 A 
ATOM      2  C   UNL     1       6.770   5.680  15.945  0.00  0.00    +0.000 A 
ATOM      3  C   UNL     1       7.165   5.086  14.629  0.00  0.00    +0.000 A 
ATOM      4  O   UNL     1       8.217   5.421  14.089  0.00  0.00    +0.000 OA
ATOM      5  C   UNL     1       6.261   4.115  14.002  0.00  0.00    +0.000 A 
ATOM      6  C   UNL     1       5.179   3.760  14.705  0.00  0.00    +0.000 A 
ATOM      7  N   UNL     1       4.840   4.220  15.979  0.00  0.00    +0.000 N 
ENDROOT
BRANCH   1   9
ATOM      8  C   UNL     1       5.923   5.573  19.202  0.00  0.00    +0.000 C 
ATOM      9  C   UNL     1       5.192   5.898  17.896  0.00  0.00    +0.000 C 
BRANCH   9  10
ATOM     10  O   UNL     1       5.254   7.329  17.770  0.00  0.00    +0.000 OA
ATOM     11  H   UNL     1       4.821   7.685  18.564  0.00  0.00    +0.000 HD
ENDBRANCH   9  10
ENDBRANCH   1   9
BRANCH   2  12
ATOM     12  O   UNL     1       7.638   6.610  16.479  0.00  0.00    +0.000 OA
ATOM     13  H   UNL     1       7.280   6.824  17.364  0.00  0.00    +0.000 HD
ENDBRANCH   2  12
BRANCH   7  14
ATOM     14  C   UNL     1       3.606   3.675  16.624  0.00  0.00    +0.000 C 
BRANCH  14  15
ATOM     15  C   UNL     1       3.849   2.857  17.930  0.00  0.00    +0.000 C 
BRANCH  15  16
ATOM     16  N   UNL     1       3.093   3.249  19.140  0.00  0.00    +0.000 NA
ATOM     17  C   UNL     1       1.649   3.201  18.916  0.00  0.00    +0.000 C 
ATOM     18  C   UNL     1       0.877   3.663  20.164  0.00  0.00    +0.000 C 
ATOM     19  C   UNL     1       1.232   2.818  21.378  0.00  0.00    +0.000 C 
ATOM     20  C   UNL     1       2.743   2.768  21.563  0.00  0.00    +0.000 C 
ATOM     21  C   UNL     1       3.457   2.370  20.269  0.00  0.00    +0.000 C 
ENDBRANCH  15  16
ENDBRANCH  14  15
ENDBRANCH   7  14
TORSDOF 6
ENDMDL
