MODEL 1
REMARK VINA RESULT:      -7.5      0.000      0.000
REMARK  Name = 
REMARK  5 active torsions:
REMARK  status: ('A' for Active; 'I' for Inactive)
REMARK    1  A    between atoms: C_1  and  S_2
REMARK    2  A    between atoms: S_2  and  C_5
REMARK    3  A    between atoms: C_8  and  N_9
REMARK    4  A    between atoms: N_9  and  C_10
REMARK    5  A    between atoms: C_10  and  C_11
REMARK                            x       y       z     vdW  Elec       q    Type
REMARK                         _______ _______ _______ _____ _____    ______ ____
ROOT
ATOM      1  N   UNL     1       2.652   5.663  20.328  0.00  0.00    +0.000 N 
ATOM      2  C   UNL     1       1.874   6.817  20.462  0.00  0.00    +0.000 C 
ATOM      3  O   UNL     1       1.031   6.892  21.355  0.00  0.00    +0.000 OA
ATOM      4  N   UNL     1       2.106   7.798  19.527  0.00  0.00    +0.000 N 
ATOM      5  C   UNL     1       1.425   8.986  19.563  0.00  0.00    +0.000 A 
ATOM      6  N   UNL     1       0.697   9.495  20.527  0.00  0.00    +0.000 NA
ATOM      7  C   UNL     1       0.177  10.710  20.121  0.00  0.00    +0.000 A 
ATOM      8  C   UNL     1       0.536  11.085  18.851  0.00  0.00    +0.000 A 
ATOM      9 CL   UNL     1       0.071  12.496  18.003  0.00  0.00    +0.000 Cl
ATOM     10  S   UNL     1       1.563   9.933  18.141  0.00  0.00    +0.000 S 
ATOM     11  H   UNL     1       2.627   7.593  18.694  0.00  0.00    +0.000 HD
ENDROOT
BRANCH   1  15
ATOM     12  C   UNL     1       5.677   5.150  17.444  0.00  0.00    +0.000 A 
ATOM     13  C   UNL     1       5.996   5.119  18.804  0.00  0.00    +0.000 A 
ATOM     14  C   UNL     1       4.986   5.294  19.754  0.00  0.00    +0.000 A 
ATOM     15  C   UNL     1       3.661   5.490  19.355  0.00  0.00    +0.000 A 
ATOM     16  C   UNL     1       3.351   5.538  17.987  0.00  0.00    +0.000 A 
ATOM     17  C   UNL     1       4.360   5.380  17.029  0.00  0.00    +0.000 A 
BRANCH  12  19
ATOM     18  C   UNL     1       6.196   4.100  14.903  0.00  0.00    +0.000 C 
ATOM     19  S   UNL     1       6.976   4.971  16.239  0.00  0.00    +0.000 S 
ATOM     20  O   UNL     1       7.984   4.103  16.816  0.00  0.00    +0.000 OA
ATOM     21  O   UNL     1       7.320   6.301  15.774  0.00  0.00    +0.000 OA
ENDBRANCH  12  19
ENDBRANCH   1  15
BRANCH   1  22
ATOM     22  C   UNL     1       2.306   4.499  21.162  0.00  0.00    +0.000 C 
BRANCH  22  23
ATOM     23  C   UNL     1       1.771   3.254  20.432  0.00  0.00    +0.000 C 
ATOM     24  C   UNL     1       2.756   2.347  19.709  0.00  0.00    +0.000 C 
ATOM     25  C   UNL     1       1.860   1.659  18.704  0.00  0.00    +0.000 C 
ATOM     26  C   UNL     1       0.910   2.770  18.318  0.00  0.00    +0.000 C 
ATOM     27  O   UNL     1       0.758   3.612  19.468  0.00  0.00    +0.000 OA
ENDBRANCH  22  23
ENDBRANCH   1  22
TORSDOF 4
ENDMDL
MODEL 2
REMARK VINA RESULT:      -7.0      1.146      1.475
REMARK  Name = 
REMARK  5 active torsions:
REMARK  status: ('A' for Active; 'I' for Inactive)
REMARK    1  A    between atoms: C_1  and  S_2
REMARK    2  A    between atoms: S_2  and  C_5
REMARK    3  A    between atoms: C_8  and  N_9
REMARK    4  A    between atoms: N_9  and  C_10
REMARK    5  A    between atoms: C_10  and  C_11
REMARK                            x       y       z     vdW  Elec       q    Type
REMARK                         _______ _______ _______ _____ _____    ______ ____
ROOT
ATOM      1  N   UNL     1       2.215   6.345  20.260  0.00  0.00    +0.000 N 
ATOM      2  C   UNL     1       1.439   7.492  20.455  0.00  0.00    +0.000 C 
ATOM      3  O   UNL     1       0.545   7.495  21.300  0.00  0.00    +0.000 OA
ATOM      4  N   UNL     1       1.733   8.551  19.629  0.00  0.00    +0.000 N 
ATOM      5  C   UNL     1       1.060   9.740  19.735  0.00  0.00    +0.000 A 
ATOM      6  N   UNL     1       0.280  10.167  20.698  0.00  0.00    +0.000 NA
ATOM      7  C   UNL     1      -0.205  11.421  20.377  0.00  0.00    +0.000 A 
ATOM      8  C   UNL     1       0.231  11.907  19.170  0.00  0.00    +0.000 A 
ATOM      9 CL   UNL     1      -0.173  13.396  18.430  0.00  0.00    +0.000 Cl
ATOM     10  S   UNL     1       1.289  10.812  18.417  0.00  0.00    +0.000 S 
ATOM     11  H   UNL     1       2.301   8.417  18.812  0.00  0.00    +0.000 HD
ENDROOT
BRANCH   1  15
ATOM     12  C   UNL     1       5.370   6.070  17.485  0.00  0.00    +0.000 A 
ATOM     13  C   UNL     1       4.241   6.836  17.185  0.00  0.00    +0.000 A 
ATOM     14  C   UNL     1       3.197   6.920  18.111  0.00  0.00    +0.000 A 
ATOM     15  C   UNL     1       3.278   6.250  19.335  0.00  0.00    +0.000 A 
ATOM     16  C   UNL     1       4.407   5.467  19.622  0.00  0.00    +0.000 A 
ATOM     17  C   UNL     1       5.450   5.366  18.692  0.00  0.00    +0.000 A 
BRANCH  12  19
ATOM     18  C   UNL     1       7.411   4.356  16.634  0.00  0.00    +0.000 C 
ATOM     19  S   UNL     1       6.676   5.933  16.282  0.00  0.00    +0.000 S 
ATOM     20  O   UNL     1       7.652   6.963  16.585  0.00  0.00    +0.000 OA
ATOM     21  O   UNL     1       6.053   5.863  14.975  0.00  0.00    +0.000 OA
ENDBRANCH  12  19
ENDBRANCH   1  15
BRANCH   1  22
ATOM     22  C   UNL     1       1.811   5.114  20.961  0.00  0.00    +0.000 C 
BRANCH  22  23
ATOM     23  C   UNL     1       1.136   4.020  20.114  0.00  0.00    +0.000 C 
ATOM     24  C   UNL     1       1.565   2.573  20.308  0.00  0.00    +0.000 C 
ATOM     25  C   UNL     1       1.156   1.951  18.992  0.00  0.00    +0.000 C 
ATOM     26  C   UNL     1       1.464   3.061  18.012  0.00  0.00    +0.000 C 
ATOM     27  O   UNL     1       1.264   4.301  18.704  0.00  0.00    +0.000 OA
ENDBRANCH  22  23
ENDBRANCH   1  22
TORSDOF 4
ENDMDL
MODEL 3
REMARK VINA RESULT:      -6.6      1.151      1.412
REMARK  Name = 
REMARK  5 active torsions:
REMARK  status: ('A' for Active; 'I' for Inactive)
REMARK    1  A    between atoms: C_1  and  S_2
REMARK    2  A    between atoms: S_2  and  C_5
REMARK    3  A    between atoms: C_8  and  N_9
REMARK    4  A    between atoms: N_9  and  C_10
REMARK    5  A    between atoms: C_10  and  C_11
REMARK                            x       y       z     vdW  Elec       q    Type
REMARK                         _______ _______ _______ _____ _____    ______ ____
ROOT
ATOM      1  N   UNL     1       2.104   6.277  20.319  0.00  0.00    +0.000 N 
ATOM      2  C   UNL     1       1.326   7.425  20.500  0.00  0.00    +0.000 C 
ATOM      3  O   UNL     1       0.400   7.421  21.310  0.00  0.00    +0.000 OA
ATOM      4  N   UNL     1       1.656   8.494  19.700  0.00  0.00    +0.000 N 
ATOM      5  C   UNL     1       0.984   9.684  19.797  0.00  0.00    +0.000 A 
ATOM      6  N   UNL     1       0.170  10.102  20.735  0.00  0.00    +0.000 NA
ATOM      7  C   UNL     1      -0.298  11.362  20.412  0.00  0.00    +0.000 A 
ATOM      8  C   UNL     1       0.186  11.862  19.230  0.00  0.00    +0.000 A 
ATOM      9 CL   UNL     1      -0.182  13.363  18.496  0.00  0.00    +0.000 Cl
ATOM     10  S   UNL     1       1.268  10.773  18.503  0.00  0.00    +0.000 S 
ATOM     11  H   UNL     1       2.254   8.368  18.904  0.00  0.00    +0.000 HD
ENDROOT
BRANCH   1  15
ATOM     12  C   UNL     1       5.389   6.002  17.699  0.00  0.00    +0.000 A 
ATOM     13  C   UNL     1       5.394   5.293  18.903  0.00  0.00    +0.000 A 
ATOM     14  C   UNL     1       4.301   5.393  19.768  0.00  0.00    +0.000 A 
ATOM     15  C   UNL     1       3.202   6.189  19.435  0.00  0.00    +0.000 A 
ATOM     16  C   UNL     1       3.211   6.912  18.233  0.00  0.00    +0.000 A 
ATOM     17  C   UNL     1       4.310   6.830  17.368  0.00  0.00    +0.000 A 
BRANCH  12  19
ATOM     18  C   UNL     1       7.743   7.357  17.027  0.00  0.00    +0.000 C 
ATOM     19  S   UNL     1       6.805   5.905  16.623  0.00  0.00    +0.000 S 
ATOM     20  O   UNL     1       6.323   6.042  15.262  0.00  0.00    +0.000 OA
ATOM     21  O   UNL     1       7.573   4.742  17.024  0.00  0.00    +0.000 OA
ENDBRANCH  12  19
ENDBRANCH   1  15
BRANCH   1  22
ATOM     22  C   UNL     1       1.669   5.038  20.988  0.00  0.00    +0.000 C 
BRANCH  22  23
ATOM     23  C   UNL     1       1.082   3.932  20.091  0.00  0.00    +0.000 C 
ATOM     24  C   UNL     1       1.571   2.503  20.275  0.00  0.00    +0.000 C 
ATOM     25  C   UNL     1       1.248   1.892  18.930  0.00  0.00    +0.000 C 
ATOM     26  C   UNL     1       1.544   3.036  17.987  0.00  0.00    +0.000 C 
ATOM     27  O   UNL     1       1.256   4.250  18.694  0.00  0.00    +0.000 OA
ENDBRANCH  22  23
ENDBRANCH   1  22
TORSDOF 4
ENDMDL
MODEL 4
REMARK VINA RESULT:      -6.5      2.628      4.937
REMARK  Name = 
REMARK  5 active torsions:
REMARK  status: ('A' for Active; 'I' for Inactive)
REMARK    1  A    between atoms: C_1  and  S_2
REMARK    2  A    between atoms: S_2  and  C_5
REMARK    3  A    between atoms: C_8  and  N_9
REMARK    4  A    between atoms: N_9  and  C_10
REMARK    5  A    between atoms: C_10  and  C_11
REMARK                            x       y       z     vdW  Elec       q    Type
REMARK                         _______ _______ _______ _____ _____    ______ ____
ROOT
ATOM      1  N   UNL     1       2.870   7.709  17.818  0.00  0.00    +0.000 N 
ATOM      2  C   UNL     1       2.205   8.904  18.106  0.00  0.00    +0.000 C 
ATOM      3  O   UNL     1       2.478   9.928  17.480  0.00  0.00    +0.000 OA
ATOM      4  N   UNL     1       1.288   8.839  19.129  0.00  0.00    +0.000 N 
ATOM      5  C   UNL     1       0.554   9.937  19.492  0.00  0.00    +0.000 A 
ATOM      6  N   UNL     1       0.384  11.069  18.854  0.00  0.00    +0.000 NA
ATOM      7  C   UNL     1      -0.422  11.906  19.603  0.00  0.00    +0.000 A 
ATOM      8  C   UNL     1      -0.844  11.371  20.794  0.00  0.00    +0.000 A 
ATOM      9 CL   UNL     1      -1.822  12.109  21.988  0.00  0.00    +0.000 Cl
ATOM     10  S   UNL     1      -0.261   9.788  20.993  0.00  0.00    +0.000 S 
ATOM     11  H   UNL     1       1.277   8.053  19.752  0.00  0.00    +0.000 HD
ENDROOT
BRANCH   1  15
ATOM     12  C   UNL     1       2.117   4.046  19.755  0.00  0.00    +0.000 A 
ATOM     13  C   UNL     1       2.814   5.058  20.421  0.00  0.00    +0.000 A 
ATOM     14  C   UNL     1       3.063   6.269  19.769  0.00  0.00    +0.000 A 
ATOM     15  C   UNL     1       2.612   6.478  18.462  0.00  0.00    +0.000 A 
ATOM     16  C   UNL     1       1.928   5.451  17.794  0.00  0.00    +0.000 A 
ATOM     17  C   UNL     1       1.689   4.229  18.435  0.00  0.00    +0.000 A 
BRANCH  12  19
ATOM     18  C   UNL     1       3.450   2.049  21.191  0.00  0.00    +0.000 C 
ATOM     19  S   UNL     1       1.844   2.490  20.577  0.00  0.00    +0.000 S 
ATOM     20  O   UNL     1       1.468   1.525  19.561  0.00  0.00    +0.000 OA
ATOM     21  O   UNL     1       0.978   2.746  21.711  0.00  0.00    +0.000 OA
ENDBRANCH  12  19
ENDBRANCH   1  15
BRANCH   1  22
ATOM     22  C   UNL     1       4.008   7.762  16.885  0.00  0.00    +0.000 C 
BRANCH  22  23
ATOM     23  C   UNL     1       5.066   6.650  17.014  0.00  0.00    +0.000 C 
ATOM     24  C   UNL     1       6.516   7.042  17.262  0.00  0.00    +0.000 C 
ATOM     25  C   UNL     1       7.255   5.824  16.757  0.00  0.00    +0.000 C 
ATOM     26  C   UNL     1       6.420   5.424  15.561  0.00  0.00    +0.000 C 
ATOM     27  O   UNL     1       5.065   5.795  15.851  0.00  0.00    +0.000 OA
ENDBRANCH  22  23
ENDBRANCH   1  22
TORSDOF 4
ENDMDL
MODEL 5
REMARK VINA RESULT:      -6.4      3.981      6.530
REMARK  Name = 
REMARK  5 active torsions:
REMARK  status: ('A' for Active; 'I' for Inactive)
REMARK    1  A    between atoms: C_1  and  S_2
REMARK    2  A    between atoms: S_2  and  C_5
REMARK    3  A    between atoms: C_8  and  N_9
REMARK    4  A    between atoms: N_9  and  C_10
REMARK    5  A    between atoms: C_10  and  C_11
REMARK                            x       y       z     vdW  Elec       q    Type
REMARK                         _______ _______ _______ _____ _____    ______ ____
ROOT
ATOM      1  N   UNL     1      -0.152  11.072  19.181  0.00  0.00    +0.000 N 
ATOM      2  C   UNL     1       0.304  12.393  19.235  0.00  0.00    +0.000 C 
ATOM      3  O   UNL     1      -0.498  13.317  19.360  0.00  0.00    +0.000 OA
ATOM      4  N   UNL     1       1.664  12.554  19.106  0.00  0.00    +0.000 N 
ATOM      5  C   UNL     1       2.238  13.797  19.165  0.00  0.00    +0.000 A 
ATOM      6  N   UNL     1       1.722  14.929  19.576  0.00  0.00    +0.000 NA
ATOM      7  C   UNL     1       2.657  15.939  19.439  0.00  0.00    +0.000 A 
ATOM      8  C   UNL     1       3.862  15.531  18.927  0.00  0.00    +0.000 A 
ATOM      9 CL   UNL     1       5.239  16.490  18.594  0.00  0.00    +0.000 Cl
ATOM     10  S   UNL     1       3.866  13.859  18.630  0.00  0.00    +0.000 S 
ATOM     11  H   UNL     1       2.236  11.799  18.774  0.00  0.00    +0.000 HD
ENDROOT
BRANCH   1  15
ATOM     12  C   UNL     1       2.351   7.707  18.808  0.00  0.00    +0.000 A 
ATOM     13  C   UNL     1       2.069   8.494  17.690  0.00  0.00    +0.000 A 
ATOM     14  C   UNL     1       1.234   9.608  17.822  0.00  0.00    +0.000 A 
ATOM     15  C   UNL     1       0.689   9.943  19.064  0.00  0.00    +0.000 A 
ATOM     16  C   UNL     1       0.962   9.137  20.180  0.00  0.00    +0.000 A 
ATOM     17  C   UNL     1       1.785   8.010  20.052  0.00  0.00    +0.000 A 
BRANCH  12  19
ATOM     18  C   UNL     1       2.300   5.070  17.874  0.00  0.00    +0.000 C 
ATOM     19  S   UNL     1       3.380   6.264  18.623  0.00  0.00    +0.000 S 
ATOM     20  O   UNL     1       3.714   5.798  19.955  0.00  0.00    +0.000 OA
ATOM     21  O   UNL     1       4.421   6.596  17.670  0.00  0.00    +0.000 OA
ENDBRANCH  12  19
ENDBRANCH   1  15
BRANCH   1  22
ATOM     22  C   UNL     1      -1.606  10.849  19.100  0.00  0.00    +0.000 C 
BRANCH  22  23
ATOM     23  C   UNL     1      -2.283  11.155  17.751  0.00  0.00    +0.000 C 
ATOM     24  C   UNL     1      -3.794  11.332  17.712  0.00  0.00    +0.000 C 
ATOM     25  C   UNL     1      -4.102  11.031  16.263  0.00  0.00    +0.000 C 
ATOM     26  C   UNL     1      -3.122   9.919  15.958  0.00  0.00    +0.000 C 
ATOM     27  O   UNL     1      -1.961  10.148  16.768  0.00  0.00    +0.000 OA
ENDBRANCH  22  23
ENDBRANCH   1  22
TORSDOF 4
ENDMDL
MODEL 6
REMARK VINA RESULT:      -6.3      2.690      5.043
REMARK  Name = 
REMARK  5 active torsions:
REMARK  status: ('A' for Active; 'I' for Inactive)
REMARK    1  A    between atoms: C_1  and  S_2
REMARK    2  A    between atoms: S_2  and  C_5
REMARK    3  A    between atoms: C_8  and  N_9
REMARK    4  A    between atoms: N_9  and  C_10
REMARK    5  A    between atoms: C_10  and  C_11
REMARK                            x       y       z     vdW  Elec       q    Type
REMARK                         _______ _______ _______ _____ _____    ______ ____
ROOT
ATOM      1  N   UNL     1       2.981   7.783  17.801  0.00  0.00    +0.000 N 
ATOM      2  C   UNL     1       2.338   8.972  18.159  0.00  0.00    +0.000 C 
ATOM      3  O   UNL     1       2.689  10.038  17.655  0.00  0.00    +0.000 OA
ATOM      4  N   UNL     1       1.351   8.847  19.107  0.00  0.00    +0.000 N 
ATOM      5  C   UNL     1       0.630   9.935  19.526  0.00  0.00    +0.000 A 
ATOM      6  N   UNL     1       0.545  11.128  18.991  0.00  0.00    +0.000 NA
ATOM      7  C   UNL     1      -0.283  11.922  19.763  0.00  0.00    +0.000 A 
ATOM      8  C   UNL     1      -0.805  11.294  20.866  0.00  0.00    +0.000 A 
ATOM      9 CL   UNL     1      -1.839  11.955  22.058  0.00  0.00    +0.000 Cl
ATOM     10  S   UNL     1      -0.292   9.677  20.948  0.00  0.00    +0.000 S 
ATOM     11  H   UNL     1       1.269   8.006  19.649  0.00  0.00    +0.000 HD
ENDROOT
BRANCH   1  15
ATOM     12  C   UNL     1       1.941   3.980  19.279  0.00  0.00    +0.000 A 
ATOM     13  C   UNL     1       1.571   4.351  17.984  0.00  0.00    +0.000 A 
ATOM     14  C   UNL     1       1.918   5.616  17.503  0.00  0.00    +0.000 A 
ATOM     15  C   UNL     1       2.637   6.508  18.303  0.00  0.00    +0.000 A 
ATOM     16  C   UNL     1       2.989   6.136  19.609  0.00  0.00    +0.000 A 
ATOM     17  C   UNL     1       2.631   4.875  20.104  0.00  0.00    +0.000 A 
BRANCH  12  19
ATOM     18  C   UNL     1       1.450   2.599  21.663  0.00  0.00    +0.000 C 
ATOM     19  S   UNL     1       1.457   2.382  19.901  0.00  0.00    +0.000 S 
ATOM     20  O   UNL     1       2.516   1.449  19.565  0.00  0.00    +0.000 OA
ATOM     21  O   UNL     1       0.094   2.145  19.467  0.00  0.00    +0.000 OA
ENDBRANCH  12  19
ENDBRANCH   1  15
BRANCH   1  22
ATOM     22  C   UNL     1       4.183   7.878  16.955  0.00  0.00    +0.000 C 
BRANCH  22  23
ATOM     23  C   UNL     1       5.175   6.702  17.020  0.00  0.00    +0.000 C 
ATOM     24  C   UNL     1       6.650   6.998  17.245  0.00  0.00    +0.000 C 
ATOM     25  C   UNL     1       7.304   5.757  16.681  0.00  0.00    +0.000 C 
ATOM     26  C   UNL     1       6.419   5.449  15.494  0.00  0.00    +0.000 C 
ATOM     27  O   UNL     1       5.096   5.889  15.829  0.00  0.00    +0.000 OA
ENDBRANCH  22  23
ENDBRANCH   1  22
TORSDOF 4
ENDMDL
MODEL 7
REMARK VINA RESULT:      -6.2      0.797      1.263
REMARK  Name = 
REMARK  5 active torsions:
REMARK  status: ('A' for Active; 'I' for Inactive)
REMARK    1  A    between atoms: C_1  and  S_2
REMARK    2  A    between atoms: S_2  and  C_5
REMARK    3  A    between atoms: C_8  and  N_9
REMARK    4  A    between atoms: N_9  and  C_10
REMARK    5  A    between atoms: C_10  and  C_11
REMARK                            x       y       z     vdW  Elec       q    Type
REMARK                         _______ _______ _______ _____ _____    ______ ____
ROOT
ATOM      1  N   UNL     1       2.423   6.109  20.121  0.00  0.00    +0.000 N 
ATOM      2  C   UNL     1       1.672   7.277  20.281  0.00  0.00    +0.000 C 
ATOM      3  O   UNL     1       0.728   7.300  21.070  0.00  0.00    +0.000 OA
ATOM      4  N   UNL     1       2.047   8.334  19.486  0.00  0.00    +0.000 N 
ATOM      5  C   UNL     1       1.405   9.542  19.565  0.00  0.00    +0.000 A 
ATOM      6  N   UNL     1       0.581   9.984  20.483  0.00  0.00    +0.000 NA
ATOM      7  C   UNL     1       0.154  11.255  20.146  0.00  0.00    +0.000 A 
ATOM      8  C   UNL     1       0.678  11.738  18.974  0.00  0.00    +0.000 A 
ATOM      9 CL   UNL     1       0.365  13.246  18.228  0.00  0.00    +0.000 Cl
ATOM     10  S   UNL     1       1.746  10.619  18.275  0.00  0.00    +0.000 S 
ATOM     11  H   UNL     1       2.660   8.190  18.704  0.00  0.00    +0.000 HD
ENDROOT
BRANCH   1  15
ATOM     12  C   UNL     1       5.731   5.758  17.539  0.00  0.00    +0.000 A 
ATOM     13  C   UNL     1       4.561   6.378  17.095  0.00  0.00    +0.000 A 
ATOM     14  C   UNL     1       3.466   6.487  17.957  0.00  0.00    +0.000 A 
ATOM     15  C   UNL     1       3.538   5.989  19.261  0.00  0.00    +0.000 A 
ATOM     16  C   UNL     1       4.710   5.351  19.695  0.00  0.00    +0.000 A 
ATOM     17  C   UNL     1       5.805   5.224  18.831  0.00  0.00    +0.000 A 
BRANCH  12  19
ATOM     18  C   UNL     1       6.337   5.212  14.863  0.00  0.00    +0.000 C 
ATOM     19  S   UNL     1       7.105   5.583  16.419  0.00  0.00    +0.000 S 
ATOM     20  O   UNL     1       7.860   4.418  16.840  0.00  0.00    +0.000 OA
ATOM     21  O   UNL     1       7.743   6.881  16.313  0.00  0.00    +0.000 OA
ENDBRANCH  12  19
ENDBRANCH   1  15
BRANCH   1  22
ATOM     22  C   UNL     1       1.941   4.884  20.783  0.00  0.00    +0.000 C 
BRANCH  22  23
ATOM     23  C   UNL     1       2.018   3.577  19.971  0.00  0.00    +0.000 C 
ATOM     24  C   UNL     1       1.683   3.615  18.487  0.00  0.00    +0.000 C 
ATOM     25  C   UNL     1       1.311   2.174  18.219  0.00  0.00    +0.000 C 
ATOM     26  C   UNL     1       0.592   1.793  19.494  0.00  0.00    +0.000 C 
ATOM     27  O   UNL     1       1.185   2.553  20.555  0.00  0.00    +0.000 OA
ENDBRANCH  22  23
ENDBRANCH   1  22
TORSDOF 4
ENDMDL
MODEL 8
REMARK VINA RESULT:      -6.2      1.277      1.361
REMARK  Name = 
REMARK  5 active torsions:
REMARK  status: ('A' for Active; 'I' for Inactive)
REMARK    1  A    between atoms: C_1  and  S_2
REMARK    2  A    between atoms: S_2  and  C_5
REMARK    3  A    between atoms: C_8  and  N_9
REMARK    4  A    between atoms: N_9  and  C_10
REMARK    5  A    between atoms: C_10  and  C_11
REMARK                            x       y       z     vdW  Elec       q    Type
REMARK                         _______ _______ _______ _____ _____    ______ ____
ROOT
ATOM      1  N   UNL     1       2.174   6.443  20.137  0.00  0.00    +0.000 N 
ATOM      2  C   UNL     1       1.446   7.615  20.365  0.00  0.00    +0.000 C 
ATOM      3  O   UNL     1       0.537   7.624  21.194  0.00  0.00    +0.000 OA
ATOM      4  N   UNL     1       1.800   8.691  19.586  0.00  0.00    +0.000 N 
ATOM      5  C   UNL     1       1.177   9.903  19.729  0.00  0.00    +0.000 A 
ATOM      6  N   UNL     1       0.400  10.327  20.696  0.00  0.00    +0.000 NA
ATOM      7  C   UNL     1      -0.024  11.613  20.417  0.00  0.00    +0.000 A 
ATOM      8  C   UNL     1       0.454  12.126  19.238  0.00  0.00    +0.000 A 
ATOM      9 CL   UNL     1       0.129  13.659  18.551  0.00  0.00    +0.000 Cl
ATOM     10  S   UNL     1       1.476  11.015  18.459  0.00  0.00    +0.000 S 
ATOM     11  H   UNL     1       2.376   8.564  18.774  0.00  0.00    +0.000 HD
ENDROOT
BRANCH   1  15
ATOM     12  C   UNL     1       5.390   6.116  17.439  0.00  0.00    +0.000 A 
ATOM     13  C   UNL     1       5.472   5.518  18.698  0.00  0.00    +0.000 A 
ATOM     14  C   UNL     1       4.400   5.634  19.589  0.00  0.00    +0.000 A 
ATOM     15  C   UNL     1       3.248   6.337  19.226  0.00  0.00    +0.000 A 
ATOM     16  C   UNL     1       3.180   6.950  17.966  0.00  0.00    +0.000 A 
ATOM     17  C   UNL     1       4.256   6.852  17.074  0.00  0.00    +0.000 A 
BRANCH  12  19
ATOM     18  C   UNL     1       7.556   4.472  16.781  0.00  0.00    +0.000 C 
ATOM     19  S   UNL     1       6.777   6.001  16.327  0.00  0.00    +0.000 S 
ATOM     20  O   UNL     1       7.684   7.085  16.654  0.00  0.00    +0.000 OA
ATOM     21  O   UNL     1       6.245   5.859  14.986  0.00  0.00    +0.000 OA
ENDBRANCH  12  19
ENDBRANCH   1  15
BRANCH   1  22
ATOM     22  C   UNL     1       1.705   5.204  20.782  0.00  0.00    +0.000 C 
BRANCH  22  23
ATOM     23  C   UNL     1       1.897   3.894  19.996  0.00  0.00    +0.000 C 
ATOM     24  C   UNL     1       1.394   3.819  18.561  0.00  0.00    +0.000 C 
ATOM     25  C   UNL     1       1.228   2.328  18.371  0.00  0.00    +0.000 C 
ATOM     26  C   UNL     1       0.728   1.892  19.730  0.00  0.00    +0.000 C 
ATOM     27  O   UNL     1       1.309   2.777  20.697  0.00  0.00    +0.000 OA
ENDBRANCH  22  23
ENDBRANCH   1  22
TORSDOF 4
ENDMDL
MODEL 9
REMARK VINA RESULT:      -6.1      7.082      9.983
REMARK  Name = 
REMARK  5 active torsions:
REMARK  status: ('A' for Active; 'I' for Inactive)
REMARK    1  A    between atoms: C_1  and  S_2
REMARK    2  A    between atoms: S_2  and  C_5
REMARK    3  A    between atoms: C_8  and  N_9
REMARK    4  A    between atoms: N_9  and  C_10
REMARK    5  A    between atoms: C_10  and  C_11
REMARK                            x       y       z     vdW  Elec       q    Type
REMARK                         _______ _______ _______ _____ _____    ______ ____
ROOT
ATOM      1  N   UNL     1      -0.337  11.376  19.800  0.00  0.00    +0.000 N 
ATOM      2  C   UNL     1       0.858  12.041  19.512  0.00  0.00    +0.000 C 
ATOM      3  O   UNL     1       1.573  11.654  18.589  0.00  0.00    +0.000 OA
ATOM      4  N   UNL     1       1.161  13.095  20.341  0.00  0.00    +0.000 N 
ATOM      5  C   UNL     1       2.293  13.843  20.151  0.00  0.00    +0.000 A 
ATOM      6  N   UNL     1       3.092  13.888  19.112  0.00  0.00    +0.000 NA
ATOM      7  C   UNL     1       4.127  14.769  19.363  0.00  0.00    +0.000 A 
ATOM      8  C   UNL     1       4.075  15.370  20.595  0.00  0.00    +0.000 A 
ATOM      9 CL   UNL     1       5.183  16.487  21.266  0.00  0.00    +0.000 Cl
ATOM     10  S   UNL     1       2.704  14.867  21.463  0.00  0.00    +0.000 S 
ATOM     11  H   UNL     1       0.672  13.217  21.209  0.00  0.00    +0.000 HD
ENDROOT
BRANCH   1  15
ATOM     12  C   UNL     1      -3.028  12.528  22.827  0.00  0.00    +0.000 A 
ATOM     13  C   UNL     1      -3.206  12.991  21.521  0.00  0.00    +0.000 A 
ATOM     14  C   UNL     1      -2.306  12.607  20.523  0.00  0.00    +0.000 A 
ATOM     15  C   UNL     1      -1.237  11.757  20.820  0.00  0.00    +0.000 A 
ATOM     16  C   UNL     1      -1.054  11.309  22.137  0.00  0.00    +0.000 A 
ATOM     17  C   UNL     1      -1.943  11.704  23.146  0.00  0.00    +0.000 A 
BRANCH  12  19
ATOM     18  C   UNL     1      -5.402  13.958  23.215  0.00  0.00    +0.000 C 
ATOM     19  S   UNL     1      -4.153  13.059  24.101  0.00  0.00    +0.000 S 
ATOM     20  O   UNL     1      -3.437  13.995  24.947  0.00  0.00    +0.000 OA
ATOM     21  O   UNL     1      -4.763  11.869  24.662  0.00  0.00    +0.000 OA
ENDBRANCH  12  19
ENDBRANCH   1  15
BRANCH   1  22
ATOM     22  C   UNL     1      -0.612  10.115  19.088  0.00  0.00    +0.000 C 
BRANCH  22  23
ATOM     23  C   UNL     1      -1.572  10.188  17.886  0.00  0.00    +0.000 C 
ATOM     24  C   UNL     1      -1.857  11.544  17.256  0.00  0.00    +0.000 C 
ATOM     25  C   UNL     1      -3.186  11.296  16.580  0.00  0.00    +0.000 C 
ATOM     26  C   UNL     1      -3.875  10.383  17.568  0.00  0.00    +0.000 C 
ATOM     27  O   UNL     1      -2.854   9.608  18.209  0.00  0.00    +0.000 OA
ENDBRANCH  22  23
ENDBRANCH   1  22
TORSDOF 4
ENDMDL
