MODEL 1
REMARK VINA RESULT:      -8.8      0.000      0.000
REMARK  Name = 
REMARK  15 active torsions:
REMARK  status: ('A' for Active; 'I' for Inactive)
REMARK    1  A    between atoms: N_1  and  CA_2
REMARK    2  A    between atoms: CA_2  and  CB_3
REMARK    3  A    between atoms: CA_2  and  C_13
REMARK    4  A    between atoms: CB_3  and  CG_4
REMARK    5  A    between atoms: N_15  and  CA_16
REMARK    6  A    between atoms: CA_16  and  CB_17
REMARK    7  A    between atoms: CA_16  and  C_25
REMARK    8  A    between atoms: CB_17  and  CG_18
REMARK    9  A    between atoms: CZ_21  and  OH_22
REMARK   10  A    between atoms: N_27  and  CA_28
REMARK   11  A    between atoms: CA_28  and  CB_29
REMARK   12  A    between atoms: CA_28  and  C_33
REMARK   13  A    between atoms: CB_29  and  CG_30
REMARK   14  A    between atoms: CG_30  and  OD2_32
REMARK   15  A    between atoms: C_33  and  OXT_35
REMARK                            x       y       z     vdW  Elec       q    Type
REMARK                         _______ _______ _______ _____ _____    ______ ____
ROOT
ATOM      1  CA  TYR A   2       3.263   6.687  18.324  0.00  0.00    +0.000 C 
ENDROOT
BRANCH   1   4
ATOM      2  C   TRP A   1       1.886   8.656  18.993  0.00  0.00    +0.000 C 
ATOM      3  O   TRP A   1       1.670   8.203  20.116  0.00  0.00    +0.000 OA
ATOM      4  N   TYR A   2       2.637   7.979  18.063  0.00  0.00    +0.000 N 
ATOM      5  H   TYR A   2       2.794   8.374  17.139  0.00  0.00    +0.000 HD
BRANCH   2   6
ATOM      6  CA  TRP A   1       1.405  10.045  18.519  0.00  0.00    +0.000 C 
BRANCH   6   7
ATOM      7  N   TRP A   1       2.186  10.457  17.333  0.00  0.00    +0.000 NA
ATOM      8  H1  TRP A   1       2.653   9.644  16.930  0.00  0.00    +0.000 HD
ATOM      9  H2  TRP A   1       2.919  11.100  17.635  0.00  0.00    +0.000 HD
ENDBRANCH   6   7
BRANCH   6  10
ATOM     10  CB  TRP A   1      -0.113   9.945  18.275  0.00  0.00    +0.000 C 
BRANCH  10  11
ATOM     11  CG  TRP A   1      -0.919  10.998  18.958  0.00  0.00    +0.000 A 
ATOM     12  CD1 TRP A   1      -1.660  11.998  18.351  0.00  0.00    +0.000 A 
ATOM     13  NE1 TRP A   1      -2.229  12.761  19.335  0.00  0.00    +0.000 N 
ATOM     14  CE2 TRP A   1      -1.876  12.283  20.575  0.00  0.00    +0.000 A 
ATOM     15  CZ2 TRP A   1      -2.218  12.740  21.852  0.00  0.00    +0.000 A 
ATOM     16  CH2 TRP A   1      -1.700  12.043  22.948  0.00  0.00    +0.000 A 
ATOM     17  CZ3 TRP A   1      -0.876  10.938  22.774  0.00  0.00    +0.000 A 
ATOM     18  CE3 TRP A   1      -0.538  10.498  21.492  0.00  0.00    +0.000 A 
ATOM     19  CD2 TRP A   1      -1.050  11.180  20.369  0.00  0.00    +0.000 A 
ATOM     20  HE1 TRP A   1      -2.821  13.566  19.179  0.00  0.00    +0.000 HD
ENDBRANCH  10  11
ENDBRANCH   6  10
ENDBRANCH   2   6
ENDBRANCH   1   4
BRANCH   1  21
ATOM     21  C   TYR A   2       4.598   6.679  17.546  0.00  0.00    +0.000 C 
ATOM     22  O   TYR A   2       4.660   6.921  16.338  0.00  0.00    +0.000 OA
ATOM     23  N   ASP A   3       5.730   6.439  18.284  0.00  0.00    +0.000 N 
ATOM     24  H   ASP A   3       5.664   6.215  19.275  0.00  0.00    +0.000 HD
BRANCH  23  25
ATOM     25  CA  ASP A   3       7.040   6.227  17.654  0.00  0.00    +0.000 C 
BRANCH  25  26
ATOM     26  C   ASP A   3       7.225   4.706  17.575  0.00  0.00    +0.000 C 
ATOM     27  O   ASP A   3       7.975   4.176  16.762  0.00  0.00    +0.000 OA
BRANCH  26  28
ATOM     28  OXT ASP A   3       6.522   3.993  18.478  0.00  0.00    +0.000 OA
ATOM     29  HXT ASP A   3       7.019   3.775  19.305  0.00  0.00    +0.000 HD
ENDBRANCH  26  28
ENDBRANCH  25  26
BRANCH  25  30
ATOM     30  CB  ASP A   3       8.134   6.890  18.482  0.00  0.00    +0.000 C 
BRANCH  30  31
ATOM     31  CG  ASP A   3       8.190   8.361  18.191  0.00  0.00    +0.000 C 
ATOM     32  OD1 ASP A   3       7.573   8.899  17.281  0.00  0.00    +0.000 OA
BRANCH  31  33
ATOM     33  OD2 ASP A   3       9.001   9.038  19.028  0.00  0.00    +0.000 OA
ATOM     34  HD2 ASP A   3       9.957   8.928  18.852  0.00  0.00    +0.000 HD
ENDBRANCH  31  33
ENDBRANCH  30  31
ENDBRANCH  25  30
ENDBRANCH  23  25
ENDBRANCH   1  21
BRANCH   1  35
ATOM     35  CB  TYR A   2       2.342   5.500  17.989  0.00  0.00    +0.000 C 
BRANCH  35  36
ATOM     36  CG  TYR A   2       2.045   4.589  19.157  0.00  0.00    +0.000 A 
ATOM     37  CD1 TYR A   2       2.565   4.866  20.429  0.00  0.00    +0.000 A 
ATOM     38  CE1 TYR A   2       2.292   4.025  21.508  0.00  0.00    +0.000 A 
ATOM     39  CZ  TYR A   2       1.485   2.911  21.317  0.00  0.00    +0.000 A 
ATOM     40  CE2 TYR A   2       0.963   2.616  20.064  0.00  0.00    +0.000 A 
ATOM     41  CD2 TYR A   2       1.245   3.451  18.983  0.00  0.00    +0.000 A 
BRANCH  39  42
ATOM     42  OH  TYR A   2       1.169   2.082  22.352  0.00  0.00    +0.000 OA
ATOM     43  HH  TYR A   2       1.060   1.184  22.001  0.00  0.00    +0.000 HD
ENDBRANCH  39  42
ENDBRANCH  35  36
ENDBRANCH   1  35
TORSDOF 15
ENDMDL
MODEL 2
REMARK VINA RESULT:      -8.4      2.109      3.338
REMARK  Name = 
REMARK  15 active torsions:
REMARK  status: ('A' for Active; 'I' for Inactive)
REMARK    1  A    between atoms: N_1  and  CA_2
REMARK    2  A    between atoms: CA_2  and  CB_3
REMARK    3  A    between atoms: CA_2  and  C_13
REMARK    4  A    between atoms: CB_3  and  CG_4
REMARK    5  A    between atoms: N_15  and  CA_16
REMARK    6  A    between atoms: CA_16  and  CB_17
REMARK    7  A    between atoms: CA_16  and  C_25
REMARK    8  A    between atoms: CB_17  and  CG_18
REMARK    9  A    between atoms: CZ_21  and  OH_22
REMARK   10  A    between atoms: N_27  and  CA_28
REMARK   11  A    between atoms: CA_28  and  CB_29
REMARK   12  A    between atoms: CA_28  and  C_33
REMARK   13  A    between atoms: CB_29  and  CG_30
REMARK   14  A    between atoms: CG_30  and  OD2_32
REMARK   15  A    between atoms: C_33  and  OXT_35
REMARK                            x       y       z     vdW  Elec       q    Type
REMARK                         _______ _______ _______ _____ _____    ______ ____
ROOT
ATOM      1  CA  TYR A   2       2.581   6.799  18.971  0.00  0.00    +0.000 C 
ENDROOT
BRANCH   1   4
ATOM      2  C   TRP A   1       1.231   8.242  20.493  0.00  0.00    +0.000 C 
ATOM      3  O   TRP A   1       1.300   7.437  21.420  0.00  0.00    +0.000 OA
ATOM      4  N   TYR A   2       1.814   8.003  19.272  0.00  0.00    +0.000 N 
ATOM      5  H   TYR A   2       1.735   8.683  18.520  0.00  0.00    +0.000 HD
BRANCH   2   6
ATOM      6  CA  TRP A   1       0.550   9.623  20.602  0.00  0.00    +0.000 C 
BRANCH   6   7
ATOM      7  N   TRP A   1       1.317  10.476  21.536  0.00  0.00    +0.000 NA
ATOM      8  H1  TRP A   1       2.243  10.076  21.684  0.00  0.00    +0.000 HD
ATOM      9  H2  TRP A   1       0.843  10.472  22.442  0.00  0.00    +0.000 HD
ENDBRANCH   6   7
BRANCH   6  10
ATOM     10  CB  TRP A   1       0.433  10.191  19.175  0.00  0.00    +0.000 C 
BRANCH  10  11
ATOM     11  CG  TRP A   1      -0.840  10.921  18.903  0.00  0.00    +0.000 A 
ATOM     12  CD1 TRP A   1      -1.367  11.969  19.637  0.00  0.00    +0.000 A 
ATOM     13  NE1 TRP A   1      -2.553  12.336  19.062  0.00  0.00    +0.000 N 
ATOM     14  CE2 TRP A   1      -2.816  11.549  17.965  0.00  0.00    +0.000 A 
ATOM     15  CZ2 TRP A   1      -3.899  11.562  17.079  0.00  0.00    +0.000 A 
ATOM     16  CH2 TRP A   1      -3.896  10.627  16.040  0.00  0.00    +0.000 A 
ATOM     17  CZ3 TRP A   1      -2.855   9.719  15.893  0.00  0.00    +0.000 A 
ATOM     18  CE3 TRP A   1      -1.783   9.714  16.789  0.00  0.00    +0.000 A 
ATOM     19  CD2 TRP A   1      -1.759  10.648  17.844  0.00  0.00    +0.000 A 
ATOM     20  HE1 TRP A   1      -3.158  13.075  19.394  0.00  0.00    +0.000 HD
ENDBRANCH  10  11
ENDBRANCH   6  10
ENDBRANCH   2   6
ENDBRANCH   1   4
BRANCH   1  21
ATOM     21  C   TYR A   2       3.655   7.209  17.938  0.00  0.00    +0.000 C 
ATOM     22  O   TYR A   2       3.460   8.089  17.097  0.00  0.00    +0.000 OA
ATOM     23  N   ASP A   3       4.867   6.573  18.037  0.00  0.00    +0.000 N 
ATOM     24  H   ASP A   3       5.007   5.829  18.718  0.00  0.00    +0.000 HD
BRANCH  23  25
ATOM     25  CA  ASP A   3       5.915   6.730  17.020  0.00  0.00    +0.000 C 
BRANCH  25  26
ATOM     26  C   ASP A   3       5.632   5.660  15.957  0.00  0.00    +0.000 C 
ATOM     27  O   ASP A   3       5.113   4.583  16.231  0.00  0.00    +0.000 OA
BRANCH  26  28
ATOM     28  OXT ASP A   3       5.973   5.996  14.697  0.00  0.00    +0.000 OA
ATOM     29  HXT ASP A   3       5.282   6.509  14.208  0.00  0.00    +0.000 HD
ENDBRANCH  26  28
ENDBRANCH  25  26
BRANCH  25  30
ATOM     30  CB  ASP A   3       7.290   6.554  17.650  0.00  0.00    +0.000 C 
BRANCH  30  31
ATOM     31  CG  ASP A   3       7.282   5.397  18.606  0.00  0.00    +0.000 C 
ATOM     32  OD1 ASP A   3       6.945   5.486  19.779  0.00  0.00    +0.000 OA
BRANCH  31  33
ATOM     33  OD2 ASP A   3       7.697   4.243  18.047  0.00  0.00    +0.000 OA
ATOM     34  HD2 ASP A   3       8.243   4.349  17.243  0.00  0.00    +0.000 HD
ENDBRANCH  31  33
ENDBRANCH  30  31
ENDBRANCH  25  30
ENDBRANCH  23  25
ENDBRANCH   1  21
BRANCH   1  35
ATOM     35  CB  TYR A   2       1.696   5.626  18.514  0.00  0.00    +0.000 C 
BRANCH  35  36
ATOM     36  CG  TYR A   2       2.379   4.278  18.541  0.00  0.00    +0.000 A 
ATOM     37  CD1 TYR A   2       2.128   3.331  17.539  0.00  0.00    +0.000 A 
ATOM     38  CE1 TYR A   2       2.758   2.086  17.563  0.00  0.00    +0.000 A 
ATOM     39  CZ  TYR A   2       3.653   1.794  18.584  0.00  0.00    +0.000 A 
ATOM     40  CE2 TYR A   2       3.912   2.718  19.589  0.00  0.00    +0.000 A 
ATOM     41  CD2 TYR A   2       3.274   3.958  19.571  0.00  0.00    +0.000 A 
BRANCH  39  42
ATOM     42  OH  TYR A   2       4.312   0.602  18.626  0.00  0.00    +0.000 OA
ATOM     43  HH  TYR A   2       3.923   0.064  19.334  0.00  0.00    +0.000 HD
ENDBRANCH  39  42
ENDBRANCH  35  36
ENDBRANCH   1  35
TORSDOF 15
ENDMDL
MODEL 3
REMARK VINA RESULT:      -8.3      1.953      2.451
REMARK  Name = 
REMARK  15 active torsions:
REMARK  status: ('A' for Active; 'I' for Inactive)
REMARK    1  A    between atoms: N_1  and  CA_2
REMARK    2  A    between atoms: CA_2  and  CB_3
REMARK    3  A    between atoms: CA_2  and  C_13
REMARK    4  A    between atoms: CB_3  and  CG_4
REMARK    5  A    between atoms: N_15  and  CA_16
REMARK    6  A    between atoms: CA_16  and  CB_17
REMARK    7  A    between atoms: CA_16  and  C_25
REMARK    8  A    between atoms: CB_17  and  CG_18
REMARK    9  A    between atoms: CZ_21  and  OH_22
REMARK   10  A    between atoms: N_27  and  CA_28
REMARK   11  A    between atoms: CA_28  and  CB_29
REMARK   12  A    between atoms: CA_28  and  C_33
REMARK   13  A    between atoms: CB_29  and  CG_30
REMARK   14  A    between atoms: CG_30  and  OD2_32
REMARK   15  A    between atoms: C_33  and  OXT_35
REMARK                            x       y       z     vdW  Elec       q    Type
REMARK                         _______ _______ _______ _____ _____    ______ ____
ROOT
ATOM      1  CA  TYR A   2       3.070   6.579  18.298  0.00  0.00    +0.000 C 
ENDROOT
BRANCH   1   4
ATOM      2  C   TRP A   1       1.789   8.567  19.091  0.00  0.00    +0.000 C 
ATOM      3  O   TRP A   1       1.734   8.149  20.246  0.00  0.00    +0.000 OA
ATOM      4  N   TYR A   2       2.407   7.862  18.087  0.00  0.00    +0.000 N 
ATOM      5  H   TYR A   2       2.432   8.227  17.138  0.00  0.00    +0.000 HD
BRANCH   2   6
ATOM      6  CA  TRP A   1       1.239   9.939  18.645  0.00  0.00    +0.000 C 
BRANCH   6   7
ATOM      7  N   TRP A   1       0.317   9.751  17.504  0.00  0.00    +0.000 NA
ATOM      8  H1  TRP A   1      -0.479   9.184  17.796  0.00  0.00    +0.000 HD
ATOM      9  H2  TRP A   1       0.804   9.226  16.777  0.00  0.00    +0.000 HD
ENDBRANCH   6   7
BRANCH   6  10
ATOM     10  CB  TRP A   1       0.594  10.597  19.880  0.00  0.00    +0.000 C 
BRANCH  10  11
ATOM     11  CG  TRP A   1      -0.046  11.919  19.613  0.00  0.00    +0.000 A 
ATOM     12  CD1 TRP A   1      -1.403  12.190  19.577  0.00  0.00    +0.000 A 
ATOM     13  NE1 TRP A   1      -1.563  13.517  19.282  0.00  0.00    +0.000 N 
ATOM     14  CE2 TRP A   1      -0.338  14.122  19.122  0.00  0.00    +0.000 A 
ATOM     15  CZ2 TRP A   1      -0.016  15.448  18.817  0.00  0.00    +0.000 A 
ATOM     16  CH2 TRP A   1       1.339  15.778  18.715  0.00  0.00    +0.000 A 
ATOM     17  CZ3 TRP A   1       2.328  14.822  18.909  0.00  0.00    +0.000 A 
ATOM     18  CE3 TRP A   1       1.991  13.500  19.207  0.00  0.00    +0.000 A 
ATOM     19  CD2 TRP A   1       0.633  13.141  19.319  0.00  0.00    +0.000 A 
ATOM     20  HE1 TRP A   1      -2.451  13.989  19.187  0.00  0.00    +0.000 HD
ENDBRANCH  10  11
ENDBRANCH   6  10
ENDBRANCH   2   6
ENDBRANCH   1   4
BRANCH   1  21
ATOM     21  C   TYR A   2       4.341   6.591  17.418  0.00  0.00    +0.000 C 
ATOM     22  O   TYR A   2       4.481   7.367  16.471  0.00  0.00    +0.000 OA
ATOM     23  N   ASP A   3       5.338   5.720  17.780  0.00  0.00    +0.000 N 
ATOM     24  H   ASP A   3       5.200   5.066  18.548  0.00  0.00    +0.000 HD
BRANCH  23  25
ATOM     25  CA  ASP A   3       6.521   5.496  16.938  0.00  0.00    +0.000 C 
BRANCH  25  26
ATOM     26  C   ASP A   3       6.089   4.481  15.871  0.00  0.00    +0.000 C 
ATOM     27  O   ASP A   3       6.053   4.758  14.677  0.00  0.00    +0.000 OA
BRANCH  26  28
ATOM     28  OXT ASP A   3       5.773   3.256  16.337  0.00  0.00    +0.000 OA
ATOM     29  HXT ASP A   3       6.017   2.512  15.732  0.00  0.00    +0.000 HD
ENDBRANCH  26  28
ENDBRANCH  25  26
BRANCH  25  30
ATOM     30  CB  ASP A   3       7.676   4.975  17.782  0.00  0.00    +0.000 C 
BRANCH  30  31
ATOM     31  CG  ASP A   3       7.784   5.756  19.059  0.00  0.00    +0.000 C 
ATOM     32  OD1 ASP A   3       7.414   5.336  20.148  0.00  0.00    +0.000 OA
BRANCH  31  33
ATOM     33  OD2 ASP A   3       8.321   6.981  18.890  0.00  0.00    +0.000 OA
ATOM     34  HD2 ASP A   3       9.252   6.984  18.592  0.00  0.00    +0.000 HD
ENDBRANCH  31  33
ENDBRANCH  30  31
ENDBRANCH  25  30
ENDBRANCH  23  25
ENDBRANCH   1  21
BRANCH   1  35
ATOM     35  CB  TYR A   2       2.144   5.379  18.035  0.00  0.00    +0.000 C 
BRANCH  35  36
ATOM     36  CG  TYR A   2       1.925   4.483  19.232  0.00  0.00    +0.000 A 
ATOM     37  CD1 TYR A   2       2.508   4.789  20.470  0.00  0.00    +0.000 A 
ATOM     38  CE1 TYR A   2       2.307   3.963  21.575  0.00  0.00    +0.000 A 
ATOM     39  CZ  TYR A   2       1.508   2.834  21.446  0.00  0.00    +0.000 A 
ATOM     40  CE2 TYR A   2       0.924   2.510  20.228  0.00  0.00    +0.000 A 
ATOM     41  CD2 TYR A   2       1.134   3.331  19.120  0.00  0.00    +0.000 A 
BRANCH  39  42
ATOM     42  OH  TYR A   2       1.261   2.019  22.510  0.00  0.00    +0.000 OA
ATOM     43  HH  TYR A   2       0.845   2.548  23.210  0.00  0.00    +0.000 HD
ENDBRANCH  39  42
ENDBRANCH  35  36
ENDBRANCH   1  35
TORSDOF 15
ENDMDL
MODEL 4
REMARK VINA RESULT:      -8.2      2.386      5.300
REMARK  Name = 
REMARK  15 active torsions:
REMARK  status: ('A' for Active; 'I' for Inactive)
REMARK    1  A    between atoms: N_1  and  CA_2
REMARK    2  A    between atoms: CA_2  and  CB_3
REMARK    3  A    between atoms: CA_2  and  C_13
REMARK    4  A    between atoms: CB_3  and  CG_4
REMARK    5  A    between atoms: N_15  and  CA_16
REMARK    6  A    between atoms: CA_16  and  CB_17
REMARK    7  A    between atoms: CA_16  and  C_25
REMARK    8  A    between atoms: CB_17  and  CG_18
REMARK    9  A    between atoms: CZ_21  and  OH_22
REMARK   10  A    between atoms: N_27  and  CA_28
REMARK   11  A    between atoms: CA_28  and  CB_29
REMARK   12  A    between atoms: CA_28  and  C_33
REMARK   13  A    between atoms: CB_29  and  CG_30
REMARK   14  A    between atoms: CG_30  and  OD2_32
REMARK   15  A    between atoms: C_33  and  OXT_35
REMARK                            x       y       z     vdW  Elec       q    Type
REMARK                         _______ _______ _______ _____ _____    ______ ____
ROOT
ATOM      1  CA  TYR A   2       2.799   6.668  18.248  0.00  0.00    +0.000 C 
ENDROOT
BRANCH   1   4
ATOM      2  C   TRP A   1       1.620   8.832  18.633  0.00  0.00    +0.000 C 
ATOM      3  O   TRP A   1       1.947   9.277  17.534  0.00  0.00    +0.000 OA
ATOM      4  N   TYR A   2       2.002   7.583  19.059  0.00  0.00    +0.000 N 
ATOM      5  H   TYR A   2       1.723   7.242  19.976  0.00  0.00    +0.000 HD
BRANCH   2   6
ATOM      6  CA  TRP A   1       0.704   9.580  19.626  0.00  0.00    +0.000 C 
BRANCH   6   7
ATOM      7  N   TRP A   1       1.261   9.464  20.991  0.00  0.00    +0.000 NA
ATOM      8  H1  TRP A   1       0.508   9.526  21.675  0.00  0.00    +0.000 HD
ATOM      9  H2  TRP A   1       1.879  10.260  21.157  0.00  0.00    +0.000 HD
ENDBRANCH   6   7
BRANCH   6  10
ATOM     10  CB  TRP A   1       0.564  11.028  19.119  0.00  0.00    +0.000 C 
BRANCH  10  11
ATOM     11  CG  TRP A   1      -0.845  11.499  18.976  0.00  0.00    +0.000 A 
ATOM     12  CD1 TRP A   1      -1.477  12.463  19.742  0.00  0.00    +0.000 A 
ATOM     13  NE1 TRP A   1      -2.766  12.581  19.296  0.00  0.00    +0.000 N 
ATOM     14  CE2 TRP A   1      -2.992  11.714  18.253  0.00  0.00    +0.000 A 
ATOM     15  CZ2 TRP A   1      -4.147  11.490  17.496  0.00  0.00    +0.000 A 
ATOM     16  CH2 TRP A   1      -4.080  10.528  16.483  0.00  0.00    +0.000 A 
ATOM     17  CZ3 TRP A   1      -2.909   9.821  16.240  0.00  0.00    +0.000 A 
ATOM     18  CE3 TRP A   1      -1.766  10.051  17.008  0.00  0.00    +0.000 A 
ATOM     19  CD2 TRP A   1      -1.804  11.018  18.034  0.00  0.00    +0.000 A 
ATOM     20  HE1 TRP A   1      -3.459  13.210  19.678  0.00  0.00    +0.000 HD
ENDBRANCH  10  11
ENDBRANCH   6  10
ENDBRANCH   2   6
ENDBRANCH   1   4
BRANCH   1  21
ATOM     21  C   TYR A   2       2.169   5.266  18.420  0.00  0.00    +0.000 C 
ATOM     22  O   TYR A   2       1.352   4.807  17.619  0.00  0.00    +0.000 OA
ATOM     23  N   ASP A   3       2.610   4.530  19.491  0.00  0.00    +0.000 N 
ATOM     24  H   ASP A   3       3.265   4.929  20.159  0.00  0.00    +0.000 HD
BRANCH  23  25
ATOM     25  CA  ASP A   3       1.976   3.262  19.878  0.00  0.00    +0.000 C 
BRANCH  25  26
ATOM     26  C   ASP A   3       1.933   3.268  21.412  0.00  0.00    +0.000 C 
ATOM     27  O   ASP A   3       1.448   2.346  22.059  0.00  0.00    +0.000 OA
BRANCH  26  28
ATOM     28  OXT ASP A   3       2.485   4.349  21.999  0.00  0.00    +0.000 OA
ATOM     29  HXT ASP A   3       2.296   5.206  21.542  0.00  0.00    +0.000 HD
ENDBRANCH  26  28
ENDBRANCH  25  26
BRANCH  25  30
ATOM     30  CB  ASP A   3       2.779   2.086  19.337  0.00  0.00    +0.000 C 
BRANCH  30  31
ATOM     31  CG  ASP A   3       4.170   2.523  18.981  0.00  0.00    +0.000 C 
ATOM     32  OD1 ASP A   3       5.040   2.765  19.807  0.00  0.00    +0.000 OA
BRANCH  31  33
ATOM     33  OD2 ASP A   3       4.367   2.636  17.652  0.00  0.00    +0.000 OA
ATOM     34  HD2 ASP A   3       3.743   2.125  17.099  0.00  0.00    +0.000 HD
ENDBRANCH  31  33
ENDBRANCH  30  31
ENDBRANCH  25  30
ENDBRANCH  23  25
ENDBRANCH   1  21
BRANCH   1  35
ATOM     35  CB  TYR A   2       4.298   6.721  18.590  0.00  0.00    +0.000 C 
BRANCH  35  36
ATOM     36  CG  TYR A   2       5.203   6.141  17.528  0.00  0.00    +0.000 A 
ATOM     37  CD1 TYR A   2       6.378   5.464  17.882  0.00  0.00    +0.000 A 
ATOM     38  CE1 TYR A   2       7.215   4.929  16.902  0.00  0.00    +0.000 A 
ATOM     39  CZ  TYR A   2       6.867   5.060  15.564  0.00  0.00    +0.000 A 
ATOM     40  CE2 TYR A   2       5.710   5.731  15.191  0.00  0.00    +0.000 A 
ATOM     41  CD2 TYR A   2       4.879   6.275  16.170  0.00  0.00    +0.000 A 
BRANCH  39  42
ATOM     42  OH  TYR A   2       7.641   4.524  14.578  0.00  0.00    +0.000 OA
ATOM     43  HH  TYR A   2       7.322   4.859  13.724  0.00  0.00    +0.000 HD
ENDBRANCH  39  42
ENDBRANCH  35  36
ENDBRANCH   1  35
TORSDOF 15
ENDMDL
MODEL 5
REMARK VINA RESULT:      -8.2      1.286      1.471
REMARK  Name = 
REMARK  15 active torsions:
REMARK  status: ('A' for Active; 'I' for Inactive)
REMARK    1  A    between atoms: N_1  and  CA_2
REMARK    2  A    between atoms: CA_2  and  CB_3
REMARK    3  A    between atoms: CA_2  and  C_13
REMARK    4  A    between atoms: CB_3  and  CG_4
REMARK    5  A    between atoms: N_15  and  CA_16
REMARK    6  A    between atoms: CA_16  and  CB_17
REMARK    7  A    between atoms: CA_16  and  C_25
REMARK    8  A    between atoms: CB_17  and  CG_18
REMARK    9  A    between atoms: CZ_21  and  OH_22
REMARK   10  A    between atoms: N_27  and  CA_28
REMARK   11  A    between atoms: CA_28  and  CB_29
REMARK   12  A    between atoms: CA_28  and  C_33
REMARK   13  A    between atoms: CB_29  and  CG_30
REMARK   14  A    between atoms: CG_30  and  OD2_32
REMARK   15  A    between atoms: C_33  and  OXT_35
REMARK                            x       y       z     vdW  Elec       q    Type
REMARK                         _______ _______ _______ _____ _____    ______ ____
ROOT
ATOM      1  CA  TYR A   2       3.056   6.778  18.381  0.00  0.00    +0.000 C 
ENDROOT
BRANCH   1   4
ATOM      2  C   TRP A   1       1.737   8.766  19.107  0.00  0.00    +0.000 C 
ATOM      3  O   TRP A   1       1.558   8.313  20.236  0.00  0.00    +0.000 OA
ATOM      4  N   TYR A   2       2.440   8.080  18.147  0.00  0.00    +0.000 N 
ATOM      5  H   TYR A   2       2.566   8.475  17.218  0.00  0.00    +0.000 HD
BRANCH   2   6
ATOM      6  CA  TRP A   1       1.257  10.162  18.655  0.00  0.00    +0.000 C 
BRANCH   6   7
ATOM      7  N   TRP A   1       2.059  10.604  17.493  0.00  0.00    +0.000 NA
ATOM      8  H1  TRP A   1       2.681  11.362  17.774  0.00  0.00    +0.000 HD
ATOM      9  H2  TRP A   1       1.425  10.987  16.789  0.00  0.00    +0.000 HD
ENDBRANCH   6   7
BRANCH   6  10
ATOM     10  CB  TRP A   1      -0.255  10.061  18.380  0.00  0.00    +0.000 C 
BRANCH  10  11
ATOM     11  CG  TRP A   1      -1.078  11.103  19.062  0.00  0.00    +0.000 A 
ATOM     12  CD1 TRP A   1      -1.864  12.067  18.452  0.00  0.00    +0.000 A 
ATOM     13  NE1 TRP A   1      -2.433  12.832  19.434  0.00  0.00    +0.000 N 
ATOM     14  CE2 TRP A   1      -2.037  12.391  20.675  0.00  0.00    +0.000 A 
ATOM     15  CZ2 TRP A   1      -2.364  12.863  21.950  0.00  0.00    +0.000 A 
ATOM     16  CH2 TRP A   1      -1.799  12.205  23.048  0.00  0.00    +0.000 A 
ATOM     17  CZ3 TRP A   1      -0.945  11.123  22.875  0.00  0.00    +0.000 A 
ATOM     18  CE3 TRP A   1      -0.624  10.667  21.595  0.00  0.00    +0.000 A 
ATOM     19  CD2 TRP A   1      -1.182  11.309  20.471  0.00  0.00    +0.000 A 
ATOM     20  HE1 TRP A   1      -3.053  13.616  19.276  0.00  0.00    +0.000 HD
ENDBRANCH  10  11
ENDBRANCH   6  10
ENDBRANCH   2   6
ENDBRANCH   1   4
BRANCH   1  21
ATOM     21  C   TYR A   2       4.341   6.739  17.522  0.00  0.00    +0.000 C 
ATOM     22  O   TYR A   2       4.341   7.020  16.321  0.00  0.00    +0.000 OA
ATOM     23  N   ASP A   3       5.503   6.424  18.181  0.00  0.00    +0.000 N 
ATOM     24  H   ASP A   3       5.486   6.169  19.167  0.00  0.00    +0.000 HD
BRANCH  23  25
ATOM     25  CA  ASP A   3       6.762   6.177  17.466  0.00  0.00    +0.000 C 
BRANCH  25  26
ATOM     26  C   ASP A   3       6.834   4.658  17.258  0.00  0.00    +0.000 C 
ATOM     27  O   ASP A   3       6.325   4.103  16.290  0.00  0.00    +0.000 OA
BRANCH  26  28
ATOM     28  OXT ASP A   3       7.516   3.980  18.202  0.00  0.00    +0.000 OA
ATOM     29  HXT ASP A   3       6.989   3.758  19.009  0.00  0.00    +0.000 HD
ENDBRANCH  26  28
ENDBRANCH  25  26
BRANCH  25  30
ATOM     30  CB  ASP A   3       7.939   6.694  18.282  0.00  0.00    +0.000 C 
BRANCH  30  31
ATOM     31  CG  ASP A   3       8.074   8.181  18.120  0.00  0.00    +0.000 C 
ATOM     32  OD1 ASP A   3       7.499   8.826  17.253  0.00  0.00    +0.000 OA
BRANCH  31  33
ATOM     33  OD2 ASP A   3       8.905   8.740  19.021  0.00  0.00    +0.000 OA
ATOM     34  HD2 ASP A   3       9.375   9.538  18.707  0.00  0.00    +0.000 HD
ENDBRANCH  31  33
ENDBRANCH  30  31
ENDBRANCH  25  30
ENDBRANCH  23  25
ENDBRANCH   1  21
BRANCH   1  35
ATOM     35  CB  TYR A   2       2.095   5.607  18.112  0.00  0.00    +0.000 C 
BRANCH  35  36
ATOM     36  CG  TYR A   2       2.709   4.238  18.297  0.00  0.00    +0.000 A 
ATOM     37  CD1 TYR A   2       3.119   3.805  19.566  0.00  0.00    +0.000 A 
ATOM     38  CE1 TYR A   2       3.687   2.543  19.737  0.00  0.00    +0.000 A 
ATOM     39  CZ  TYR A   2       3.831   1.705  18.639  0.00  0.00    +0.000 A 
ATOM     40  CE2 TYR A   2       3.435   2.116  17.372  0.00  0.00    +0.000 A 
ATOM     41  CD2 TYR A   2       2.877   3.383  17.199  0.00  0.00    +0.000 A 
BRANCH  39  42
ATOM     42  OH  TYR A   2       4.351   0.452  18.770  0.00  0.00    +0.000 OA
ATOM     43  HH  TYR A   2       4.184   0.146  19.676  0.00  0.00    +0.000 HD
ENDBRANCH  39  42
ENDBRANCH  35  36
ENDBRANCH   1  35
TORSDOF 15
ENDMDL
MODEL 6
REMARK VINA RESULT:      -8.2      1.558      3.054
REMARK  Name = 
REMARK  15 active torsions:
REMARK  status: ('A' for Active; 'I' for Inactive)
REMARK    1  A    between atoms: N_1  and  CA_2
REMARK    2  A    between atoms: CA_2  and  CB_3
REMARK    3  A    between atoms: CA_2  and  C_13
REMARK    4  A    between atoms: CB_3  and  CG_4
REMARK    5  A    between atoms: N_15  and  CA_16
REMARK    6  A    between atoms: CA_16  and  CB_17
REMARK    7  A    between atoms: CA_16  and  C_25
REMARK    8  A    between atoms: CB_17  and  CG_18
REMARK    9  A    between atoms: CZ_21  and  OH_22
REMARK   10  A    between atoms: N_27  and  CA_28
REMARK   11  A    between atoms: CA_28  and  CB_29
REMARK   12  A    between atoms: CA_28  and  C_33
REMARK   13  A    between atoms: CB_29  and  CG_30
REMARK   14  A    between atoms: CG_30  and  OD2_32
REMARK   15  A    between atoms: C_33  and  OXT_35
REMARK                            x       y       z     vdW  Elec       q    Type
REMARK                         _______ _______ _______ _____ _____    ______ ____
ROOT
ATOM      1  CA  TYR A   2       3.076   6.629  18.388  0.00  0.00    +0.000 C 
ENDROOT
BRANCH   1   4
ATOM      2  C   TRP A   1       1.754   8.651  19.007  0.00  0.00    +0.000 C 
ATOM      3  O   TRP A   1       1.631   8.290  20.176  0.00  0.00    +0.000 OA
ATOM      4  N   TYR A   2       2.428   7.899  18.076  0.00  0.00    +0.000 N 
ATOM      5  H   TYR A   2       2.508   8.218  17.114  0.00  0.00    +0.000 HD
BRANCH   2   6
ATOM      6  CA  TRP A   1       1.231   9.999  18.464  0.00  0.00    +0.000 C 
BRANCH   6   7
ATOM      7  N   TRP A   1       2.194  10.538  17.480  0.00  0.00    +0.000 NA
ATOM      8  H1  TRP A   1       3.011   9.930  17.431  0.00  0.00    +0.000 HD
ATOM      9  H2  TRP A   1       2.521  11.448  17.811  0.00  0.00    +0.000 HD
ENDBRANCH   6   7
BRANCH   6  10
ATOM     10  CB  TRP A   1      -0.180   9.749  17.899  0.00  0.00    +0.000 C 
BRANCH  10  11
ATOM     11  CG  TRP A   1      -1.243  10.618  18.486  0.00  0.00    +0.000 A 
ATOM     12  CD1 TRP A   1      -1.195  11.280  19.701  0.00  0.00    +0.000 A 
ATOM     13  NE1 TRP A   1      -2.378  11.948  19.867  0.00  0.00    +0.000 N 
ATOM     14  CE2 TRP A   1      -3.202  11.736  18.787  0.00  0.00    +0.000 A 
ATOM     15  CZ2 TRP A   1      -4.491  12.213  18.524  0.00  0.00    +0.000 A 
ATOM     16  CH2 TRP A   1      -5.092  11.824  17.323  0.00  0.00    +0.000 A 
ATOM     17  CZ3 TRP A   1      -4.433  10.994  16.425  0.00  0.00    +0.000 A 
ATOM     18  CE3 TRP A   1      -3.148  10.521  16.704  0.00  0.00    +0.000 A 
ATOM     19  CD2 TRP A   1      -2.517  10.901  17.906  0.00  0.00    +0.000 A 
ATOM     20  HE1 TRP A   1      -2.620  12.512  20.670  0.00  0.00    +0.000 HD
ENDBRANCH  10  11
ENDBRANCH   6  10
ENDBRANCH   2   6
ENDBRANCH   1   4
BRANCH   1  21
ATOM     21  C   TYR A   2       4.430   6.632  17.642  0.00  0.00    +0.000 C 
ATOM     22  O   TYR A   2       4.689   7.440  16.747  0.00  0.00    +0.000 OA
ATOM     23  N   ASP A   3       5.359   5.714  18.065  0.00  0.00    +0.000 N 
ATOM     24  H   ASP A   3       5.124   5.036  18.787  0.00  0.00    +0.000 HD
BRANCH  23  25
ATOM     25  CA  ASP A   3       6.614   5.484  17.338  0.00  0.00    +0.000 C 
BRANCH  25  26
ATOM     26  C   ASP A   3       7.551   6.628  17.747  0.00  0.00    +0.000 C 
ATOM     27  O   ASP A   3       8.137   6.645  18.823  0.00  0.00    +0.000 OA
BRANCH  26  28
ATOM     28  OXT ASP A   3       7.701   7.604  16.828  0.00  0.00    +0.000 OA
ATOM     29  HXT ASP A   3       7.216   7.447  15.980  0.00  0.00    +0.000 HD
ENDBRANCH  26  28
ENDBRANCH  25  26
BRANCH  25  30
ATOM     30  CB  ASP A   3       6.357   5.469  15.837  0.00  0.00    +0.000 C 
BRANCH  30  31
ATOM     31  CG  ASP A   3       6.129   4.064  15.360  0.00  0.00    +0.000 C 
ATOM     32  OD1 ASP A   3       6.223   3.719  14.189  0.00  0.00    +0.000 OA
BRANCH  31  33
ATOM     33  OD2 ASP A   3       5.795   3.214  16.351  0.00  0.00    +0.000 OA
ATOM     34  HD2 ASP A   3       6.544   2.916  16.906  0.00  0.00    +0.000 HD
ENDBRANCH  31  33
ENDBRANCH  30  31
ENDBRANCH  25  30
ENDBRANCH  23  25
ENDBRANCH   1  21
BRANCH   1  35
ATOM     35  CB  TYR A   2       2.191   5.413  18.064  0.00  0.00    +0.000 C 
BRANCH  35  36
ATOM     36  CG  TYR A   2       1.940   4.492  19.236  0.00  0.00    +0.000 A 
ATOM     37  CD1 TYR A   2       2.461   4.790  20.503  0.00  0.00    +0.000 A 
ATOM     38  CE1 TYR A   2       2.231   3.940  21.585  0.00  0.00    +0.000 A 
ATOM     39  CZ  TYR A   2       1.464   2.797  21.402  0.00  0.00    +0.000 A 
ATOM     40  CE2 TYR A   2       0.942   2.480  20.154  0.00  0.00    +0.000 A 
ATOM     41  CD2 TYR A   2       1.182   3.325  19.070  0.00  0.00    +0.000 A 
BRANCH  39  42
ATOM     42  OH  TYR A   2       1.189   1.958  22.441  0.00  0.00    +0.000 OA
ATOM     43  HH  TYR A   2       2.006   1.825  22.949  0.00  0.00    +0.000 HD
ENDBRANCH  39  42
ENDBRANCH  35  36
ENDBRANCH   1  35
TORSDOF 15
ENDMDL
MODEL 7
REMARK VINA RESULT:      -8.2      2.076      2.691
REMARK  Name = 
REMARK  15 active torsions:
REMARK  status: ('A' for Active; 'I' for Inactive)
REMARK    1  A    between atoms: N_1  and  CA_2
REMARK    2  A    between atoms: CA_2  and  CB_3
REMARK    3  A    between atoms: CA_2  and  C_13
REMARK    4  A    between atoms: CB_3  and  CG_4
REMARK    5  A    between atoms: N_15  and  CA_16
REMARK    6  A    between atoms: CA_16  and  CB_17
REMARK    7  A    between atoms: CA_16  and  C_25
REMARK    8  A    between atoms: CB_17  and  CG_18
REMARK    9  A    between atoms: CZ_21  and  OH_22
REMARK   10  A    between atoms: N_27  and  CA_28
REMARK   11  A    between atoms: CA_28  and  CB_29
REMARK   12  A    between atoms: CA_28  and  C_33
REMARK   13  A    between atoms: CB_29  and  CG_30
REMARK   14  A    between atoms: CG_30  and  OD2_32
REMARK   15  A    between atoms: C_33  and  OXT_35
REMARK                            x       y       z     vdW  Elec       q    Type
REMARK                         _______ _______ _______ _____ _____    ______ ____
ROOT
ATOM      1  CA  TYR A   2       3.156   6.603  18.339  0.00  0.00    +0.000 C 
ENDROOT
BRANCH   1   4
ATOM      2  C   TRP A   1       1.839   8.614  19.004  0.00  0.00    +0.000 C 
ATOM      3  O   TRP A   1       1.647   8.189  20.143  0.00  0.00    +0.000 OA
ATOM      4  N   TYR A   2       2.548   7.902  18.068  0.00  0.00    +0.000 N 
ATOM      5  H   TYR A   2       2.686   8.274  17.131  0.00  0.00    +0.000 HD
BRANCH   2   6
ATOM      6  CA  TRP A   1       1.371  10.001  18.515  0.00  0.00    +0.000 C 
BRANCH   6   7
ATOM      7  N   TRP A   1       0.307   9.831  17.501  0.00  0.00    +0.000 NA
ATOM      8  H1  TRP A   1      -0.405  10.550  17.627  0.00  0.00    +0.000 HD
ATOM      9  H2  TRP A   1      -0.150   8.931  17.659  0.00  0.00    +0.000 HD
ENDBRANCH   6   7
BRANCH   6  10
ATOM     10  CB  TRP A   1       0.940  10.804  19.757  0.00  0.00    +0.000 C 
BRANCH  10  11
ATOM     11  CG  TRP A   1       0.351  12.142  19.454  0.00  0.00    +0.000 A 
ATOM     12  CD1 TRP A   1      -0.996  12.452  19.362  0.00  0.00    +0.000 A 
ATOM     13  NE1 TRP A   1      -1.105  13.780  19.050  0.00  0.00    +0.000 N 
ATOM     14  CE2 TRP A   1       0.142  14.348  18.934  0.00  0.00    +0.000 A 
ATOM     15  CZ2 TRP A   1       0.514  15.662  18.632  0.00  0.00    +0.000 A 
ATOM     16  CH2 TRP A   1       1.881  15.952  18.582  0.00  0.00    +0.000 A 
ATOM     17  CZ3 TRP A   1       2.834  14.970  18.822  0.00  0.00    +0.000 A 
ATOM     18  CE3 TRP A   1       2.447  13.660  19.117  0.00  0.00    +0.000 A 
ATOM     19  CD2 TRP A   1       1.075  13.341  19.178  0.00  0.00    +0.000 A 
ATOM     20  HE1 TRP A   1      -1.975  14.277  18.916  0.00  0.00    +0.000 HD
ENDBRANCH  10  11
ENDBRANCH   6  10
ENDBRANCH   2   6
ENDBRANCH   1   4
BRANCH   1  21
ATOM     21  C   TYR A   2       4.480   6.562  17.541  0.00  0.00    +0.000 C 
ATOM     22  O   TYR A   2       4.774   7.420  16.706  0.00  0.00    +0.000 OA
ATOM     23  N   ASP A   3       5.343   5.541  17.849  0.00  0.00    +0.000 N 
ATOM     24  H   ASP A   3       5.077   4.824  18.521  0.00  0.00    +0.000 HD
BRANCH  23  25
ATOM     25  CA  ASP A   3       6.549   5.274  17.055  0.00  0.00    +0.000 C 
BRANCH  25  26
ATOM     26  C   ASP A   3       6.163   4.164  16.068  0.00  0.00    +0.000 C 
ATOM     27  O   ASP A   3       6.588   4.129  14.918  0.00  0.00    +0.000 OA
BRANCH  26  28
ATOM     28  OXT ASP A   3       5.341   3.216  16.561  0.00  0.00    +0.000 OA
ATOM     29  HXT ASP A   3       4.550   3.025  15.997  0.00  0.00    +0.000 HD
ENDBRANCH  26  28
ENDBRANCH  25  26
BRANCH  25  30
ATOM     30  CB  ASP A   3       7.695   4.852  17.964  0.00  0.00    +0.000 C 
BRANCH  30  31
ATOM     31  CG  ASP A   3       7.993   5.930  18.965  0.00  0.00    +0.000 C 
ATOM     32  OD1 ASP A   3       8.147   7.108  18.669  0.00  0.00    +0.000 OA
BRANCH  31  33
ATOM     33  OD2 ASP A   3       8.088   5.472  20.228  0.00  0.00    +0.000 OA
ATOM     34  HD2 ASP A   3       7.399   4.826  20.484  0.00  0.00    +0.000 HD
ENDBRANCH  31  33
ENDBRANCH  30  31
ENDBRANCH  25  30
ENDBRANCH  23  25
ENDBRANCH   1  21
BRANCH   1  35
ATOM     35  CB  TYR A   2       2.211   5.428  18.034  0.00  0.00    +0.000 C 
BRANCH  35  36
ATOM     36  CG  TYR A   2       1.945   4.518  19.211  0.00  0.00    +0.000 A 
ATOM     37  CD1 TYR A   2       1.197   3.343  19.050  0.00  0.00    +0.000 A 
ATOM     38  CE1 TYR A   2       0.950   2.503  20.135  0.00  0.00    +0.000 A 
ATOM     39  CZ  TYR A   2       1.466   2.831  21.383  0.00  0.00    +0.000 A 
ATOM     40  CE2 TYR A   2       2.206   3.992  21.565  0.00  0.00    +0.000 A 
ATOM     41  CD2 TYR A   2       2.443   4.838  20.481  0.00  0.00    +0.000 A 
BRANCH  39  42
ATOM     42  OH  TYR A   2       1.274   2.020  22.461  0.00  0.00    +0.000 OA
ATOM     43  HH  TYR A   2       0.345   2.092  22.735  0.00  0.00    +0.000 HD
ENDBRANCH  39  42
ENDBRANCH  35  36
ENDBRANCH   1  35
TORSDOF 15
ENDMDL
MODEL 8
REMARK VINA RESULT:      -8.1      1.718      2.639
REMARK  Name = 
REMARK  15 active torsions:
REMARK  status: ('A' for Active; 'I' for Inactive)
REMARK    1  A    between atoms: N_1  and  CA_2
REMARK    2  A    between atoms: CA_2  and  CB_3
REMARK    3  A    between atoms: CA_2  and  C_13
REMARK    4  A    between atoms: CB_3  and  CG_4
REMARK    5  A    between atoms: N_15  and  CA_16
REMARK    6  A    between atoms: CA_16  and  CB_17
REMARK    7  A    between atoms: CA_16  and  C_25
REMARK    8  A    between atoms: CB_17  and  CG_18
REMARK    9  A    between atoms: CZ_21  and  OH_22
REMARK   10  A    between atoms: N_27  and  CA_28
REMARK   11  A    between atoms: CA_28  and  CB_29
REMARK   12  A    between atoms: CA_28  and  C_33
REMARK   13  A    between atoms: CB_29  and  CG_30
REMARK   14  A    between atoms: CG_30  and  OD2_32
REMARK   15  A    between atoms: C_33  and  OXT_35
REMARK                            x       y       z     vdW  Elec       q    Type
REMARK                         _______ _______ _______ _____ _____    ______ ____
ROOT
ATOM      1  CA  TYR A   2       3.066   6.731  18.289  0.00  0.00    +0.000 C 
ENDROOT
BRANCH   1   4
ATOM      2  C   TRP A   1       1.756   8.731  18.999  0.00  0.00    +0.000 C 
ATOM      3  O   TRP A   1       1.647   8.326  20.156  0.00  0.00    +0.000 OA
ATOM      4  N   TYR A   2       2.417   8.012  18.033  0.00  0.00    +0.000 N 
ATOM      5  H   TYR A   2       2.486   8.367  17.082  0.00  0.00    +0.000 HD
BRANCH   2   6
ATOM      6  CA  TRP A   1       1.231  10.099  18.514  0.00  0.00    +0.000 C 
BRANCH   6   7
ATOM      7  N   TRP A   1       2.215  10.704  17.591  0.00  0.00    +0.000 NA
ATOM      8  H1  TRP A   1       3.019  11.042  18.121  0.00  0.00    +0.000 HD
ATOM      9  H2  TRP A   1       1.787  11.520  17.150  0.00  0.00    +0.000 HD
ENDBRANCH   6   7
BRANCH   6  10
ATOM     10  CB  TRP A   1      -0.158   9.862  17.892  0.00  0.00    +0.000 C 
BRANCH  10  11
ATOM     11  CG  TRP A   1      -1.250  10.693  18.481  0.00  0.00    +0.000 A 
ATOM     12  CD1 TRP A   1      -1.230  11.337  19.706  0.00  0.00    +0.000 A 
ATOM     13  NE1 TRP A   1      -2.432  11.970  19.871  0.00  0.00    +0.000 N 
ATOM     14  CE2 TRP A   1      -3.241  11.754  18.780  0.00  0.00    +0.000 A 
ATOM     15  CZ2 TRP A   1      -4.539  12.200  18.512  0.00  0.00    +0.000 A 
ATOM     16  CH2 TRP A   1      -5.118  11.814  17.299  0.00  0.00    +0.000 A 
ATOM     17  CZ3 TRP A   1      -4.429  11.016  16.395  0.00  0.00    +0.000 A 
ATOM     18  CE3 TRP A   1      -3.135  10.573  16.679  0.00  0.00    +0.000 A 
ATOM     19  CD2 TRP A   1      -2.525  10.951  17.893  0.00  0.00    +0.000 A 
ATOM     20  HE1 TRP A   1      -2.697  12.516  20.680  0.00  0.00    +0.000 HD
ENDBRANCH  10  11
ENDBRANCH   6  10
ENDBRANCH   2   6
ENDBRANCH   1   4
BRANCH   1  21
ATOM     21  C   TYR A   2       4.370   6.724  17.459  0.00  0.00    +0.000 C 
ATOM     22  O   TYR A   2       4.387   6.987  16.254  0.00  0.00    +0.000 OA
ATOM     23  N   ASP A   3       5.527   6.460  18.148  0.00  0.00    +0.000 N 
ATOM     24  H   ASP A   3       5.497   6.220  19.137  0.00  0.00    +0.000 HD
BRANCH  23  25
ATOM     25  CA  ASP A   3       6.810   6.248  17.465  0.00  0.00    +0.000 C 
BRANCH  25  26
ATOM     26  C   ASP A   3       6.922   4.733  17.249  0.00  0.00    +0.000 C 
ATOM     27  O   ASP A   3       6.829   4.218  16.140  0.00  0.00    +0.000 OA
BRANCH  26  28
ATOM     28  OXT ASP A   3       7.154   4.008  18.362  0.00  0.00    +0.000 OA
ATOM     29  HXT ASP A   3       8.100   3.744  18.490  0.00  0.00    +0.000 HD
ENDBRANCH  26  28
ENDBRANCH  25  26
BRANCH  25  30
ATOM     30  CB  ASP A   3       7.953   6.787  18.314  0.00  0.00    +0.000 C 
BRANCH  30  31
ATOM     31  CG  ASP A   3       8.102   8.266  18.111  0.00  0.00    +0.000 C 
ATOM     32  OD1 ASP A   3       8.849   8.972  18.775  0.00  0.00    +0.000 OA
BRANCH  31  33
ATOM     33  OD2 ASP A   3       7.318   8.750  17.127  0.00  0.00    +0.000 OA
ATOM     34  HD2 ASP A   3       6.487   9.167  17.432  0.00  0.00    +0.000 HD
ENDBRANCH  31  33
ENDBRANCH  30  31
ENDBRANCH  25  30
ENDBRANCH  23  25
ENDBRANCH   1  21
BRANCH   1  35
ATOM     35  CB  TYR A   2       2.145   5.530  18.007  0.00  0.00    +0.000 C 
BRANCH  35  36
ATOM     36  CG  TYR A   2       2.780   4.182  18.260  0.00  0.00    +0.000 A 
ATOM     37  CD1 TYR A   2       3.510   3.945  19.433  0.00  0.00    +0.000 A 
ATOM     38  CE1 TYR A   2       4.097   2.701  19.666  0.00  0.00    +0.000 A 
ATOM     39  CZ  TYR A   2       3.941   1.687  18.730  0.00  0.00    +0.000 A 
ATOM     40  CE2 TYR A   2       3.226   1.902  17.559  0.00  0.00    +0.000 A 
ATOM     41  CD2 TYR A   2       2.648   3.149  17.321  0.00  0.00    +0.000 A 
BRANCH  39  42
ATOM     42  OH  TYR A   2       4.473   0.449  18.936  0.00  0.00    +0.000 OA
ATOM     43  HH  TYR A   2       4.037   0.055  19.709  0.00  0.00    +0.000 HD
ENDBRANCH  39  42
ENDBRANCH  35  36
ENDBRANCH   1  35
TORSDOF 15
ENDMDL
MODEL 9
REMARK VINA RESULT:      -8.0      1.605      2.788
REMARK  Name = 
REMARK  15 active torsions:
REMARK  status: ('A' for Active; 'I' for Inactive)
REMARK    1  A    between atoms: N_1  and  CA_2
REMARK    2  A    between atoms: CA_2  and  CB_3
REMARK    3  A    between atoms: CA_2  and  C_13
REMARK    4  A    between atoms: CB_3  and  CG_4
REMARK    5  A    between atoms: N_15  and  CA_16
REMARK    6  A    between atoms: CA_16  and  CB_17
REMARK    7  A    between atoms: CA_16  and  C_25
REMARK    8  A    between atoms: CB_17  and  CG_18
REMARK    9  A    between atoms: CZ_21  and  OH_22
REMARK   10  A    between atoms: N_27  and  CA_28
REMARK   11  A    between atoms: CA_28  and  CB_29
REMARK   12  A    between atoms: CA_28  and  C_33
REMARK   13  A    between atoms: CB_29  and  CG_30
REMARK   14  A    between atoms: CG_30  and  OD2_32
REMARK   15  A    between atoms: C_33  and  OXT_35
REMARK                            x       y       z     vdW  Elec       q    Type
REMARK                         _______ _______ _______ _____ _____    ______ ____
ROOT
ATOM      1  CA  TYR A   2       2.969   6.458  18.290  0.00  0.00    +0.000 C 
ENDROOT
BRANCH   1   4
ATOM      2  C   TRP A   1       1.812   8.580  18.909  0.00  0.00    +0.000 C 
ATOM      3  O   TRP A   1       1.618   8.210  20.066  0.00  0.00    +0.000 OA
ATOM      4  N   TYR A   2       2.447   7.787  17.984  0.00  0.00    +0.000 N 
ATOM      5  H   TYR A   2       2.587   8.114  17.032  0.00  0.00    +0.000 HD
BRANCH   2   6
ATOM      6  CA  TRP A   1       1.430   9.978  18.378  0.00  0.00    +0.000 C 
BRANCH   6   7
ATOM      7  N   TRP A   1       2.393  10.387  17.333  0.00  0.00    +0.000 NA
ATOM      8  H1  TRP A   1       2.120   9.982  16.438  0.00  0.00    +0.000 HD
ATOM      9  H2  TRP A   1       3.309   9.999  17.567  0.00  0.00    +0.000 HD
ENDBRANCH   6   7
BRANCH   6  10
ATOM     10  CB  TRP A   1      -0.032   9.903  17.899  0.00  0.00    +0.000 C 
BRANCH  10  11
ATOM     11  CG  TRP A   1      -0.978  10.770  18.661  0.00  0.00    +0.000 A 
ATOM     12  CD1 TRP A   1      -0.706  11.470  19.824  0.00  0.00    +0.000 A 
ATOM     13  NE1 TRP A   1      -1.848  12.120  20.205  0.00  0.00    +0.000 N 
ATOM     14  CE2 TRP A   1      -2.865  11.860  19.317  0.00  0.00    +0.000 A 
ATOM     15  CZ2 TRP A   1      -4.192  12.304  19.304  0.00  0.00    +0.000 A 
ATOM     16  CH2 TRP A   1      -5.010  11.866  18.257  0.00  0.00    +0.000 A 
ATOM     17  CZ3 TRP A   1      -4.522  11.021  17.269  0.00  0.00    +0.000 A 
ATOM     18  CE3 TRP A   1      -3.197  10.581  17.298  0.00  0.00    +0.000 A 
ATOM     19  CD2 TRP A   1      -2.349  11.010  18.340  0.00  0.00    +0.000 A 
ATOM     20  HE1 TRP A   1      -1.940  12.705  21.025  0.00  0.00    +0.000 HD
ENDBRANCH  10  11
ENDBRANCH   6  10
ENDBRANCH   2   6
ENDBRANCH   1   4
BRANCH   1  21
ATOM     21  C   TYR A   2       4.224   6.266  17.409  0.00  0.00    +0.000 C 
ATOM     22  O   TYR A   2       4.615   7.129  16.619  0.00  0.00    +0.000 OA
ATOM     23  N   ASP A   3       4.919   5.097  17.589  0.00  0.00    +0.000 N 
ATOM     24  H   ASP A   3       4.572   4.381  18.225  0.00  0.00    +0.000 HD
BRANCH  23  25
ATOM     25  CA  ASP A   3       6.022   4.701  16.703  0.00  0.00    +0.000 C 
BRANCH  25  26
ATOM     26  C   ASP A   3       7.311   5.026  17.470  0.00  0.00    +0.000 C 
ATOM     27  O   ASP A   3       7.540   6.139  17.931  0.00  0.00    +0.000 OA
BRANCH  26  28
ATOM     28  OXT ASP A   3       8.166   3.994  17.621  0.00  0.00    +0.000 OA
ATOM     29  HXT ASP A   3       8.559   3.660  16.777  0.00  0.00    +0.000 HD
ENDBRANCH  26  28
ENDBRANCH  25  26
BRANCH  25  30
ATOM     30  CB  ASP A   3       5.938   5.462  15.387  0.00  0.00    +0.000 C 
BRANCH  30  31
ATOM     31  CG  ASP A   3       6.878   4.867  14.379  0.00  0.00    +0.000 C 
ATOM     32  OD1 ASP A   3       7.861   5.449  13.940  0.00  0.00    +0.000 OA
BRANCH  31  33
ATOM     33  OD2 ASP A   3       6.526   3.625  13.991  0.00  0.00    +0.000 OA
ATOM     34  HD2 ASP A   3       6.277   3.023  14.720  0.00  0.00    +0.000 HD
ENDBRANCH  31  33
ENDBRANCH  30  31
ENDBRANCH  25  30
ENDBRANCH  23  25
ENDBRANCH   1  21
BRANCH   1  35
ATOM     35  CB  TYR A   2       1.915   5.350  18.118  0.00  0.00    +0.000 C 
BRANCH  35  36
ATOM     36  CG  TYR A   2       1.787   4.420  19.302  0.00  0.00    +0.000 A 
ATOM     37  CD1 TYR A   2       2.282   4.792  20.560  0.00  0.00    +0.000 A 
ATOM     38  CE1 TYR A   2       2.166   3.934  21.653  0.00  0.00    +0.000 A 
ATOM     39  CZ  TYR A   2       1.540   2.704  21.491  0.00  0.00    +0.000 A 
ATOM     40  CE2 TYR A   2       1.047   2.314  20.252  0.00  0.00    +0.000 A 
ATOM     41  CD2 TYR A   2       1.172   3.168  19.157  0.00  0.00    +0.000 A 
BRANCH  39  42
ATOM     42  OH  TYR A   2       1.378   1.851  22.541  0.00  0.00    +0.000 OA
ATOM     43  HH  TYR A   2       2.242   1.463  22.754  0.00  0.00    +0.000 HD
ENDBRANCH  39  42
ENDBRANCH  35  36
ENDBRANCH   1  35
TORSDOF 15
ENDMDL
