MODEL 1
REMARK VINA RESULT:      -7.9      0.000      0.000
REMARK  Name = 
REMARK  18 active torsions:
REMARK  status: ('A' for Active; 'I' for Inactive)
REMARK    1  A    between atoms: C_1  and  C_2
REMARK    2  A    between atoms: C_2  and  C_3
REMARK    3  A    between atoms: C_4  and  C_5
REMARK    4  A    between atoms: C_5  and  C_6
REMARK    5  A    between atoms: C_6  and  C_7
REMARK    6  A    between atoms: C_7  and  C_8
REMARK    7  A    between atoms: C_9  and  C_10
REMARK    8  A    between atoms: C_10  and  C_11
REMARK    9  A    between atoms: C_12  and  O_13
REMARK   10  A    between atoms: C_16  and  C_17
REMARK   11  A    between atoms: C_17  and  C_19
REMARK   12  A    between atoms: C_20  and  C_21
REMARK   13  A    between atoms: C_24  and  O_25
REMARK   14  A    between atoms: C_26  and  C_27
REMARK   15  A    between atoms: C_27  and  C_28
REMARK   16  A    between atoms: C_29  and  C_30
REMARK   17  A    between atoms: C_29  and  C_31
REMARK   18  A    between atoms: C_33  and  O_34
REMARK                            x       y       z     vdW  Elec       q    Type
REMARK                         _______ _______ _______ _____ _____    ______ ____
ROOT
ATOM      1  C   UNL     1       2.412   7.870  18.654  0.00  0.00    +0.000 A 
ATOM      2  C   UNL     1       2.136   7.290  19.899  0.00  0.00    +0.000 A 
ATOM      3  C   UNL     1       1.374   7.963  20.851  0.00  0.00    +0.000 A 
ATOM      4  C   UNL     1       0.848   9.224  20.574  0.00  0.00    +0.000 A 
ATOM      5  C   UNL     1       1.078   9.832  19.333  0.00  0.00    +0.000 A 
ATOM      6  C   UNL     1       1.880   9.152  18.391  0.00  0.00    +0.000 A 
ENDROOT
BRANCH   2   7
ATOM      7  O   UNL     1       2.570   6.053  20.281  0.00  0.00    +0.000 OA
ATOM      8  H   UNL     1       2.255   5.844  21.173  0.00  0.00    +0.000 HD
ENDBRANCH   2   7
BRANCH   5   9
ATOM      9  C   UNL     1       0.514  11.173  18.988  0.00  0.00    +0.000 C 
ATOM     10  O   UNL     1       1.254  12.035  18.513  0.00  0.00    +0.000 OA
BRANCH   9  11
ATOM     11  C   UNL     1      -0.926  11.447  19.221  0.00  0.00    +0.000 C 
ATOM     12  C   UNL     1      -1.829  11.043  18.315  0.00  0.00    +0.000 C 
BRANCH  12  13
ATOM     13  C   UNL     1      -3.236  11.393  18.475  0.00  0.00    +0.000 A 
ATOM     14  C   UNL     1      -4.201  10.895  17.598  0.00  0.00    +0.000 A 
ATOM     15  C   UNL     1      -5.542  11.238  17.771  0.00  0.00    +0.000 A 
ATOM     16  C   UNL     1      -5.914  12.082  18.818  0.00  0.00    +0.000 A 
ATOM     17  C   UNL     1      -4.965  12.589  19.716  0.00  0.00    +0.000 A 
ATOM     18  C   UNL     1      -3.622  12.222  19.537  0.00  0.00    +0.000 A 
BRANCH  16  19
ATOM     19  O   UNL     1      -7.225  12.437  18.969  0.00  0.00    +0.000 OA
ATOM     20  H   UNL     1      -7.782  11.700  18.668  0.00  0.00    +0.000 HD
ENDBRANCH  16  19
BRANCH  17  21
ATOM     21  C   UNL     1      -5.330  13.530  20.842  0.00  0.00    +0.000 C 
BRANCH  21  22
ATOM     22  C   UNL     1      -5.250  12.910  22.213  0.00  0.00    +0.000 C 
ATOM     23  C   UNL     1      -4.242  12.966  23.107  0.00  0.00    +0.000 C 
ATOM     24  C   UNL     1      -2.905  13.622  22.882  0.00  0.00    +0.000 C 
ATOM     25  C   UNL     1      -4.399  12.368  24.482  0.00  0.00    +0.000 C 
ENDBRANCH  21  22
ENDBRANCH  17  21
ENDBRANCH  12  13
ENDBRANCH   9  11
ENDBRANCH   5   9
BRANCH   6  26
ATOM     26  O   UNL     1       2.184   9.707  17.169  0.00  0.00    +0.000 OA
ATOM     27  H   UNL     1       1.556   9.355  16.498  0.00  0.00    +0.000 HD
ENDBRANCH   6  26
BRANCH   1  28
ATOM     28  C   UNL     1       3.193   7.147  17.576  0.00  0.00    +0.000 C 
BRANCH  28  31
ATOM     29  C   UNL     1       5.641   6.720  17.009  0.00  0.00    +0.000 C 
ATOM     30  C   UNL     1       7.077   6.873  17.443  0.00  0.00    +0.000 C 
ATOM     31  C   UNL     1       4.682   7.270  17.786  0.00  0.00    +0.000 C 
BRANCH  29  32
ATOM     32  C   UNL     1       5.283   5.971  15.734  0.00  0.00    +0.000 C 
BRANCH  32  33
ATOM     33  C   UNL     1       4.895   4.497  15.890  0.00  0.00    +0.000 C 
BRANCH  33  37
ATOM     34  C   UNL     1       4.265   3.015  19.446  0.00  0.00    +0.000 C 
ATOM     35  C   UNL     1       4.008   3.515  18.052  0.00  0.00    +0.000 C 
ATOM     36  C   UNL     1       2.597   3.417  17.539  0.00  0.00    +0.000 C 
ATOM     37  C   UNL     1       5.017   4.014  17.311  0.00  0.00    +0.000 C 
ENDBRANCH  33  37
ENDBRANCH  32  33
ENDBRANCH  29  32
ENDBRANCH  28  31
ENDBRANCH   1  28
TORSDOF 13
ENDMDL
MODEL 2
REMARK VINA RESULT:      -7.8      3.078     10.143
REMARK  Name = 
REMARK  18 active torsions:
REMARK  status: ('A' for Active; 'I' for Inactive)
REMARK    1  A    between atoms: C_1  and  C_2
REMARK    2  A    between atoms: C_2  and  C_3
REMARK    3  A    between atoms: C_4  and  C_5
REMARK    4  A    between atoms: C_5  and  C_6
REMARK    5  A    between atoms: C_6  and  C_7
REMARK    6  A    between atoms: C_7  and  C_8
REMARK    7  A    between atoms: C_9  and  C_10
REMARK    8  A    between atoms: C_10  and  C_11
REMARK    9  A    between atoms: C_12  and  O_13
REMARK   10  A    between atoms: C_16  and  C_17
REMARK   11  A    between atoms: C_17  and  C_19
REMARK   12  A    between atoms: C_20  and  C_21
REMARK   13  A    between atoms: C_24  and  O_25
REMARK   14  A    between atoms: C_26  and  C_27
REMARK   15  A    between atoms: C_27  and  C_28
REMARK   16  A    between atoms: C_29  and  C_30
REMARK   17  A    between atoms: C_29  and  C_31
REMARK   18  A    between atoms: C_33  and  O_34
REMARK                            x       y       z     vdW  Elec       q    Type
REMARK                         _______ _______ _______ _____ _____    ______ ____
ROOT
ATOM      1  C   UNL     1      -0.483  10.513  21.054  0.00  0.00    +0.000 A 
ATOM      2  C   UNL     1      -0.195   9.651  22.120  0.00  0.00    +0.000 A 
ATOM      3  C   UNL     1       0.705   8.599  21.968  0.00  0.00    +0.000 A 
ATOM      4  C   UNL     1       1.358   8.396  20.753  0.00  0.00    +0.000 A 
ATOM      5  C   UNL     1       1.119   9.248  19.668  0.00  0.00    +0.000 A 
ATOM      6  C   UNL     1       0.179  10.289  19.827  0.00  0.00    +0.000 A 
ENDROOT
BRANCH   2   7
ATOM      7  O   UNL     1      -0.746   9.759  23.364  0.00  0.00    +0.000 OA
ATOM      8  H   UNL     1      -1.499   9.155  23.455  0.00  0.00    +0.000 HD
ENDBRANCH   2   7
BRANCH   5   9
ATOM      9  C   UNL     1       1.814   9.078  18.355  0.00  0.00    +0.000 C 
ATOM     10  O   UNL     1       1.910  10.041  17.594  0.00  0.00    +0.000 OA
BRANCH   9  11
ATOM     11  C   UNL     1       2.379   7.755  17.988  0.00  0.00    +0.000 C 
ATOM     12  C   UNL     1       3.673   7.661  17.651  0.00  0.00    +0.000 C 
BRANCH  12  13
ATOM     13  C   UNL     1       4.221   6.390  17.189  0.00  0.00    +0.000 A 
ATOM     14  C   UNL     1       5.170   6.350  16.166  0.00  0.00    +0.000 A 
ATOM     15  C   UNL     1       5.685   5.125  15.742  0.00  0.00    +0.000 A 
ATOM     16  C   UNL     1       5.244   3.942  16.339  0.00  0.00    +0.000 A 
ATOM     17  C   UNL     1       4.298   3.957  17.372  0.00  0.00    +0.000 A 
ATOM     18  C   UNL     1       3.802   5.199  17.797  0.00  0.00    +0.000 A 
BRANCH  16  19
ATOM     19  O   UNL     1       5.731   2.742  15.903  0.00  0.00    +0.000 OA
ATOM     20  H   UNL     1       5.083   2.049  16.110  0.00  0.00    +0.000 HD
ENDBRANCH  16  19
BRANCH  17  21
ATOM     21  C   UNL     1       3.778   2.693  18.018  0.00  0.00    +0.000 C 
BRANCH  21  22
ATOM     22  C   UNL     1       3.133   2.909  19.362  0.00  0.00    +0.000 C 
ATOM     23  C   UNL     1       1.835   2.777  19.707  0.00  0.00    +0.000 C 
ATOM     24  C   UNL     1       0.707   2.445  18.765  0.00  0.00    +0.000 C 
ATOM     25  C   UNL     1       1.401   2.931  21.142  0.00  0.00    +0.000 C 
ENDBRANCH  21  22
ENDBRANCH  17  21
ENDBRANCH  12  13
ENDBRANCH   9  11
ENDBRANCH   5   9
BRANCH   6  26
ATOM     26  O   UNL     1      -0.139  11.137  18.791  0.00  0.00    +0.000 OA
ATOM     27  H   UNL     1      -0.285  12.039  19.155  0.00  0.00    +0.000 HD
ENDBRANCH   6  26
BRANCH   1  28
ATOM     28  C   UNL     1      -1.418  11.697  21.198  0.00  0.00    +0.000 C 
BRANCH  28  31
ATOM     29  C   UNL     1      -0.301  13.980  21.386  0.00  0.00    +0.000 C 
ATOM     30  C   UNL     1       0.413  14.960  22.283  0.00  0.00    +0.000 C 
ATOM     31  C   UNL     1      -0.765  12.838  21.939  0.00  0.00    +0.000 C 
BRANCH  29  32
ATOM     32  C   UNL     1      -0.494  14.270  19.906  0.00  0.00    +0.000 C 
BRANCH  32  33
ATOM     33  C   UNL     1      -0.109  15.673  19.426  0.00  0.00    +0.000 C 
BRANCH  33  37
ATOM     34  C   UNL     1       3.116  16.680  17.471  0.00  0.00    +0.000 C 
ATOM     35  C   UNL     1       1.738  16.753  18.066  0.00  0.00    +0.000 C 
ATOM     36  C   UNL     1       0.978  18.037  17.877  0.00  0.00    +0.000 C 
ATOM     37  C   UNL     1       1.233  15.703  18.744  0.00  0.00    +0.000 C 
ENDBRANCH  33  37
ENDBRANCH  32  33
ENDBRANCH  29  32
ENDBRANCH  28  31
ENDBRANCH   1  28
TORSDOF 13
ENDMDL
MODEL 3
REMARK VINA RESULT:      -7.7      2.043      3.978
REMARK  Name = 
REMARK  18 active torsions:
REMARK  status: ('A' for Active; 'I' for Inactive)
REMARK    1  A    between atoms: C_1  and  C_2
REMARK    2  A    between atoms: C_2  and  C_3
REMARK    3  A    between atoms: C_4  and  C_5
REMARK    4  A    between atoms: C_5  and  C_6
REMARK    5  A    between atoms: C_6  and  C_7
REMARK    6  A    between atoms: C_7  and  C_8
REMARK    7  A    between atoms: C_9  and  C_10
REMARK    8  A    between atoms: C_10  and  C_11
REMARK    9  A    between atoms: C_12  and  O_13
REMARK   10  A    between atoms: C_16  and  C_17
REMARK   11  A    between atoms: C_17  and  C_19
REMARK   12  A    between atoms: C_20  and  C_21
REMARK   13  A    between atoms: C_24  and  O_25
REMARK   14  A    between atoms: C_26  and  C_27
REMARK   15  A    between atoms: C_27  and  C_28
REMARK   16  A    between atoms: C_29  and  C_30
REMARK   17  A    between atoms: C_29  and  C_31
REMARK   18  A    between atoms: C_33  and  O_34
REMARK                            x       y       z     vdW  Elec       q    Type
REMARK                         _______ _______ _______ _____ _____    ______ ____
ROOT
ATOM      1  C   UNL     1       1.686   8.467  19.503  0.00  0.00    +0.000 A 
ATOM      2  C   UNL     1       1.456   9.441  18.523  0.00  0.00    +0.000 A 
ATOM      3  C   UNL     1       0.768  10.614  18.826  0.00  0.00    +0.000 A 
ATOM      4  C   UNL     1       0.313  10.853  20.121  0.00  0.00    +0.000 A 
ATOM      5  C   UNL     1       0.542   9.918  21.138  0.00  0.00    +0.000 A 
ATOM      6  C   UNL     1       1.212   8.719  20.809  0.00  0.00    +0.000 A 
ENDROOT
BRANCH   2   7
ATOM      7  O   UNL     1       1.873   9.338  17.227  0.00  0.00    +0.000 OA
ATOM      8  H   UNL     1       2.827   9.494  17.164  0.00  0.00    +0.000 HD
ENDBRANCH   2   7
BRANCH   5   9
ATOM      9  C   UNL     1       0.090  10.146  22.545  0.00  0.00    +0.000 C 
ATOM     10  O   UNL     1       0.780   9.730  23.476  0.00  0.00    +0.000 OA
BRANCH   9  11
ATOM     11  C   UNL     1      -1.181  10.870  22.800  0.00  0.00    +0.000 C 
ATOM     12  C   UNL     1      -1.178  12.209  22.852  0.00  0.00    +0.000 C 
BRANCH  12  13
ATOM     13  C   UNL     1      -2.395  12.933  23.203  0.00  0.00    +0.000 A 
ATOM     14  C   UNL     1      -2.355  14.014  24.085  0.00  0.00    +0.000 A 
ATOM     15  C   UNL     1      -3.529  14.696  24.404  0.00  0.00    +0.000 A 
ATOM     16  C   UNL     1      -4.742  14.291  23.844  0.00  0.00    +0.000 A 
ATOM     17  C   UNL     1      -4.807  13.214  22.950  0.00  0.00    +0.000 A 
ATOM     18  C   UNL     1      -3.614  12.549  22.628  0.00  0.00    +0.000 A 
BRANCH  16  19
ATOM     19  O   UNL     1      -5.894  14.945  24.179  0.00  0.00    +0.000 OA
ATOM     20  H   UNL     1      -6.499  14.919  23.419  0.00  0.00    +0.000 HD
ENDBRANCH  16  19
BRANCH  17  21
ATOM     21  C   UNL     1      -6.108  12.731  22.350  0.00  0.00    +0.000 C 
BRANCH  21  22
ATOM     22  C   UNL     1      -6.015  12.365  20.891  0.00  0.00    +0.000 C 
ATOM     23  C   UNL     1      -6.710  11.433  20.208  0.00  0.00    +0.000 C 
ATOM     24  C   UNL     1      -7.710  10.475  20.802  0.00  0.00    +0.000 C 
ATOM     25  C   UNL     1      -6.550  11.294  18.716  0.00  0.00    +0.000 C 
ENDBRANCH  21  22
ENDBRANCH  17  21
ENDBRANCH  12  13
ENDBRANCH   9  11
ENDBRANCH   5   9
BRANCH   6  26
ATOM     26  O   UNL     1       1.432   7.737  21.747  0.00  0.00    +0.000 OA
ATOM     27  H   UNL     1       0.671   7.719  22.370  0.00  0.00    +0.000 HD
ENDBRANCH   6  26
BRANCH   1  28
ATOM     28  C   UNL     1       2.475   7.203  19.223  0.00  0.00    +0.000 C 
BRANCH  28  31
ATOM     29  C   UNL     1       4.306   6.565  17.570  0.00  0.00    +0.000 C 
ATOM     30  C   UNL     1       4.967   6.865  16.247  0.00  0.00    +0.000 C 
ATOM     31  C   UNL     1       3.216   7.286  17.911  0.00  0.00    +0.000 C 
BRANCH  29  32
ATOM     32  C   UNL     1       4.850   5.483  18.489  0.00  0.00    +0.000 C 
BRANCH  32  33
ATOM     33  C   UNL     1       4.363   4.054  18.232  0.00  0.00    +0.000 C 
BRANCH  33  37
ATOM     34  C   UNL     1       0.999   3.097  19.967  0.00  0.00    +0.000 C 
ATOM     35  C   UNL     1       1.969   3.597  18.934  0.00  0.00    +0.000 C 
ATOM     36  C   UNL     1       1.398   4.041  17.616  0.00  0.00    +0.000 C 
ATOM     37  C   UNL     1       3.291   3.625  19.198  0.00  0.00    +0.000 C 
ENDBRANCH  33  37
ENDBRANCH  32  33
ENDBRANCH  29  32
ENDBRANCH  28  31
ENDBRANCH   1  28
TORSDOF 13
ENDMDL
MODEL 4
REMARK VINA RESULT:      -7.7      1.409      2.285
REMARK  Name = 
REMARK  18 active torsions:
REMARK  status: ('A' for Active; 'I' for Inactive)
REMARK    1  A    between atoms: C_1  and  C_2
REMARK    2  A    between atoms: C_2  and  C_3
REMARK    3  A    between atoms: C_4  and  C_5
REMARK    4  A    between atoms: C_5  and  C_6
REMARK    5  A    between atoms: C_6  and  C_7
REMARK    6  A    between atoms: C_7  and  C_8
REMARK    7  A    between atoms: C_9  and  C_10
REMARK    8  A    between atoms: C_10  and  C_11
REMARK    9  A    between atoms: C_12  and  O_13
REMARK   10  A    between atoms: C_16  and  C_17
REMARK   11  A    between atoms: C_17  and  C_19
REMARK   12  A    between atoms: C_20  and  C_21
REMARK   13  A    between atoms: C_24  and  O_25
REMARK   14  A    between atoms: C_26  and  C_27
REMARK   15  A    between atoms: C_27  and  C_28
REMARK   16  A    between atoms: C_29  and  C_30
REMARK   17  A    between atoms: C_29  and  C_31
REMARK   18  A    between atoms: C_33  and  O_34
REMARK                            x       y       z     vdW  Elec       q    Type
REMARK                         _______ _______ _______ _____ _____    ______ ____
ROOT
ATOM      1  C   UNL     1       2.719   7.214  18.651  0.00  0.00    +0.000 A 
ATOM      2  C   UNL     1       2.449   6.698  19.925  0.00  0.00    +0.000 A 
ATOM      3  C   UNL     1       1.628   7.383  20.817  0.00  0.00    +0.000 A 
ATOM      4  C   UNL     1       1.037   8.592  20.450  0.00  0.00    +0.000 A 
ATOM      5  C   UNL     1       1.259   9.132  19.177  0.00  0.00    +0.000 A 
ATOM      6  C   UNL     1       2.120   8.442  18.296  0.00  0.00    +0.000 A 
ENDROOT
BRANCH   2   7
ATOM      7  O   UNL     1       2.944   5.515  20.394  0.00  0.00    +0.000 OA
ATOM      8  H   UNL     1       2.229   4.874  20.520  0.00  0.00    +0.000 HD
ENDBRANCH   2   7
BRANCH   5   9
ATOM      9  C   UNL     1       0.627  10.413  18.736  0.00  0.00    +0.000 C 
ATOM     10  O   UNL     1       1.334  11.405  18.557  0.00  0.00    +0.000 OA
BRANCH   9  11
ATOM     11  C   UNL     1      -0.841  10.473  18.520  0.00  0.00    +0.000 C 
ATOM     12  C   UNL     1      -1.455  11.664  18.495  0.00  0.00    +0.000 C 
BRANCH  12  13
ATOM     13  C   UNL     1      -2.908  11.738  18.387  0.00  0.00    +0.000 A 
ATOM     14  C   UNL     1      -3.558  11.361  17.210  0.00  0.00    +0.000 A 
ATOM     15  C   UNL     1      -4.948  11.435  17.129  0.00  0.00    +0.000 A 
ATOM     16  C   UNL     1      -5.686  11.891  18.223  0.00  0.00    +0.000 A 
ATOM     17  C   UNL     1      -5.058  12.269  19.417  0.00  0.00    +0.000 A 
ATOM     18  C   UNL     1      -3.659  12.174  19.487  0.00  0.00    +0.000 A 
BRANCH  16  19
ATOM     19  O   UNL     1      -7.046  11.987  18.130  0.00  0.00    +0.000 OA
ATOM     20  H   UNL     1      -7.285  12.922  18.017  0.00  0.00    +0.000 HD
ENDBRANCH  16  19
BRANCH  17  21
ATOM     21  C   UNL     1      -5.824  12.797  20.609  0.00  0.00    +0.000 C 
BRANCH  21  22
ATOM     22  C   UNL     1      -5.082  12.685  21.915  0.00  0.00    +0.000 C 
ATOM     23  C   UNL     1      -5.491  13.041  23.151  0.00  0.00    +0.000 C 
ATOM     24  C   UNL     1      -6.796  13.718  23.482  0.00  0.00    +0.000 C 
ATOM     25  C   UNL     1      -4.639  12.743  24.358  0.00  0.00    +0.000 C 
ENDBRANCH  21  22
ENDBRANCH  17  21
ENDBRANCH  12  13
ENDBRANCH   9  11
ENDBRANCH   5   9
BRANCH   6  26
ATOM     26  O   UNL     1       2.419   8.937  17.047  0.00  0.00    +0.000 OA
ATOM     27  H   UNL     1       1.998   8.360  16.370  0.00  0.00    +0.000 HD
ENDBRANCH   6  26
BRANCH   1  28
ATOM     28  C   UNL     1       3.565   6.471  17.637  0.00  0.00    +0.000 C 
BRANCH  28  31
ATOM     29  C   UNL     1       6.083   6.317  17.272  0.00  0.00    +0.000 C 
ATOM     30  C   UNL     1       7.411   7.028  17.353  0.00  0.00    +0.000 C 
ATOM     31  C   UNL     1       4.968   7.021  17.567  0.00  0.00    +0.000 C 
BRANCH  29  32
ATOM     32  C   UNL     1       6.001   4.854  16.868  0.00  0.00    +0.000 C 
BRANCH  32  33
ATOM     33  C   UNL     1       6.872   4.419  15.685  0.00  0.00    +0.000 C 
BRANCH  33  37
ATOM     34  C   UNL     1       5.477   3.342  12.201  0.00  0.00    +0.000 C 
ATOM     35  C   UNL     1       6.330   4.012  13.241  0.00  0.00    +0.000 C 
ATOM     36  C   UNL     1       7.477   4.850  12.749  0.00  0.00    +0.000 C 
ATOM     37  C   UNL     1       6.064   3.844  14.552  0.00  0.00    +0.000 C 
ENDBRANCH  33  37
ENDBRANCH  32  33
ENDBRANCH  29  32
ENDBRANCH  28  31
ENDBRANCH   1  28
TORSDOF 13
ENDMDL
MODEL 5
REMARK VINA RESULT:      -7.6      1.509      2.942
REMARK  Name = 
REMARK  18 active torsions:
REMARK  status: ('A' for Active; 'I' for Inactive)
REMARK    1  A    between atoms: C_1  and  C_2
REMARK    2  A    between atoms: C_2  and  C_3
REMARK    3  A    between atoms: C_4  and  C_5
REMARK    4  A    between atoms: C_5  and  C_6
REMARK    5  A    between atoms: C_6  and  C_7
REMARK    6  A    between atoms: C_7  and  C_8
REMARK    7  A    between atoms: C_9  and  C_10
REMARK    8  A    between atoms: C_10  and  C_11
REMARK    9  A    between atoms: C_12  and  O_13
REMARK   10  A    between atoms: C_16  and  C_17
REMARK   11  A    between atoms: C_17  and  C_19
REMARK   12  A    between atoms: C_20  and  C_21
REMARK   13  A    between atoms: C_24  and  O_25
REMARK   14  A    between atoms: C_26  and  C_27
REMARK   15  A    between atoms: C_27  and  C_28
REMARK   16  A    between atoms: C_29  and  C_30
REMARK   17  A    between atoms: C_29  and  C_31
REMARK   18  A    between atoms: C_33  and  O_34
REMARK                            x       y       z     vdW  Elec       q    Type
REMARK                         _______ _______ _______ _____ _____    ______ ____
ROOT
ATOM      1  C   UNL     1       2.100   7.340  19.669  0.00  0.00    +0.000 A 
ATOM      2  C   UNL     1       2.588   7.503  18.366  0.00  0.00    +0.000 A 
ATOM      3  C   UNL     1       2.367   8.682  17.660  0.00  0.00    +0.000 A 
ATOM      4  C   UNL     1       1.673   9.739  18.246  0.00  0.00    +0.000 A 
ATOM      5  C   UNL     1       1.189   9.631  19.556  0.00  0.00    +0.000 A 
ATOM      6  C   UNL     1       1.392   8.416  20.247  0.00  0.00    +0.000 A 
ENDROOT
BRANCH   2   7
ATOM      7  O   UNL     1       3.303   6.555  17.692  0.00  0.00    +0.000 OA
ATOM      8  H   UNL     1       3.764   5.972  18.313  0.00  0.00    +0.000 HD
ENDBRANCH   2   7
BRANCH   5   9
ATOM      9  C   UNL     1       0.459  10.748  20.230  0.00  0.00    +0.000 C 
ATOM     10  O   UNL     1       1.022  11.386  21.120  0.00  0.00    +0.000 OA
BRANCH   9  11
ATOM     11  C   UNL     1      -0.929  11.074  19.817  0.00  0.00    +0.000 C 
ATOM     12  C   UNL     1      -1.379  10.654  18.626  0.00  0.00    +0.000 C 
BRANCH  12  13
ATOM     13  C   UNL     1      -2.703  11.050  18.160  0.00  0.00    +0.000 A 
ATOM     14  C   UNL     1      -3.116  10.770  16.856  0.00  0.00    +0.000 A 
ATOM     15  C   UNL     1      -4.388  11.154  16.432  0.00  0.00    +0.000 A 
ATOM     16  C   UNL     1      -5.242  11.822  17.311  0.00  0.00    +0.000 A 
ATOM     17  C   UNL     1      -4.854  12.108  18.626  0.00  0.00    +0.000 A 
ATOM     18  C   UNL     1      -3.576  11.701  19.041  0.00  0.00    +0.000 A 
BRANCH  16  19
ATOM     19  O   UNL     1      -6.478  12.219  16.883  0.00  0.00    +0.000 OA
ATOM     20  H   UNL     1      -7.151  11.699  17.352  0.00  0.00    +0.000 HD
ENDBRANCH  16  19
BRANCH  17  21
ATOM     21  C   UNL     1      -5.742  12.857  19.594  0.00  0.00    +0.000 C 
BRANCH  21  22
ATOM     22  C   UNL     1      -5.459  12.563  21.044  0.00  0.00    +0.000 C 
ATOM     23  C   UNL     1      -4.742  13.288  21.927  0.00  0.00    +0.000 C 
ATOM     24  C   UNL     1      -3.985  14.553  21.615  0.00  0.00    +0.000 C 
ATOM     25  C   UNL     1      -4.667  12.879  23.376  0.00  0.00    +0.000 C 
ENDBRANCH  21  22
ENDBRANCH  17  21
ENDBRANCH  12  13
ENDBRANCH   9  11
ENDBRANCH   5   9
BRANCH   6  26
ATOM     26  O   UNL     1       0.905   8.222  21.520  0.00  0.00    +0.000 OA
ATOM     27  H   UNL     1      -0.028   7.916  21.458  0.00  0.00    +0.000 HD
ENDBRANCH   6  26
BRANCH   1  28
ATOM     28  C   UNL     1       2.365   6.091  20.486  0.00  0.00    +0.000 C 
BRANCH  28  31
ATOM     29  C   UNL     1       1.892   3.685  19.793  0.00  0.00    +0.000 C 
ATOM     30  C   UNL     1       0.870   2.702  19.278  0.00  0.00    +0.000 C 
ATOM     31  C   UNL     1       1.483   4.945  20.058  0.00  0.00    +0.000 C 
BRANCH  29  32
ATOM     32  C   UNL     1       3.339   3.269  20.007  0.00  0.00    +0.000 C 
BRANCH  32  33
ATOM     33  C   UNL     1       4.262   3.340  18.786  0.00  0.00    +0.000 C 
BRANCH  33  37
ATOM     34  C   UNL     1       7.409   5.621  18.423  0.00  0.00    +0.000 C 
ATOM     35  C   UNL     1       6.257   4.726  18.061  0.00  0.00    +0.000 C 
ATOM     36  C   UNL     1       6.029   4.462  16.598  0.00  0.00    +0.000 C 
ATOM     37  C   UNL     1       5.471   4.205  19.024  0.00  0.00    +0.000 C 
ENDBRANCH  33  37
ENDBRANCH  32  33
ENDBRANCH  29  32
ENDBRANCH  28  31
ENDBRANCH   1  28
TORSDOF 13
ENDMDL
MODEL 6
REMARK VINA RESULT:      -7.6      2.373     10.858
REMARK  Name = 
REMARK  18 active torsions:
REMARK  status: ('A' for Active; 'I' for Inactive)
REMARK    1  A    between atoms: C_1  and  C_2
REMARK    2  A    between atoms: C_2  and  C_3
REMARK    3  A    between atoms: C_4  and  C_5
REMARK    4  A    between atoms: C_5  and  C_6
REMARK    5  A    between atoms: C_6  and  C_7
REMARK    6  A    between atoms: C_7  and  C_8
REMARK    7  A    between atoms: C_9  and  C_10
REMARK    8  A    between atoms: C_10  and  C_11
REMARK    9  A    between atoms: C_12  and  O_13
REMARK   10  A    between atoms: C_16  and  C_17
REMARK   11  A    between atoms: C_17  and  C_19
REMARK   12  A    between atoms: C_20  and  C_21
REMARK   13  A    between atoms: C_24  and  O_25
REMARK   14  A    between atoms: C_26  and  C_27
REMARK   15  A    between atoms: C_27  and  C_28
REMARK   16  A    between atoms: C_29  and  C_30
REMARK   17  A    between atoms: C_29  and  C_31
REMARK   18  A    between atoms: C_33  and  O_34
REMARK                            x       y       z     vdW  Elec       q    Type
REMARK                         _______ _______ _______ _____ _____    ______ ____
ROOT
ATOM      1  C   UNL     1      -0.646  12.162  20.100  0.00  0.00    +0.000 A 
ATOM      2  C   UNL     1      -0.633  11.934  18.718  0.00  0.00    +0.000 A 
ATOM      3  C   UNL     1      -0.041  10.792  18.184  0.00  0.00    +0.000 A 
ATOM      4  C   UNL     1       0.534   9.836  19.021  0.00  0.00    +0.000 A 
ATOM      5  C   UNL     1       0.522  10.011  20.411  0.00  0.00    +0.000 A 
ATOM      6  C   UNL     1      -0.053  11.189  20.934  0.00  0.00    +0.000 A 
ENDROOT
BRANCH   2   7
ATOM      7  O   UNL     1      -1.184  12.778  17.796  0.00  0.00    +0.000 OA
ATOM      8  H   UNL     1      -0.500  13.131  17.208  0.00  0.00    +0.000 HD
ENDBRANCH   2   7
BRANCH   5   9
ATOM      9  C   UNL     1       1.108   9.000  21.344  0.00  0.00    +0.000 C 
ATOM     10  O   UNL     1       1.619   9.377  22.398  0.00  0.00    +0.000 OA
BRANCH   9  11
ATOM     11  C   UNL     1       1.064   7.559  20.989  0.00  0.00    +0.000 C 
ATOM     12  C   UNL     1       2.098   7.010  20.336  0.00  0.00    +0.000 C 
BRANCH  12  13
ATOM     13  C   UNL     1       2.031   5.623  19.889  0.00  0.00    +0.000 A 
ATOM     14  C   UNL     1       1.249   4.689  20.571  0.00  0.00    +0.000 A 
ATOM     15  C   UNL     1       1.194   3.368  20.124  0.00  0.00    +0.000 A 
ATOM     16  C   UNL     1       1.927   2.984  19.000  0.00  0.00    +0.000 A 
ATOM     17  C   UNL     1       2.713   3.904  18.294  0.00  0.00    +0.000 A 
ATOM     18  C   UNL     1       2.744   5.232  18.748  0.00  0.00    +0.000 A 
BRANCH  16  19
ATOM     19  O   UNL     1       1.891   1.684  18.580  0.00  0.00    +0.000 OA
ATOM     20  H   UNL     1       1.095   1.262  18.944  0.00  0.00    +0.000 HD
ENDBRANCH  16  19
BRANCH  17  21
ATOM     21  C   UNL     1       3.542   3.514  17.091  0.00  0.00    +0.000 C 
BRANCH  21  22
ATOM     22  C   UNL     1       4.969   3.995  17.145  0.00  0.00    +0.000 C 
ATOM     23  C   UNL     1       5.772   4.371  16.129  0.00  0.00    +0.000 C 
ATOM     24  C   UNL     1       5.419   4.314  14.665  0.00  0.00    +0.000 C 
ATOM     25  C   UNL     1       7.144   4.932  16.400  0.00  0.00    +0.000 C 
ENDBRANCH  21  22
ENDBRANCH  17  21
ENDBRANCH  12  13
ENDBRANCH   9  11
ENDBRANCH   5   9
BRANCH   6  26
ATOM     26  O   UNL     1      -0.060  11.448  22.286  0.00  0.00    +0.000 OA
ATOM     27  H   UNL     1      -0.955  11.771  22.540  0.00  0.00    +0.000 HD
ENDBRANCH   6  26
BRANCH   1  28
ATOM     28  C   UNL     1      -1.326  13.367  20.718  0.00  0.00    +0.000 C 
BRANCH  28  31
ATOM     29  C   UNL     1      -3.600  12.905  21.772  0.00  0.00    +0.000 C 
ATOM     30  C   UNL     1      -5.078  12.713  21.540  0.00  0.00    +0.000 C 
ATOM     31  C   UNL     1      -2.829  13.226  20.711  0.00  0.00    +0.000 C 
BRANCH  29  32
ATOM     32  C   UNL     1      -2.997  12.744  23.159  0.00  0.00    +0.000 C 
BRANCH  32  33
ATOM     33  C   UNL     1      -3.028  13.977  24.068  0.00  0.00    +0.000 C 
BRANCH  33  37
ATOM     34  C   UNL     1      -0.150  16.613  24.155  0.00  0.00    +0.000 C 
ATOM     35  C   UNL     1      -1.235  15.683  24.620  0.00  0.00    +0.000 C 
ATOM     36  C   UNL     1      -1.459  15.578  26.103  0.00  0.00    +0.000 C 
ATOM     37  C   UNL     1      -1.954  14.975  23.726  0.00  0.00    +0.000 C 
ENDBRANCH  33  37
ENDBRANCH  32  33
ENDBRANCH  29  32
ENDBRANCH  28  31
ENDBRANCH   1  28
TORSDOF 13
ENDMDL
MODEL 7
REMARK VINA RESULT:      -7.6      2.545     10.859
REMARK  Name = 
REMARK  18 active torsions:
REMARK  status: ('A' for Active; 'I' for Inactive)
REMARK    1  A    between atoms: C_1  and  C_2
REMARK    2  A    between atoms: C_2  and  C_3
REMARK    3  A    between atoms: C_4  and  C_5
REMARK    4  A    between atoms: C_5  and  C_6
REMARK    5  A    between atoms: C_6  and  C_7
REMARK    6  A    between atoms: C_7  and  C_8
REMARK    7  A    between atoms: C_9  and  C_10
REMARK    8  A    between atoms: C_10  and  C_11
REMARK    9  A    between atoms: C_12  and  O_13
REMARK   10  A    between atoms: C_16  and  C_17
REMARK   11  A    between atoms: C_17  and  C_19
REMARK   12  A    between atoms: C_20  and  C_21
REMARK   13  A    between atoms: C_24  and  O_25
REMARK   14  A    between atoms: C_26  and  C_27
REMARK   15  A    between atoms: C_27  and  C_28
REMARK   16  A    between atoms: C_29  and  C_30
REMARK   17  A    between atoms: C_29  and  C_31
REMARK   18  A    between atoms: C_33  and  O_34
REMARK                            x       y       z     vdW  Elec       q    Type
REMARK                         _______ _______ _______ _____ _____    ______ ____
ROOT
ATOM      1  C   UNL     1      -0.725  10.643  21.044  0.00  0.00    +0.000 A 
ATOM      2  C   UNL     1      -0.432   9.846  22.159  0.00  0.00    +0.000 A 
ATOM      3  C   UNL     1       0.520   8.831  22.084  0.00  0.00    +0.000 A 
ATOM      4  C   UNL     1       1.220   8.603  20.901  0.00  0.00    +0.000 A 
ATOM      5  C   UNL     1       0.978   9.392  19.770  0.00  0.00    +0.000 A 
ATOM      6  C   UNL     1      -0.013  10.394  19.850  0.00  0.00    +0.000 A 
ENDROOT
BRANCH   2   7
ATOM      7  O   UNL     1      -1.028   9.985  23.379  0.00  0.00    +0.000 OA
ATOM      8  H   UNL     1      -1.885   9.534  23.391  0.00  0.00    +0.000 HD
ENDBRANCH   2   7
BRANCH   5   9
ATOM      9  C   UNL     1       1.722   9.194  18.488  0.00  0.00    +0.000 C 
ATOM     10  O   UNL     1       1.730  10.096  17.649  0.00  0.00    +0.000 OA
BRANCH   9  11
ATOM     11  C   UNL     1       2.441   7.918  18.245  0.00  0.00    +0.000 C 
ATOM     12  C   UNL     1       3.416   7.876  17.326  0.00  0.00    +0.000 C 
BRANCH  12  13
ATOM     13  C   UNL     1       4.063   6.610  17.000  0.00  0.00    +0.000 A 
ATOM     14  C   UNL     1       5.151   6.567  16.126  0.00  0.00    +0.000 A 
ATOM     15  C   UNL     1       5.758   5.346  15.831  0.00  0.00    +0.000 A 
ATOM     16  C   UNL     1       5.272   4.171  16.407  0.00  0.00    +0.000 A 
ATOM     17  C   UNL     1       4.187   4.189  17.293  0.00  0.00    +0.000 A 
ATOM     18  C   UNL     1       3.598   5.428  17.591  0.00  0.00    +0.000 A 
BRANCH  16  19
ATOM     19  O   UNL     1       5.854   2.974  16.095  0.00  0.00    +0.000 OA
ATOM     20  H   UNL     1       6.728   3.145  15.707  0.00  0.00    +0.000 HD
ENDBRANCH  16  19
BRANCH  17  21
ATOM     21  C   UNL     1       3.618   2.931  17.910  0.00  0.00    +0.000 C 
BRANCH  21  22
ATOM     22  C   UNL     1       3.034   3.130  19.284  0.00  0.00    +0.000 C 
ATOM     23  C   UNL     1       1.773   2.905  19.706  0.00  0.00    +0.000 C 
ATOM     24  C   UNL     1       0.623   2.462  18.839  0.00  0.00    +0.000 C 
ATOM     25  C   UNL     1       1.410   3.060  21.161  0.00  0.00    +0.000 C 
ENDBRANCH  21  22
ENDBRANCH  17  21
ENDBRANCH  12  13
ENDBRANCH   9  11
ENDBRANCH   5   9
BRANCH   6  26
ATOM     26  O   UNL     1      -0.335  11.178  18.766  0.00  0.00    +0.000 OA
ATOM     27  H   UNL     1      -0.278  12.123  19.032  0.00  0.00    +0.000 HD
ENDBRANCH   6  26
BRANCH   1  28
ATOM     28  C   UNL     1      -1.716  11.788  21.103  0.00  0.00    +0.000 C 
BRANCH  28  31
ATOM     29  C   UNL     1      -1.749  13.479  23.009  0.00  0.00    +0.000 C 
ATOM     30  C   UNL     1      -1.115  14.709  23.610  0.00  0.00    +0.000 C 
ATOM     31  C   UNL     1      -1.182  12.950  21.903  0.00  0.00    +0.000 C 
BRANCH  29  32
ATOM     32  C   UNL     1      -2.989  12.854  23.630  0.00  0.00    +0.000 C 
BRANCH  32  33
ATOM     33  C   UNL     1      -3.991  13.815  24.278  0.00  0.00    +0.000 C 
BRANCH  33  37
ATOM     34  C   UNL     1      -5.751  16.717  22.349  0.00  0.00    +0.000 C 
ATOM     35  C   UNL     1      -5.084  15.950  23.456  0.00  0.00    +0.000 C 
ATOM     36  C   UNL     1      -4.850  16.680  24.750  0.00  0.00    +0.000 C 
ATOM     37  C   UNL     1      -4.710  14.669  23.267  0.00  0.00    +0.000 C 
ENDBRANCH  33  37
ENDBRANCH  32  33
ENDBRANCH  29  32
ENDBRANCH  28  31
ENDBRANCH   1  28
TORSDOF 13
ENDMDL
MODEL 8
REMARK VINA RESULT:      -7.5      1.452      2.197
REMARK  Name = 
REMARK  18 active torsions:
REMARK  status: ('A' for Active; 'I' for Inactive)
REMARK    1  A    between atoms: C_1  and  C_2
REMARK    2  A    between atoms: C_2  and  C_3
REMARK    3  A    between atoms: C_4  and  C_5
REMARK    4  A    between atoms: C_5  and  C_6
REMARK    5  A    between atoms: C_6  and  C_7
REMARK    6  A    between atoms: C_7  and  C_8
REMARK    7  A    between atoms: C_9  and  C_10
REMARK    8  A    between atoms: C_10  and  C_11
REMARK    9  A    between atoms: C_12  and  O_13
REMARK   10  A    between atoms: C_16  and  C_17
REMARK   11  A    between atoms: C_17  and  C_19
REMARK   12  A    between atoms: C_20  and  C_21
REMARK   13  A    between atoms: C_24  and  O_25
REMARK   14  A    between atoms: C_26  and  C_27
REMARK   15  A    between atoms: C_27  and  C_28
REMARK   16  A    between atoms: C_29  and  C_30
REMARK   17  A    between atoms: C_29  and  C_31
REMARK   18  A    between atoms: C_33  and  O_34
REMARK                            x       y       z     vdW  Elec       q    Type
REMARK                         _______ _______ _______ _____ _____    ______ ____
ROOT
ATOM      1  C   UNL     1       2.726   7.090  18.597  0.00  0.00    +0.000 A 
ATOM      2  C   UNL     1       2.538   6.572  19.885  0.00  0.00    +0.000 A 
ATOM      3  C   UNL     1       1.817   7.279  20.843  0.00  0.00    +0.000 A 
ATOM      4  C   UNL     1       1.244   8.512  20.532  0.00  0.00    +0.000 A 
ATOM      5  C   UNL     1       1.386   9.056  19.249  0.00  0.00    +0.000 A 
ATOM      6  C   UNL     1       2.148   8.343  18.298  0.00  0.00    +0.000 A 
ENDROOT
BRANCH   2   7
ATOM      7  O   UNL     1       3.024   5.368  20.305  0.00  0.00    +0.000 OA
ATOM      8  H   UNL     1       3.400   4.875  19.560  0.00  0.00    +0.000 HD
ENDBRANCH   2   7
BRANCH   5   9
ATOM      9  C   UNL     1       0.770  10.364  18.868  0.00  0.00    +0.000 C 
ATOM     10  O   UNL     1       1.499  11.309  18.566  0.00  0.00    +0.000 OA
BRANCH   9  11
ATOM     11  C   UNL     1      -0.708  10.506  18.858  0.00  0.00    +0.000 C 
ATOM     12  C   UNL     1      -1.253  11.730  18.818  0.00  0.00    +0.000 C 
BRANCH  12  13
ATOM     13  C   UNL     1      -2.699  11.893  18.911  0.00  0.00    +0.000 A 
ATOM     14  C   UNL     1      -3.548  11.298  17.977  0.00  0.00    +0.000 A 
ATOM     15  C   UNL     1      -4.929  11.462  18.086  0.00  0.00    +0.000 A 
ATOM     16  C   UNL     1      -5.457  12.228  19.128  0.00  0.00    +0.000 A 
ATOM     17  C   UNL     1      -4.627  12.829  20.082  0.00  0.00    +0.000 A 
ATOM     18  C   UNL     1      -3.241  12.641  19.966  0.00  0.00    +0.000 A 
BRANCH  16  19
ATOM     19  O   UNL     1      -6.809  12.408  19.217  0.00  0.00    +0.000 OA
ATOM     20  H   UNL     1      -7.235  11.537  19.277  0.00  0.00    +0.000 HD
ENDBRANCH  16  19
BRANCH  17  21
ATOM     21  C   UNL     1      -5.164  13.689  21.204  0.00  0.00    +0.000 C 
BRANCH  21  22
ATOM     22  C   UNL     1      -5.229  12.991  22.538  0.00  0.00    +0.000 C 
ATOM     23  C   UNL     1      -4.287  12.921  23.500  0.00  0.00    +0.000 C 
ATOM     24  C   UNL     1      -2.893  13.484  23.406  0.00  0.00    +0.000 C 
ATOM     25  C   UNL     1      -4.587  12.263  24.823  0.00  0.00    +0.000 C 
ENDBRANCH  21  22
ENDBRANCH  17  21
ENDBRANCH  12  13
ENDBRANCH   9  11
ENDBRANCH   5   9
BRANCH   6  26
ATOM     26  O   UNL     1       2.366   8.838  17.033  0.00  0.00    +0.000 OA
ATOM     27  H   UNL     1       1.960   9.732  16.970  0.00  0.00    +0.000 HD
ENDBRANCH   6  26
BRANCH   1  28
ATOM     28  C   UNL     1       3.461   6.326  17.514  0.00  0.00    +0.000 C 
BRANCH  28  31
ATOM     29  C   UNL     1       5.926   5.938  16.996  0.00  0.00    +0.000 C 
ATOM     30  C   UNL     1       7.332   6.476  17.097  0.00  0.00    +0.000 C 
ATOM     31  C   UNL     1       4.916   6.717  17.441  0.00  0.00    +0.000 C 
BRANCH  29  32
ATOM     32  C   UNL     1       5.654   4.561  16.410  0.00  0.00    +0.000 C 
BRANCH  32  33
ATOM     33  C   UNL     1       5.200   4.515  14.948  0.00  0.00    +0.000 C 
BRANCH  33  37
ATOM     34  C   UNL     1       7.292   3.254  11.903  0.00  0.00    +0.000 C 
ATOM     35  C   UNL     1       6.112   3.624  12.756  0.00  0.00    +0.000 C 
ATOM     36  C   UNL     1       4.748   3.487  12.136  0.00  0.00    +0.000 C 
ATOM     37  C   UNL     1       6.294   4.068  14.016  0.00  0.00    +0.000 C 
ENDBRANCH  33  37
ENDBRANCH  32  33
ENDBRANCH  29  32
ENDBRANCH  28  31
ENDBRANCH   1  28
TORSDOF 13
ENDMDL
MODEL 9
REMARK VINA RESULT:      -7.5      1.562      2.476
REMARK  Name = 
REMARK  18 active torsions:
REMARK  status: ('A' for Active; 'I' for Inactive)
REMARK    1  A    between atoms: C_1  and  C_2
REMARK    2  A    between atoms: C_2  and  C_3
REMARK    3  A    between atoms: C_4  and  C_5
REMARK    4  A    between atoms: C_5  and  C_6
REMARK    5  A    between atoms: C_6  and  C_7
REMARK    6  A    between atoms: C_7  and  C_8
REMARK    7  A    between atoms: C_9  and  C_10
REMARK    8  A    between atoms: C_10  and  C_11
REMARK    9  A    between atoms: C_12  and  O_13
REMARK   10  A    between atoms: C_16  and  C_17
REMARK   11  A    between atoms: C_17  and  C_19
REMARK   12  A    between atoms: C_20  and  C_21
REMARK   13  A    between atoms: C_24  and  O_25
REMARK   14  A    between atoms: C_26  and  C_27
REMARK   15  A    between atoms: C_27  and  C_28
REMARK   16  A    between atoms: C_29  and  C_30
REMARK   17  A    between atoms: C_29  and  C_31
REMARK   18  A    between atoms: C_33  and  O_34
REMARK                            x       y       z     vdW  Elec       q    Type
REMARK                         _______ _______ _______ _____ _____    ______ ____
ROOT
ATOM      1  C   UNL     1       2.342   7.792  18.669  0.00  0.00    +0.000 A 
ATOM      2  C   UNL     1       2.259   7.073  19.869  0.00  0.00    +0.000 A 
ATOM      3  C   UNL     1       1.579   7.589  20.969  0.00  0.00    +0.000 A 
ATOM      4  C   UNL     1       0.944   8.827  20.891  0.00  0.00    +0.000 A 
ATOM      5  C   UNL     1       0.979   9.569  19.704  0.00  0.00    +0.000 A 
ATOM      6  C   UNL     1       1.701   9.048  18.608  0.00  0.00    +0.000 A 
ENDROOT
BRANCH   2   7
ATOM      7  O   UNL     1       2.816   5.841  20.064  0.00  0.00    +0.000 OA
ATOM      8  H   UNL     1       2.202   5.144  19.785  0.00  0.00    +0.000 HD
ENDBRANCH   2   7
BRANCH   5   9
ATOM      9  C   UNL     1       0.292  10.891  19.572  0.00  0.00    +0.000 C 
ATOM     10  O   UNL     1       0.862  11.909  19.966  0.00  0.00    +0.000 OA
BRANCH   9  11
ATOM     11  C   UNL     1      -1.063  10.958  18.969  0.00  0.00    +0.000 C 
ATOM     12  C   UNL     1      -1.918  11.908  19.375  0.00  0.00    +0.000 C 
BRANCH  12  13
ATOM     13  C   UNL     1      -3.286  11.927  18.869  0.00  0.00    +0.000 A 
ATOM     14  C   UNL     1      -3.650  11.163  17.760  0.00  0.00    +0.000 A 
ATOM     15  C   UNL     1      -4.965  11.192  17.295  0.00  0.00    +0.000 A 
ATOM     16  C   UNL     1      -5.912  11.991  17.939  0.00  0.00    +0.000 A 
ATOM     17  C   UNL     1      -5.573  12.762  19.059  0.00  0.00    +0.000 A 
ATOM     18  C   UNL     1      -4.249  12.708  19.522  0.00  0.00    +0.000 A 
BRANCH  16  19
ATOM     19  O   UNL     1      -7.193  12.037  17.465  0.00  0.00    +0.000 OA
ATOM     20  H   UNL     1      -7.674  11.260  17.794  0.00  0.00    +0.000 HD
ENDBRANCH  16  19
BRANCH  17  21
ATOM     21  C   UNL     1      -6.567  13.661  19.760  0.00  0.00    +0.000 C 
BRANCH  21  22
ATOM     22  C   UNL     1      -6.746  13.355  21.224  0.00  0.00    +0.000 C 
ATOM     23  C   UNL     1      -7.255  12.246  21.799  0.00  0.00    +0.000 C 
ATOM     24  C   UNL     1      -7.841  11.068  21.065  0.00  0.00    +0.000 C 
ATOM     25  C   UNL     1      -7.247  12.084  23.297  0.00  0.00    +0.000 C 
ENDBRANCH  21  22
ENDBRANCH  17  21
ENDBRANCH  12  13
ENDBRANCH   9  11
ENDBRANCH   5   9
BRANCH   6  26
ATOM     26  O   UNL     1       1.815   9.743  17.426  0.00  0.00    +0.000 OA
ATOM     27  H   UNL     1       1.524   9.160  16.688  0.00  0.00    +0.000 HD
ENDBRANCH   6  26
BRANCH   1  28
ATOM     28  C   UNL     1       3.029   7.239  17.437  0.00  0.00    +0.000 C 
BRANCH  28  31
ATOM     29  C   UNL     1       5.461   6.514  17.200  0.00  0.00    +0.000 C 
ATOM     30  C   UNL     1       6.909   6.881  17.412  0.00  0.00    +0.000 C 
ATOM     31  C   UNL     1       4.523   7.442  17.490  0.00  0.00    +0.000 C 
BRANCH  29  32
ATOM     32  C   UNL     1       5.069   5.142  16.675  0.00  0.00    +0.000 C 
BRANCH  32  33
ATOM     33  C   UNL     1       6.188   4.301  16.052  0.00  0.00    +0.000 C 
BRANCH  33  37
ATOM     34  C   UNL     1       5.932   3.333  12.279  0.00  0.00    +0.000 C 
ATOM     35  C   UNL     1       6.373   4.024  13.538  0.00  0.00    +0.000 C 
ATOM     36  C   UNL     1       7.473   5.041  13.412  0.00  0.00    +0.000 C 
ATOM     37  C   UNL     1       5.800   3.718  14.719  0.00  0.00    +0.000 C 
ENDBRANCH  33  37
ENDBRANCH  32  33
ENDBRANCH  29  32
ENDBRANCH  28  31
ENDBRANCH   1  28
TORSDOF 13
ENDMDL
