MODEL 1
REMARK VINA RESULT:      -8.6      0.000      0.000
REMARK  Name = 
REMARK  5 active torsions:
REMARK  status: ('A' for Active; 'I' for Inactive)
REMARK    1  A    between atoms: C_1  and  O_2
REMARK    2  A    between atoms: O_2  and  C_3
REMARK    3  A    between atoms: C_6  and  S_7
REMARK    4  A    between atoms: S_7  and  N_10
REMARK    5  A    between atoms: N_10  and  C_11
REMARK                            x       y       z     vdW  Elec       q    Type
REMARK                         _______ _______ _______ _____ _____    ______ ____
ROOT
ATOM      1  C   UNL     1       3.353   5.385  17.789  0.00  0.00    +0.000 A 
ATOM      2  C   UNL     1       2.942   6.742  17.727  0.00  0.00    +0.000 A 
ATOM      3  C   UNL     1       2.293   7.317  18.840  0.00  0.00    +0.000 A 
ATOM      4  C   UNL     1       1.774   8.596  19.230  0.00  0.00    +0.000 A 
ATOM      5  C   UNL     1       1.188   8.404  20.460  0.00  0.00    +0.000 A 
ATOM      6  O   UNL     1       1.393   7.157  20.916  0.00  0.00    +0.000 OA
ATOM      7  C   UNL     1       2.073   6.499  19.943  0.00  0.00    +0.000 A 
ATOM      8  C   UNL     1       2.490   5.168  20.040  0.00  0.00    +0.000 A 
ATOM      9  C   UNL     1       2.306   4.511  21.270  0.00  0.00    +0.000 A 
ATOM     10  C   UNL     1       2.688   3.188  21.399  0.00  0.00    +0.000 A 
ATOM     11  C   UNL     1       3.197   2.514  20.291  0.00  0.00    +0.000 A 
ATOM     12  C   UNL     1       3.394   3.185  19.070  0.00  0.00    +0.000 A 
ATOM     13  C   UNL     1       3.090   4.561  18.920  0.00  0.00    +0.000 A 
ATOM     14  C   UNL     1       0.403   9.321  21.294  0.00  0.00    +0.000 C 
ATOM     15  C   UNL     1       0.728  10.767  20.935  0.00  0.00    +0.000 C 
ATOM     16  C   UNL     1       1.151  11.057  19.476  0.00  0.00    +0.000 C 
ATOM     17  C   UNL     1       1.753   9.913  18.641  0.00  0.00    +0.000 C 
ATOM     18  O   UNL     1       2.202  10.129  17.515  0.00  0.00    +0.000 OA
ENDROOT
BRANCH   1  19
ATOM     19  N   UNL     1       4.121   4.885  16.677  0.00  0.00    +0.000 N 
ATOM     20  H   UNL     1       4.099   3.882  16.513  0.00  0.00    +0.000 HD
BRANCH  19  21
ATOM     21  S   UNL     1       5.729   5.437  16.515  0.00  0.00    +0.000 S 
ATOM     22  O   UNL     1       6.501   4.656  17.469  0.00  0.00    +0.000 OA
ATOM     23  O   UNL     1       5.784   6.880  16.508  0.00  0.00    +0.000 OA
BRANCH  21  27
ATOM     24  C   UNL     1       6.943   3.914  12.366  0.00  0.00    +0.000 A 
ATOM     25  C   UNL     1       5.758   3.495  12.966  0.00  0.00    +0.000 A 
ATOM     26  C   UNL     1       5.363   4.006  14.200  0.00  0.00    +0.000 A 
ATOM     27  C   UNL     1       6.206   4.887  14.880  0.00  0.00    +0.000 A 
ATOM     28  C   UNL     1       7.383   5.340  14.279  0.00  0.00    +0.000 A 
ATOM     29  C   UNL     1       7.746   4.853  13.015  0.00  0.00    +0.000 A 
BRANCH  24  31
ATOM     30  C   UNL     1       7.234   1.873  11.195  0.00  0.00    +0.000 C 
ATOM     31  O   UNL     1       7.219   3.295  11.180  0.00  0.00    +0.000 OA
ENDBRANCH  24  31
ENDBRANCH  21  27
ENDBRANCH  19  21
ENDBRANCH   1  19
TORSDOF 4
ENDMDL
MODEL 2
REMARK VINA RESULT:      -8.3      2.494      8.063
REMARK  Name = 
REMARK  5 active torsions:
REMARK  status: ('A' for Active; 'I' for Inactive)
REMARK    1  A    between atoms: C_1  and  O_2
REMARK    2  A    between atoms: O_2  and  C_3
REMARK    3  A    between atoms: C_6  and  S_7
REMARK    4  A    between atoms: S_7  and  N_10
REMARK    5  A    between atoms: N_10  and  C_11
REMARK                            x       y       z     vdW  Elec       q    Type
REMARK                         _______ _______ _______ _____ _____    ______ ____
ROOT
ATOM      1  C   UNL     1       4.967   3.597  17.337  0.00  0.00    +0.000 A 
ATOM      2  C   UNL     1       4.971   3.395  15.931  0.00  0.00    +0.000 A 
ATOM      3  C   UNL     1       5.918   4.079  15.140  0.00  0.00    +0.000 A 
ATOM      4  C   UNL     1       6.310   4.144  13.761  0.00  0.00    +0.000 A 
ATOM      5  C   UNL     1       7.283   5.114  13.693  0.00  0.00    +0.000 A 
ATOM      6  O   UNL     1       7.608   5.575  14.913  0.00  0.00    +0.000 OA
ATOM      7  C   UNL     1       6.791   4.941  15.793  0.00  0.00    +0.000 A 
ATOM      8  C   UNL     1       6.825   5.139  17.177  0.00  0.00    +0.000 A 
ATOM      9  C   UNL     1       7.852   5.947  17.699  0.00  0.00    +0.000 A 
ATOM     10  C   UNL     1       7.907   6.182  19.061  0.00  0.00    +0.000 A 
ATOM     11  C   UNL     1       6.911   5.659  19.883  0.00  0.00    +0.000 A 
ATOM     12  C   UNL     1       5.899   4.837  19.354  0.00  0.00    +0.000 A 
ATOM     13  C   UNL     1       5.854   4.508  17.977  0.00  0.00    +0.000 A 
ATOM     14  C   UNL     1       7.971   5.692  12.533  0.00  0.00    +0.000 C 
ATOM     15  C   UNL     1       7.917   4.725  11.355  0.00  0.00    +0.000 C 
ATOM     16  C   UNL     1       6.693   3.785  11.266  0.00  0.00    +0.000 C 
ATOM     17  C   UNL     1       5.920   3.454  12.555  0.00  0.00    +0.000 C 
ATOM     18  O   UNL     1       5.010   2.626  12.545  0.00  0.00    +0.000 OA
ENDROOT
BRANCH   1  19
ATOM     19  N   UNL     1       4.065   2.782  18.109  0.00  0.00    +0.000 N 
ATOM     20  H   UNL     1       4.179   1.773  18.041  0.00  0.00    +0.000 HD
BRANCH  19  21
ATOM     21  S   UNL     1       2.400   3.157  18.036  0.00  0.00    +0.000 S 
ATOM     22  O   UNL     1       1.753   2.204  18.925  0.00  0.00    +0.000 OA
ATOM     23  O   UNL     1       1.966   3.324  16.670  0.00  0.00    +0.000 OA
BRANCH  21  27
ATOM     24  C   UNL     1       2.006   7.240  20.081  0.00  0.00    +0.000 A 
ATOM     25  C   UNL     1       1.815   6.059  20.795  0.00  0.00    +0.000 A 
ATOM     26  C   UNL     1       1.995   4.820  20.184  0.00  0.00    +0.000 A 
ATOM     27  C   UNL     1       2.291   4.763  18.821  0.00  0.00    +0.000 A 
ATOM     28  C   UNL     1       2.514   5.938  18.099  0.00  0.00    +0.000 A 
ATOM     29  C   UNL     1       2.375   7.178  18.737  0.00  0.00    +0.000 A 
BRANCH  24  31
ATOM     30  C   UNL     1       0.425   8.536  21.282  0.00  0.00    +0.000 C 
ATOM     31  O   UNL     1       1.753   8.375  20.799  0.00  0.00    +0.000 OA
ENDBRANCH  24  31
ENDBRANCH  21  27
ENDBRANCH  19  21
ENDBRANCH   1  19
TORSDOF 4
ENDMDL
MODEL 3
REMARK VINA RESULT:      -8.3      2.798      3.893
REMARK  Name = 
REMARK  5 active torsions:
REMARK  status: ('A' for Active; 'I' for Inactive)
REMARK    1  A    between atoms: C_1  and  O_2
REMARK    2  A    between atoms: O_2  and  C_3
REMARK    3  A    between atoms: C_6  and  S_7
REMARK    4  A    between atoms: S_7  and  N_10
REMARK    5  A    between atoms: N_10  and  C_11
REMARK                            x       y       z     vdW  Elec       q    Type
REMARK                         _______ _______ _______ _____ _____    ______ ____
ROOT
ATOM      1  C   UNL     1       3.633   5.491  17.995  0.00  0.00    +0.000 A 
ATOM      2  C   UNL     1       3.217   6.845  17.891  0.00  0.00    +0.000 A 
ATOM      3  C   UNL     1       2.411   7.398  18.908  0.00  0.00    +0.000 A 
ATOM      4  C   UNL     1       1.826   8.666  19.236  0.00  0.00    +0.000 A 
ATOM      5  C   UNL     1       1.075   8.451  20.368  0.00  0.00    +0.000 A 
ATOM      6  O   UNL     1       1.229   7.201  20.834  0.00  0.00    +0.000 OA
ATOM      7  C   UNL     1       2.048   6.563  19.959  0.00  0.00    +0.000 A 
ATOM      8  C   UNL     1       2.464   5.235  20.098  0.00  0.00    +0.000 A 
ATOM      9  C   UNL     1       2.116   4.560  21.283  0.00  0.00    +0.000 A 
ATOM     10  C   UNL     1       2.493   3.239  21.449  0.00  0.00    +0.000 A 
ATOM     11  C   UNL     1       3.162   2.586  20.416  0.00  0.00    +0.000 A 
ATOM     12  C   UNL     1       3.521   3.276  19.243  0.00  0.00    +0.000 A 
ATOM     13  C   UNL     1       3.224   4.649  19.068  0.00  0.00    +0.000 A 
ATOM     14  C   UNL     1       0.169   9.349  21.094  0.00  0.00    +0.000 C 
ATOM     15  C   UNL     1       0.523  10.803  20.801  0.00  0.00    +0.000 C 
ATOM     16  C   UNL     1       1.143  11.116  19.420  0.00  0.00    +0.000 C 
ATOM     17  C   UNL     1       1.872   9.990  18.665  0.00  0.00    +0.000 C 
ATOM     18  O   UNL     1       2.472  10.226  17.617  0.00  0.00    +0.000 OA
ENDROOT
BRANCH   1  19
ATOM     19  N   UNL     1       4.556   5.015  16.997  0.00  0.00    +0.000 N 
ATOM     20  H   UNL     1       4.220   4.295  16.362  0.00  0.00    +0.000 HD
BRANCH  19  21
ATOM     21  S   UNL     1       6.134   4.609  17.509  0.00  0.00    +0.000 S 
ATOM     22  O   UNL     1       6.779   4.030  16.341  0.00  0.00    +0.000 OA
ATOM     23  O   UNL     1       6.105   3.913  18.773  0.00  0.00    +0.000 OA
BRANCH  21  27
ATOM     24  C   UNL     1       8.149   8.677  18.142  0.00  0.00    +0.000 A 
ATOM     25  C   UNL     1       7.143   8.514  17.192  0.00  0.00    +0.000 A 
ATOM     26  C   UNL     1       6.492   7.292  17.044  0.00  0.00    +0.000 A 
ATOM     27  C   UNL     1       6.909   6.196  17.802  0.00  0.00    +0.000 A 
ATOM     28  C   UNL     1       7.895   6.350  18.780  0.00  0.00    +0.000 A 
ATOM     29  C   UNL     1       8.510   7.598  18.950  0.00  0.00    +0.000 A 
BRANCH  24  31
ATOM     30  C   UNL     1       9.289  10.352  19.372  0.00  0.00    +0.000 C 
ATOM     31  O   UNL     1       8.723   9.916  18.142  0.00  0.00    +0.000 OA
ENDBRANCH  24  31
ENDBRANCH  21  27
ENDBRANCH  19  21
ENDBRANCH   1  19
TORSDOF 4
ENDMDL
MODEL 4
REMARK VINA RESULT:      -8.3      4.446      7.941
REMARK  Name = 
REMARK  5 active torsions:
REMARK  status: ('A' for Active; 'I' for Inactive)
REMARK    1  A    between atoms: C_1  and  O_2
REMARK    2  A    between atoms: O_2  and  C_3
REMARK    3  A    between atoms: C_6  and  S_7
REMARK    4  A    between atoms: S_7  and  N_10
REMARK    5  A    between atoms: N_10  and  C_11
REMARK                            x       y       z     vdW  Elec       q    Type
REMARK                         _______ _______ _______ _____ _____    ______ ____
ROOT
ATOM      1  C   UNL     1      -0.337  11.058  19.960  0.00  0.00    +0.000 A 
ATOM      2  C   UNL     1      -0.512  11.948  21.053  0.00  0.00    +0.000 A 
ATOM      3  C   UNL     1      -1.711  12.685  21.155  0.00  0.00    +0.000 A 
ATOM      4  C   UNL     1      -2.318  13.614  22.065  0.00  0.00    +0.000 A 
ATOM      5  C   UNL     1      -3.498  14.001  21.473  0.00  0.00    +0.000 A 
ATOM      6  O   UNL     1      -3.731  13.317  20.340  0.00  0.00    +0.000 OA
ATOM      7  C   UNL     1      -2.656  12.510  20.151  0.00  0.00    +0.000 A 
ATOM      8  C   UNL     1      -2.519  11.622  19.079  0.00  0.00    +0.000 A 
ATOM      9  C   UNL     1      -3.618  11.465  18.214  0.00  0.00    +0.000 A 
ATOM     10  C   UNL     1      -3.515  10.611  17.131  0.00  0.00    +0.000 A 
ATOM     11  C   UNL     1      -2.305   9.966  16.885  0.00  0.00    +0.000 A 
ATOM     12  C   UNL     1      -1.218  10.116  17.765  0.00  0.00    +0.000 A 
ATOM     13  C   UNL     1      -1.309  10.918  18.929  0.00  0.00    +0.000 A 
ATOM     14  C   UNL     1      -4.481  15.011  21.880  0.00  0.00    +0.000 C 
ATOM     15  C   UNL     1      -4.376  15.271  23.379  0.00  0.00    +0.000 C 
ATOM     16  C   UNL     1      -2.988  15.088  24.035  0.00  0.00    +0.000 C 
ATOM     17  C   UNL     1      -1.966  14.162  23.352  0.00  0.00    +0.000 C 
ATOM     18  O   UNL     1      -0.893  13.905  23.897  0.00  0.00    +0.000 OA
ENDROOT
BRANCH   1  19
ATOM     19  N   UNL     1       0.847  10.238  19.970  0.00  0.00    +0.000 N 
ATOM     20  H   UNL     1       1.181   9.895  19.073  0.00  0.00    +0.000 HD
BRANCH  19  21
ATOM     21  S   UNL     1       0.919   8.968  21.110  0.00  0.00    +0.000 S 
ATOM     22  O   UNL     1      -0.465   8.594  21.355  0.00  0.00    +0.000 OA
ATOM     23  O   UNL     1       1.812   9.297  22.196  0.00  0.00    +0.000 OA
BRANCH  21  27
ATOM     24  C   UNL     1       2.775   5.547  18.690  0.00  0.00    +0.000 A 
ATOM     25  C   UNL     1       2.760   6.849  18.196  0.00  0.00    +0.000 A 
ATOM     26  C   UNL     1       2.249   7.896  18.960  0.00  0.00    +0.000 A 
ATOM     27  C   UNL     1       1.673   7.622  20.202  0.00  0.00    +0.000 A 
ATOM     28  C   UNL     1       1.708   6.327  20.724  0.00  0.00    +0.000 A 
ATOM     29  C   UNL     1       2.267   5.290  19.964  0.00  0.00    +0.000 A 
BRANCH  24  31
ATOM     30  C   UNL     1       2.399   3.546  17.475  0.00  0.00    +0.000 C 
ATOM     31  O   UNL     1       3.267   4.622  17.814  0.00  0.00    +0.000 OA
ENDBRANCH  24  31
ENDBRANCH  21  27
ENDBRANCH  19  21
ENDBRANCH   1  19
TORSDOF 4
ENDMDL
MODEL 5
REMARK VINA RESULT:      -8.2      4.388      7.897
REMARK  Name = 
REMARK  5 active torsions:
REMARK  status: ('A' for Active; 'I' for Inactive)
REMARK    1  A    between atoms: C_1  and  O_2
REMARK    2  A    between atoms: O_2  and  C_3
REMARK    3  A    between atoms: C_6  and  S_7
REMARK    4  A    between atoms: S_7  and  N_10
REMARK    5  A    between atoms: N_10  and  C_11
REMARK                            x       y       z     vdW  Elec       q    Type
REMARK                         _______ _______ _______ _____ _____    ______ ____
ROOT
ATOM      1  C   UNL     1      -0.341  10.981  19.862  0.00  0.00    +0.000 A 
ATOM      2  C   UNL     1      -0.515  11.859  20.965  0.00  0.00    +0.000 A 
ATOM      3  C   UNL     1      -1.710  12.602  21.071  0.00  0.00    +0.000 A 
ATOM      4  C   UNL     1      -2.315  13.524  21.988  0.00  0.00    +0.000 A 
ATOM      5  C   UNL     1      -3.491  13.924  21.397  0.00  0.00    +0.000 A 
ATOM      6  O   UNL     1      -3.724  13.253  20.256  0.00  0.00    +0.000 OA
ATOM      7  C   UNL     1      -2.652  12.443  20.062  0.00  0.00    +0.000 A 
ATOM      8  C   UNL     1      -2.517  11.567  18.980  0.00  0.00    +0.000 A 
ATOM      9  C   UNL     1      -3.614  11.424  18.111  0.00  0.00    +0.000 A 
ATOM     10  C   UNL     1      -3.511  10.582  17.018  0.00  0.00    +0.000 A 
ATOM     11  C   UNL     1      -2.304   9.933  16.769  0.00  0.00    +0.000 A 
ATOM     12  C   UNL     1      -1.219  10.067  17.655  0.00  0.00    +0.000 A 
ATOM     13  C   UNL     1      -1.310  10.858  18.827  0.00  0.00    +0.000 A 
ATOM     14  C   UNL     1      -4.470  14.935  21.812  0.00  0.00    +0.000 C 
ATOM     15  C   UNL     1      -4.369  15.178  23.314  0.00  0.00    +0.000 C 
ATOM     16  C   UNL     1      -2.984  14.980  23.972  0.00  0.00    +0.000 C 
ATOM     17  C   UNL     1      -1.964  14.057  23.283  0.00  0.00    +0.000 C 
ATOM     18  O   UNL     1      -0.895  13.787  23.828  0.00  0.00    +0.000 OA
ENDROOT
BRANCH   1  19
ATOM     19  N   UNL     1       0.839  10.155  19.868  0.00  0.00    +0.000 N 
ATOM     20  H   UNL     1       1.157   9.796  18.971  0.00  0.00    +0.000 HD
BRANCH  19  21
ATOM     21  S   UNL     1       0.921   8.902  21.026  0.00  0.00    +0.000 S 
ATOM     22  O   UNL     1      -0.457   8.490  21.243  0.00  0.00    +0.000 OA
ATOM     23  O   UNL     1       1.778   9.269  22.128  0.00  0.00    +0.000 OA
BRANCH  21  27
ATOM     24  C   UNL     1       3.075   5.465  18.890  0.00  0.00    +0.000 A 
ATOM     25  C   UNL     1       2.454   5.268  20.120  0.00  0.00    +0.000 A 
ATOM     26  C   UNL     1       1.749   6.299  20.738  0.00  0.00    +0.000 A 
ATOM     27  C   UNL     1       1.735   7.567  20.153  0.00  0.00    +0.000 A 
ATOM     28  C   UNL     1       2.327   7.773  18.905  0.00  0.00    +0.000 A 
ATOM     29  C   UNL     1       2.994   6.714  18.273  0.00  0.00    +0.000 A 
BRANCH  24  31
ATOM     30  C   UNL     1       4.455   3.608  19.403  0.00  0.00    +0.000 C 
ATOM     31  O   UNL     1       3.762   4.379  18.429  0.00  0.00    +0.000 OA
ENDBRANCH  24  31
ENDBRANCH  21  27
ENDBRANCH  19  21
ENDBRANCH   1  19
TORSDOF 4
ENDMDL
MODEL 6
REMARK VINA RESULT:      -8.0      4.986      8.320
REMARK  Name = 
REMARK  5 active torsions:
REMARK  status: ('A' for Active; 'I' for Inactive)
REMARK    1  A    between atoms: C_1  and  O_2
REMARK    2  A    between atoms: O_2  and  C_3
REMARK    3  A    between atoms: C_6  and  S_7
REMARK    4  A    between atoms: S_7  and  N_10
REMARK    5  A    between atoms: N_10  and  C_11
REMARK                            x       y       z     vdW  Elec       q    Type
REMARK                         _______ _______ _______ _____ _____    ______ ____
ROOT
ATOM      1  C   UNL     1      -0.974  11.487  20.022  0.00  0.00    +0.000 A 
ATOM      2  C   UNL     1      -1.519  12.267  21.076  0.00  0.00    +0.000 A 
ATOM      3  C   UNL     1      -2.873  12.660  21.012  0.00  0.00    +0.000 A 
ATOM      4  C   UNL     1      -3.818  13.369  21.826  0.00  0.00    +0.000 A 
ATOM      5  C   UNL     1      -4.971  13.449  21.079  0.00  0.00    +0.000 A 
ATOM      6  O   UNL     1      -4.864  12.760  19.930  0.00  0.00    +0.000 OA
ATOM      7  C   UNL     1      -3.599  12.271  19.892  0.00  0.00    +0.000 A 
ATOM      8  C   UNL     1      -3.093  11.483  18.853  0.00  0.00    +0.000 A 
ATOM      9  C   UNL     1      -3.989  11.067  17.851  0.00  0.00    +0.000 A 
ATOM     10  C   UNL     1      -3.522  10.302  16.796  0.00  0.00    +0.000 A 
ATOM     11  C   UNL     1      -2.163  10.006  16.718  0.00  0.00    +0.000 A 
ATOM     12  C   UNL     1      -1.279  10.411  17.736  0.00  0.00    +0.000 A 
ATOM     13  C   UNL     1      -1.731  11.126  18.871  0.00  0.00    +0.000 A 
ATOM     14  C   UNL     1      -6.231  14.152  21.345  0.00  0.00    +0.000 C 
ATOM     15  C   UNL     1      -6.395  14.387  22.843  0.00  0.00    +0.000 C 
ATOM     16  C   UNL     1      -5.106  14.556  23.679  0.00  0.00    +0.000 C 
ATOM     17  C   UNL     1      -3.795  13.953  23.145  0.00  0.00    +0.000 C 
ATOM     18  O   UNL     1      -2.773  13.971  23.831  0.00  0.00    +0.000 OA
ENDROOT
BRANCH   1  19
ATOM     19  N   UNL     1       0.373  11.008  20.196  0.00  0.00    +0.000 N 
ATOM     20  H   UNL     1       0.962  10.972  19.368  0.00  0.00    +0.000 HD
BRANCH  19  21
ATOM     21  S   UNL     1       0.591   9.571  21.094  0.00  0.00    +0.000 S 
ATOM     22  O   UNL     1      -0.743   9.017  21.260  0.00  0.00    +0.000 OA
ATOM     23  O   UNL     1       1.458   9.794  22.226  0.00  0.00    +0.000 OA
BRANCH  21  27
ATOM     24  C   UNL     1       2.930   6.800  18.289  0.00  0.00    +0.000 A 
ATOM     25  C   UNL     1       2.595   6.398  19.580  0.00  0.00    +0.000 A 
ATOM     26  C   UNL     1       1.832   7.219  20.408  0.00  0.00    +0.000 A 
ATOM     27  C   UNL     1       1.470   8.493  19.966  0.00  0.00    +0.000 A 
ATOM     28  C   UNL     1       1.773   8.899  18.664  0.00  0.00    +0.000 A 
ATOM     29  C   UNL     1       2.501   8.044  17.825  0.00  0.00    +0.000 A 
BRANCH  24  31
ATOM     30  C   UNL     1       5.022   6.353  17.269  0.00  0.00    +0.000 C 
ATOM     31  O   UNL     1       3.715   5.911  17.612  0.00  0.00    +0.000 OA
ENDBRANCH  24  31
ENDBRANCH  21  27
ENDBRANCH  19  21
ENDBRANCH   1  19
TORSDOF 4
ENDMDL
MODEL 7
REMARK VINA RESULT:      -7.9      5.771      9.270
REMARK  Name = 
REMARK  5 active torsions:
REMARK  status: ('A' for Active; 'I' for Inactive)
REMARK    1  A    between atoms: C_1  and  O_2
REMARK    2  A    between atoms: O_2  and  C_3
REMARK    3  A    between atoms: C_6  and  S_7
REMARK    4  A    between atoms: S_7  and  N_10
REMARK    5  A    between atoms: N_10  and  C_11
REMARK                            x       y       z     vdW  Elec       q    Type
REMARK                         _______ _______ _______ _____ _____    ______ ____
ROOT
ATOM      1  C   UNL     1      -1.976  12.305  19.649  0.00  0.00    +0.000 A 
ATOM      2  C   UNL     1      -2.668  12.714  20.819  0.00  0.00    +0.000 A 
ATOM      3  C   UNL     1      -4.075  12.614  20.857  0.00  0.00    +0.000 A 
ATOM      4  C   UNL     1      -5.137  12.846  21.793  0.00  0.00    +0.000 A 
ATOM      5  C   UNL     1      -6.304  12.608  21.104  0.00  0.00    +0.000 A 
ATOM      6  O   UNL     1      -6.061  12.143  19.867  0.00  0.00    +0.000 OA
ATOM      7  C   UNL     1      -4.712  12.134  19.718  0.00  0.00    +0.000 A 
ATOM      8  C   UNL     1      -4.052  11.702  18.563  0.00  0.00    +0.000 A 
ATOM      9  C   UNL     1      -4.829  11.123  17.542  0.00  0.00    +0.000 A 
ATOM     10  C   UNL     1      -4.216  10.702  16.376  0.00  0.00    +0.000 A 
ATOM     11  C   UNL     1      -2.848  10.910  16.212  0.00  0.00    +0.000 A 
ATOM     12  C   UNL     1      -2.077  11.473  17.246  0.00  0.00    +0.000 A 
ATOM     13  C   UNL     1      -2.654  11.844  18.485  0.00  0.00    +0.000 A 
ATOM     14  C   UNL     1      -7.703  12.790  21.508  0.00  0.00    +0.000 C 
ATOM     15  C   UNL     1      -7.817  12.771  23.029  0.00  0.00    +0.000 C 
ATOM     16  C   UNL     1      -6.600  13.278  23.837  0.00  0.00    +0.000 C 
ATOM     17  C   UNL     1      -5.209  13.239  23.180  0.00  0.00    +0.000 C 
ATOM     18  O   UNL     1      -4.203  13.530  23.826  0.00  0.00    +0.000 OA
ENDROOT
BRANCH   1  19
ATOM     19  N   UNL     1      -0.537  12.309  19.709  0.00  0.00    +0.000 N 
ATOM     20  H   UNL     1      -0.036  12.217  18.828  0.00  0.00    +0.000 HD
BRANCH  19  21
ATOM     21  S   UNL     1       0.208  11.310  20.877  0.00  0.00    +0.000 S 
ATOM     22  O   UNL     1      -0.886  10.732  21.640  0.00  0.00    +0.000 OA
ATOM     23  O   UNL     1       1.298  11.998  21.528  0.00  0.00    +0.000 OA
BRANCH  21  27
ATOM     24  C   UNL     1       2.146   7.919  18.477  0.00  0.00    +0.000 A 
ATOM     25  C   UNL     1       1.872   7.772  19.835  0.00  0.00    +0.000 A 
ATOM     26  C   UNL     1       1.228   8.781  20.547  0.00  0.00    +0.000 A 
ATOM     27  C   UNL     1       0.929   9.987  19.909  0.00  0.00    +0.000 A 
ATOM     28  C   UNL     1       1.170  10.139  18.541  0.00  0.00    +0.000 A 
ATOM     29  C   UNL     1       1.776   9.097  17.827  0.00  0.00    +0.000 A 
BRANCH  24  31
ATOM     30  C   UNL     1       3.611   6.085  18.810  0.00  0.00    +0.000 C 
ATOM     31  O   UNL     1       2.817   6.866  17.924  0.00  0.00    +0.000 OA
ENDBRANCH  24  31
ENDBRANCH  21  27
ENDBRANCH  19  21
ENDBRANCH   1  19
TORSDOF 4
ENDMDL
MODEL 8
REMARK VINA RESULT:      -7.8      2.362      8.413
REMARK  Name = 
REMARK  5 active torsions:
REMARK  status: ('A' for Active; 'I' for Inactive)
REMARK    1  A    between atoms: C_1  and  O_2
REMARK    2  A    between atoms: O_2  and  C_3
REMARK    3  A    between atoms: C_6  and  S_7
REMARK    4  A    between atoms: S_7  and  N_10
REMARK    5  A    between atoms: N_10  and  C_11
REMARK                            x       y       z     vdW  Elec       q    Type
REMARK                         _______ _______ _______ _____ _____    ______ ____
ROOT
ATOM      1  C   UNL     1       2.593   6.554  19.141  0.00  0.00    +0.000 A 
ATOM      2  C   UNL     1       3.463   6.719  18.032  0.00  0.00    +0.000 A 
ATOM      3  C   UNL     1       4.014   5.577  17.412  0.00  0.00    +0.000 A 
ATOM      4  C   UNL     1       4.854   5.271  16.291  0.00  0.00    +0.000 A 
ATOM      5  C   UNL     1       5.050   3.910  16.328  0.00  0.00    +0.000 A 
ATOM      6  O   UNL     1       4.320   3.332  17.297  0.00  0.00    +0.000 OA
ATOM      7  C   UNL     1       3.681   4.338  17.948  0.00  0.00    +0.000 A 
ATOM      8  C   UNL     1       2.808   4.147  19.024  0.00  0.00    +0.000 A 
ATOM      9  C   UNL     1       2.473   2.824  19.369  0.00  0.00    +0.000 A 
ATOM     10  C   UNL     1       1.627   2.594  20.439  0.00  0.00    +0.000 A 
ATOM     11  C   UNL     1       1.168   3.674  21.189  0.00  0.00    +0.000 A 
ATOM     12  C   UNL     1       1.494   4.993  20.825  0.00  0.00    +0.000 A 
ATOM     13  C   UNL     1       2.292   5.275  19.689  0.00  0.00    +0.000 A 
ATOM     14  C   UNL     1       5.906   3.048  15.506  0.00  0.00    +0.000 C 
ATOM     15  C   UNL     1       6.203   3.723  14.171  0.00  0.00    +0.000 C 
ATOM     16  C   UNL     1       6.241   5.268  14.151  0.00  0.00    +0.000 C 
ATOM     17  C   UNL     1       5.470   6.040  15.236  0.00  0.00    +0.000 C 
ATOM     18  O   UNL     1       5.386   7.267  15.191  0.00  0.00    +0.000 OA
ENDROOT
BRANCH   1  19
ATOM     19  N   UNL     1       1.961   7.742  19.656  0.00  0.00    +0.000 N 
ATOM     20  H   UNL     1       1.195   7.612  20.311  0.00  0.00    +0.000 HD
BRANCH  19  21
ATOM     21  S   UNL     1       1.532   8.957  18.535  0.00  0.00    +0.000 S 
ATOM     22  O   UNL     1       0.704   8.289  17.543  0.00  0.00    +0.000 OA
ATOM     23  O   UNL     1       2.683   9.738  18.150  0.00  0.00    +0.000 OA
BRANCH  21  27
ATOM     24  C   UNL     1      -1.251  11.634  21.006  0.00  0.00    +0.000 A 
ATOM     25  C   UNL     1      -0.202  10.942  21.606  0.00  0.00    +0.000 A 
ATOM     26  C   UNL     1       0.678  10.178  20.843  0.00  0.00    +0.000 A 
ATOM     27  C   UNL     1       0.455  10.040  19.471  0.00  0.00    +0.000 A 
ATOM     28  C   UNL     1      -0.574  10.750  18.850  0.00  0.00    +0.000 A 
ATOM     29  C   UNL     1      -1.424  11.553  19.623  0.00  0.00    +0.000 A 
BRANCH  24  31
ATOM     30  C   UNL     1      -2.149  11.764  23.196  0.00  0.00    +0.000 C 
ATOM     31  O   UNL     1      -2.054  12.305  21.883  0.00  0.00    +0.000 OA
ENDBRANCH  24  31
ENDBRANCH  21  27
ENDBRANCH  19  21
ENDBRANCH   1  19
TORSDOF 4
ENDMDL
MODEL 9
REMARK VINA RESULT:      -7.7      2.545      3.780
REMARK  Name = 
REMARK  5 active torsions:
REMARK  status: ('A' for Active; 'I' for Inactive)
REMARK    1  A    between atoms: C_1  and  O_2
REMARK    2  A    between atoms: O_2  and  C_3
REMARK    3  A    between atoms: C_6  and  S_7
REMARK    4  A    between atoms: S_7  and  N_10
REMARK    5  A    between atoms: N_10  and  C_11
REMARK                            x       y       z     vdW  Elec       q    Type
REMARK                         _______ _______ _______ _____ _____    ______ ____
ROOT
ATOM      1  C   UNL     1       3.903   4.315  18.278  0.00  0.00    +0.000 A 
ATOM      2  C   UNL     1       3.584   5.645  17.896  0.00  0.00    +0.000 A 
ATOM      3  C   UNL     1       2.760   6.423  18.737  0.00  0.00    +0.000 A 
ATOM      4  C   UNL     1       2.243   7.761  18.784  0.00  0.00    +0.000 A 
ATOM      5  C   UNL     1       1.418   7.806  19.883  0.00  0.00    +0.000 A 
ATOM      6  O   UNL     1       1.463   6.659  20.583  0.00  0.00    +0.000 OA
ATOM      7  C   UNL     1       2.286   5.824  19.898  0.00  0.00    +0.000 A 
ATOM      8  C   UNL     1       2.605   4.526  20.309  0.00  0.00    +0.000 A 
ATOM      9  C   UNL     1       2.148   4.107  21.572  0.00  0.00    +0.000 A 
ATOM     10  C   UNL     1       2.427   2.823  22.005  0.00  0.00    +0.000 A 
ATOM     11  C   UNL     1       3.107   1.951  21.158  0.00  0.00    +0.000 A 
ATOM     12  C   UNL     1       3.575   2.385  19.905  0.00  0.00    +0.000 A 
ATOM     13  C   UNL     1       3.380   3.715  19.458  0.00  0.00    +0.000 A 
ATOM     14  C   UNL     1       0.534   8.872  20.368  0.00  0.00    +0.000 C 
ATOM     15  C   UNL     1       0.999  10.223  19.834  0.00  0.00    +0.000 C 
ATOM     16  C   UNL     1       1.715  10.235  18.464  0.00  0.00    +0.000 C 
ATOM     17  C   UNL     1       2.408   8.948  17.981  0.00  0.00    +0.000 C 
ATOM     18  O   UNL     1       3.080   8.948  16.950  0.00  0.00    +0.000 OA
ENDROOT
BRANCH   1  19
ATOM     19  N   UNL     1       4.846   3.609  17.449  0.00  0.00    +0.000 N 
ATOM     20  H   UNL     1       5.515   3.004  17.921  0.00  0.00    +0.000 HD
BRANCH  19  21
ATOM     21  S   UNL     1       5.662   4.501  16.243  0.00  0.00    +0.000 S 
ATOM     22  O   UNL     1       4.623   5.239  15.543  0.00  0.00    +0.000 OA
ATOM     23  O   UNL     1       6.604   3.670  15.531  0.00  0.00    +0.000 OA
BRANCH  21  27
ATOM     24  C   UNL     1       8.169   7.593  18.516  0.00  0.00    +0.000 A 
ATOM     25  C   UNL     1       7.417   7.958  17.403  0.00  0.00    +0.000 A 
ATOM     26  C   UNL     1       6.609   7.029  16.751  0.00  0.00    +0.000 A 
ATOM     27  C   UNL     1       6.618   5.697  17.171  0.00  0.00    +0.000 A 
ATOM     28  C   UNL     1       7.344   5.322  18.304  0.00  0.00    +0.000 A 
ATOM     29  C   UNL     1       8.116   6.278  18.979  0.00  0.00    +0.000 A 
BRANCH  24  31
ATOM     30  C   UNL     1       8.749   9.891  18.462  0.00  0.00    +0.000 C 
ATOM     31  O   UNL     1       8.943   8.598  19.023  0.00  0.00    +0.000 OA
ENDBRANCH  24  31
ENDBRANCH  21  27
ENDBRANCH  19  21
ENDBRANCH   1  19
TORSDOF 4
ENDMDL
