MODEL 1
REMARK VINA RESULT:      -6.3      0.000      0.000
REMARK  Name = 
REMARK  10 active torsions:
REMARK  status: ('A' for Active; 'I' for Inactive)
REMARK    1  A    between atoms: C_1  and  C_2
REMARK    2  A    between atoms: C_2  and  N_3
REMARK    3  A    between atoms: N_3  and  C_4
REMARK    4  A    between atoms: C_5  and  O_7
REMARK    5  A    between atoms: O_7  and  C_8
REMARK    6  A    between atoms: C_16  and  C_17
REMARK    7  A    between atoms: C_17  and  C_18
REMARK    8  A    between atoms: C_18  and  N_19
REMARK    9  A    between atoms: N_19  and  C_20
REMARK   10  A    between atoms: N_19  and  C_21
REMARK                            x       y       z     vdW  Elec       q    Type
REMARK                         _______ _______ _______ _____ _____    ______ ____
ROOT
ATOM      1  C   UNL     1       0.987   9.202  19.882  0.00  0.00    +0.000 A 
ATOM      2  C   UNL     1       1.186   9.430  18.494  0.00  0.00    +0.000 A 
ATOM      3  C   UNL     1       1.956   8.546  17.726  0.00  0.00    +0.000 A 
ATOM      4  C   UNL     1       2.505   7.432  18.354  0.00  0.00    +0.000 A 
ATOM      5  C   UNL     1       2.326   7.217  19.694  0.00  0.00    +0.000 A 
ATOM      6  C   UNL     1       1.585   8.087  20.494  0.00  0.00    +0.000 A 
ATOM      7  N   UNL     1       2.944   6.037  20.106  0.00  0.00    +0.000 N 
ATOM      8  C   UNL     1       3.456   5.340  18.954  0.00  0.00    +0.000 C 
ATOM      9  C   UNL     1       3.379   6.362  17.773  0.00  0.00    +0.000 C 
ATOM     10  H   UNL     1       2.870   5.636  21.051  0.00  0.00    +0.000 HD
ENDROOT
BRANCH   1  11
ATOM     11  O   UNL     1       0.230  10.045  20.627  0.00  0.00    +0.000 OA
BRANCH  11  14
ATOM     12  N   UNL     1      -0.471  12.259  20.129  0.00  0.00    +0.000 N 
ATOM     13  C   UNL     1      -1.687  11.728  19.531  0.00  0.00    +0.000 C 
ATOM     14  C   UNL     1       0.435  11.392  20.674  0.00  0.00    +0.000 C 
ATOM     15  O   UNL     1       1.440  11.824  21.227  0.00  0.00    +0.000 OA
BRANCH  12  17
ATOM     16  C   UNL     1       0.116  14.314  18.853  0.00  0.00    +0.000 C 
ATOM     17  C   UNL     1      -0.258  13.702  20.208  0.00  0.00    +0.000 C 
ENDBRANCH  12  17
ENDBRANCH  11  14
ENDBRANCH   1  11
BRANCH   9  18
ATOM     18  C   UNL     1       4.747   6.995  17.424  0.00  0.00    +0.000 C 
BRANCH  18  19
ATOM     19  C   UNL     1       5.469   6.262  16.272  0.00  0.00    +0.000 C 
BRANCH  19  20
ATOM     20  N   UNL     1       6.925   6.110  16.495  0.00  0.00    +0.000 NA
ATOM     21  C   UNL     1       7.458   7.125  17.425  0.00  0.00    +0.000 C 
ATOM     22  C   UNL     1       7.180   4.771  17.056  0.00  0.00    +0.000 C 
ENDBRANCH  19  20
ENDBRANCH  18  19
ENDBRANCH   9  18
TORSDOF 6
ENDMDL
MODEL 2
REMARK VINA RESULT:      -6.2      3.102      7.635
REMARK  Name = 
REMARK  10 active torsions:
REMARK  status: ('A' for Active; 'I' for Inactive)
REMARK    1  A    between atoms: C_1  and  C_2
REMARK    2  A    between atoms: C_2  and  N_3
REMARK    3  A    between atoms: N_3  and  C_4
REMARK    4  A    between atoms: C_5  and  O_7
REMARK    5  A    between atoms: O_7  and  C_8
REMARK    6  A    between atoms: C_16  and  C_17
REMARK    7  A    between atoms: C_17  and  C_18
REMARK    8  A    between atoms: C_18  and  N_19
REMARK    9  A    between atoms: N_19  and  C_20
REMARK   10  A    between atoms: N_19  and  C_21
REMARK                            x       y       z     vdW  Elec       q    Type
REMARK                         _______ _______ _______ _____ _____    ______ ____
ROOT
ATOM      1  C   UNL     1       2.688   6.952  18.369  0.00  0.00    +0.000 A 
ATOM      2  C   UNL     1       2.433   8.094  17.563  0.00  0.00    +0.000 A 
ATOM      3  C   UNL     1       1.816   9.230  18.104  0.00  0.00    +0.000 A 
ATOM      4  C   UNL     1       1.476   9.216  19.454  0.00  0.00    +0.000 A 
ATOM      5  C   UNL     1       1.708   8.113  20.229  0.00  0.00    +0.000 A 
ATOM      6  C   UNL     1       2.299   6.957  19.719  0.00  0.00    +0.000 A 
ATOM      7  N   UNL     1       1.308   8.326  21.548  0.00  0.00    +0.000 N 
ATOM      8  C   UNL     1       0.907   9.700  21.708  0.00  0.00    +0.000 C 
ATOM      9  C   UNL     1       0.791  10.278  20.260  0.00  0.00    +0.000 C 
ATOM     10  H   UNL     1       1.463   7.664  22.321  0.00  0.00    +0.000 HD
ENDROOT
BRANCH   1  11
ATOM     11  O   UNL     1       3.299   5.856  17.855  0.00  0.00    +0.000 OA
BRANCH  11  14
ATOM     12  N   UNL     1       3.339   3.575  18.513  0.00  0.00    +0.000 N 
ATOM     13  C   UNL     1       4.573   3.818  19.246  0.00  0.00    +0.000 C 
ATOM     14  C   UNL     1       2.737   4.614  17.859  0.00  0.00    +0.000 C 
ATOM     15  O   UNL     1       1.672   4.439  17.280  0.00  0.00    +0.000 OA
BRANCH  12  17
ATOM     16  C   UNL     1       1.692   2.108  19.668  0.00  0.00    +0.000 C 
ATOM     17  C   UNL     1       2.717   2.253  18.537  0.00  0.00    +0.000 C 
ENDBRANCH  12  17
ENDBRANCH  11  14
ENDBRANCH   1  11
BRANCH   9  18
ATOM     18  C   UNL     1      -0.670  10.391  19.764  0.00  0.00    +0.000 C 
BRANCH  18  19
ATOM     19  C   UNL     1      -0.883  11.577  18.798  0.00  0.00    +0.000 C 
BRANCH  19  20
ATOM     20  N   UNL     1      -1.874  11.295  17.734  0.00  0.00    +0.000 NA
ATOM     21  C   UNL     1      -1.766   9.916  17.219  0.00  0.00    +0.000 C 
ATOM     22  C   UNL     1      -3.228  11.491  18.285  0.00  0.00    +0.000 C 
ENDBRANCH  19  20
ENDBRANCH  18  19
ENDBRANCH   9  18
TORSDOF 6
ENDMDL
MODEL 3
REMARK VINA RESULT:      -6.2      1.320      1.787
REMARK  Name = 
REMARK  10 active torsions:
REMARK  status: ('A' for Active; 'I' for Inactive)
REMARK    1  A    between atoms: C_1  and  C_2
REMARK    2  A    between atoms: C_2  and  N_3
REMARK    3  A    between atoms: N_3  and  C_4
REMARK    4  A    between atoms: C_5  and  O_7
REMARK    5  A    between atoms: O_7  and  C_8
REMARK    6  A    between atoms: C_16  and  C_17
REMARK    7  A    between atoms: C_17  and  C_18
REMARK    8  A    between atoms: C_18  and  N_19
REMARK    9  A    between atoms: N_19  and  C_20
REMARK   10  A    between atoms: N_19  and  C_21
REMARK                            x       y       z     vdW  Elec       q    Type
REMARK                         _______ _______ _______ _____ _____    ______ ____
ROOT
ATOM      1  C   UNL     1       1.415   9.130  19.722  0.00  0.00    +0.000 A 
ATOM      2  C   UNL     1       1.820   9.084  18.361  0.00  0.00    +0.000 A 
ATOM      3  C   UNL     1       2.408   7.929  17.827  0.00  0.00    +0.000 A 
ATOM      4  C   UNL     1       2.568   6.825  18.659  0.00  0.00    +0.000 A 
ATOM      5  C   UNL     1       2.191   6.871  19.974  0.00  0.00    +0.000 A 
ATOM      6  C   UNL     1       1.624   8.011  20.545  0.00  0.00    +0.000 A 
ATOM      7  N   UNL     1       2.423   5.653  20.611  0.00  0.00    +0.000 N 
ATOM      8  C   UNL     1       2.856   4.682  19.641  0.00  0.00    +0.000 C 
ATOM      9  C   UNL     1       3.185   5.495  18.347  0.00  0.00    +0.000 C 
ATOM     10  H   UNL     1       2.141   5.434  21.577  0.00  0.00    +0.000 HD
ENDROOT
BRANCH   1  11
ATOM     11  O   UNL     1       0.832  10.240  20.240  0.00  0.00    +0.000 OA
BRANCH  11  14
ATOM     12  N   UNL     1       0.553  12.321  19.131  0.00  0.00    +0.000 N 
ATOM     13  C   UNL     1       1.916  12.685  19.494  0.00  0.00    +0.000 C 
ATOM     14  C   UNL     1       0.070  11.098  19.503  0.00  0.00    +0.000 C 
ATOM     15  O   UNL     1      -1.056  10.755  19.163  0.00  0.00    +0.000 OA
BRANCH  12  17
ATOM     16  C   UNL     1      -0.369  14.625  18.933  0.00  0.00    +0.000 C 
ATOM     17  C   UNL     1      -0.258  13.225  18.319  0.00  0.00    +0.000 C 
ENDBRANCH  12  17
ENDBRANCH  11  14
ENDBRANCH   1  11
BRANCH   9  18
ATOM     18  C   UNL     1       4.702   5.708  18.128  0.00  0.00    +0.000 C 
BRANCH  18  19
ATOM     19  C   UNL     1       5.558   4.580  18.745  0.00  0.00    +0.000 C 
BRANCH  19  20
ATOM     20  N   UNL     1       6.987   4.653  18.360  0.00  0.00    +0.000 NA
ATOM     21  C   UNL     1       7.175   4.629  16.897  0.00  0.00    +0.000 C 
ATOM     22  C   UNL     1       7.556   5.904  18.892  0.00  0.00    +0.000 C 
ENDBRANCH  19  20
ENDBRANCH  18  19
ENDBRANCH   9  18
TORSDOF 6
ENDMDL
MODEL 4
REMARK VINA RESULT:      -6.2      2.765      7.914
REMARK  Name = 
REMARK  10 active torsions:
REMARK  status: ('A' for Active; 'I' for Inactive)
REMARK    1  A    between atoms: C_1  and  C_2
REMARK    2  A    between atoms: C_2  and  N_3
REMARK    3  A    between atoms: N_3  and  C_4
REMARK    4  A    between atoms: C_5  and  O_7
REMARK    5  A    between atoms: O_7  and  C_8
REMARK    6  A    between atoms: C_16  and  C_17
REMARK    7  A    between atoms: C_17  and  C_18
REMARK    8  A    between atoms: C_18  and  N_19
REMARK    9  A    between atoms: N_19  and  C_20
REMARK   10  A    between atoms: N_19  and  C_21
REMARK                            x       y       z     vdW  Elec       q    Type
REMARK                         _______ _______ _______ _____ _____    ______ ____
ROOT
ATOM      1  C   UNL     1       2.415   7.054  19.405  0.00  0.00    +0.000 A 
ATOM      2  C   UNL     1       2.435   7.640  18.111  0.00  0.00    +0.000 A 
ATOM      3  C   UNL     1       1.772   8.849  17.861  0.00  0.00    +0.000 A 
ATOM      4  C   UNL     1       1.109   9.468  18.916  0.00  0.00    +0.000 A 
ATOM      5  C   UNL     1       1.077   8.900  20.161  0.00  0.00    +0.000 A 
ATOM      6  C   UNL     1       1.706   7.687  20.440  0.00  0.00    +0.000 A 
ATOM      7  N   UNL     1       0.378   9.698  21.065  0.00  0.00    +0.000 N 
ATOM      8  C   UNL     1       0.032  10.945  20.433  0.00  0.00    +0.000 C 
ATOM      9  C   UNL     1       0.311  10.737  18.909  0.00  0.00    +0.000 C 
ATOM     10  H   UNL     1       0.298   9.508  22.074  0.00  0.00    +0.000 HD
ENDROOT
BRANCH   1  11
ATOM     11  O   UNL     1       3.068   5.892  19.656  0.00  0.00    +0.000 OA
BRANCH  11  14
ATOM     12  N   UNL     1       3.767   4.007  18.393  0.00  0.00    +0.000 N 
ATOM     13  C   UNL     1       5.139   4.491  18.450  0.00  0.00    +0.000 C 
ATOM     14  C   UNL     1       2.784   4.720  19.020  0.00  0.00    +0.000 C 
ATOM     15  O   UNL     1       1.633   4.302  19.026  0.00  0.00    +0.000 OA
BRANCH  12  17
ATOM     16  C   UNL     1       3.684   1.533  18.657  0.00  0.00    +0.000 C 
ATOM     17  C   UNL     1       3.461   2.738  17.737  0.00  0.00    +0.000 C 
ENDBRANCH  12  17
ENDBRANCH  11  14
ENDBRANCH   1  11
BRANCH   9  18
ATOM     18  C   UNL     1      -0.974  10.492  18.081  0.00  0.00    +0.000 C 
BRANCH  18  19
ATOM     19  C   UNL     1      -1.982  11.658  18.183  0.00  0.00    +0.000 C 
BRANCH  19  20
ATOM     20  N   UNL     1      -3.104  11.547  17.222  0.00  0.00    +0.000 NA
ATOM     21  C   UNL     1      -2.710  10.859  15.977  0.00  0.00    +0.000 C 
ATOM     22  C   UNL     1      -4.197  10.791  17.858  0.00  0.00    +0.000 C 
ENDBRANCH  19  20
ENDBRANCH  18  19
ENDBRANCH   9  18
TORSDOF 6
ENDMDL
MODEL 5
REMARK VINA RESULT:      -6.2      5.697      8.989
REMARK  Name = 
REMARK  10 active torsions:
REMARK  status: ('A' for Active; 'I' for Inactive)
REMARK    1  A    between atoms: C_1  and  C_2
REMARK    2  A    between atoms: C_2  and  N_3
REMARK    3  A    between atoms: N_3  and  C_4
REMARK    4  A    between atoms: C_5  and  O_7
REMARK    5  A    between atoms: O_7  and  C_8
REMARK    6  A    between atoms: C_16  and  C_17
REMARK    7  A    between atoms: C_17  and  C_18
REMARK    8  A    between atoms: C_18  and  N_19
REMARK    9  A    between atoms: N_19  and  C_20
REMARK   10  A    between atoms: N_19  and  C_21
REMARK                            x       y       z     vdW  Elec       q    Type
REMARK                         _______ _______ _______ _____ _____    ______ ____
ROOT
ATOM      1  C   UNL     1       5.120   4.974  15.253  0.00  0.00    +0.000 A 
ATOM      2  C   UNL     1       5.109   6.219  15.936  0.00  0.00    +0.000 A 
ATOM      3  C   UNL     1       4.906   6.276  17.321  0.00  0.00    +0.000 A 
ATOM      4  C   UNL     1       4.733   5.080  18.012  0.00  0.00    +0.000 A 
ATOM      5  C   UNL     1       4.730   3.879  17.355  0.00  0.00    +0.000 A 
ATOM      6  C   UNL     1       4.906   3.787  15.975  0.00  0.00    +0.000 A 
ATOM      7  N   UNL     1       4.561   2.816  18.241  0.00  0.00    +0.000 N 
ATOM      8  C   UNL     1       4.588   3.313  19.593  0.00  0.00    +0.000 C 
ATOM      9  C   UNL     1       4.475   4.868  19.473  0.00  0.00    +0.000 C 
ATOM     10  H   UNL     1       4.610   1.821  17.980  0.00  0.00    +0.000 HD
ENDROOT
BRANCH   1  11
ATOM     11  O   UNL     1       5.332   4.912  13.915  0.00  0.00    +0.000 OA
BRANCH  11  14
ATOM     12  N   UNL     1       6.005   3.295  12.311  0.00  0.00    +0.000 N 
ATOM     13  C   UNL     1       4.646   3.261  11.791  0.00  0.00    +0.000 C 
ATOM     14  C   UNL     1       6.300   4.139  13.345  0.00  0.00    +0.000 C 
ATOM     15  O   UNL     1       7.449   4.218  13.762  0.00  0.00    +0.000 OA
BRANCH  12  17
ATOM     16  C   UNL     1       6.510   1.190  11.082  0.00  0.00    +0.000 C 
ATOM     17  C   UNL     1       7.052   2.490  11.687  0.00  0.00    +0.000 C 
ENDBRANCH  12  17
ENDBRANCH  11  14
ENDBRANCH   1  11
BRANCH   9  18
ATOM     18  C   UNL     1       3.059   5.404  19.794  0.00  0.00    +0.000 C 
BRANCH  18  19
ATOM     19  C   UNL     1       2.446   4.755  21.055  0.00  0.00    +0.000 C 
BRANCH  19  20
ATOM     20  N   UNL     1       1.245   3.937  20.768  0.00  0.00    +0.000 NA
ATOM     21  C   UNL     1       1.062   3.699  19.324  0.00  0.00    +0.000 C 
ATOM     22  C   UNL     1       1.385   2.638  21.450  0.00  0.00    +0.000 C 
ENDBRANCH  19  20
ENDBRANCH  18  19
ENDBRANCH   9  18
TORSDOF 6
ENDMDL
MODEL 6
REMARK VINA RESULT:      -6.2      3.177      5.030
REMARK  Name = 
REMARK  10 active torsions:
REMARK  status: ('A' for Active; 'I' for Inactive)
REMARK    1  A    between atoms: C_1  and  C_2
REMARK    2  A    between atoms: C_2  and  N_3
REMARK    3  A    between atoms: N_3  and  C_4
REMARK    4  A    between atoms: C_5  and  O_7
REMARK    5  A    between atoms: O_7  and  C_8
REMARK    6  A    between atoms: C_16  and  C_17
REMARK    7  A    between atoms: C_17  and  C_18
REMARK    8  A    between atoms: C_18  and  N_19
REMARK    9  A    between atoms: N_19  and  C_20
REMARK   10  A    between atoms: N_19  and  C_21
REMARK                            x       y       z     vdW  Elec       q    Type
REMARK                         _______ _______ _______ _____ _____    ______ ____
ROOT
ATOM      1  C   UNL     1       3.665   6.217  18.001  0.00  0.00    +0.000 A 
ATOM      2  C   UNL     1       3.170   4.937  17.637  0.00  0.00    +0.000 A 
ATOM      3  C   UNL     1       3.886   4.114  16.758  0.00  0.00    +0.000 A 
ATOM      4  C   UNL     1       5.103   4.576  16.265  0.00  0.00    +0.000 A 
ATOM      5  C   UNL     1       5.577   5.815  16.604  0.00  0.00    +0.000 A 
ATOM      6  C   UNL     1       4.880   6.669  17.457  0.00  0.00    +0.000 A 
ATOM      7  N   UNL     1       6.816   6.062  16.015  0.00  0.00    +0.000 N 
ATOM      8  C   UNL     1       7.274   4.870  15.348  0.00  0.00    +0.000 C 
ATOM      9  C   UNL     1       6.040   3.912  15.303  0.00  0.00    +0.000 C 
ATOM     10  H   UNL     1       7.395   6.894  16.196  0.00  0.00    +0.000 HD
ENDROOT
BRANCH   1  11
ATOM     11  O   UNL     1       2.984   7.012  18.863  0.00  0.00    +0.000 OA
BRANCH  11  14
ATOM     12  N   UNL     1       1.463   8.769  19.349  0.00  0.00    +0.000 N 
ATOM     13  C   UNL     1       1.391   8.312  20.729  0.00  0.00    +0.000 C 
ATOM     14  C   UNL     1       2.276   8.109  18.471  0.00  0.00    +0.000 C 
ATOM     15  O   UNL     1       2.388   8.510  17.319  0.00  0.00    +0.000 OA
BRANCH  12  17
ATOM     16  C   UNL     1       0.874  11.119  19.924  0.00  0.00    +0.000 C 
ATOM     17  C   UNL     1       0.729   9.961  18.929  0.00  0.00    +0.000 C 
ENDBRANCH  12  17
ENDBRANCH  11  14
ENDBRANCH   1  11
BRANCH   9  18
ATOM     18  C   UNL     1       5.353   3.867  13.916  0.00  0.00    +0.000 C 
BRANCH  18  19
ATOM     19  C   UNL     1       6.351   3.628  12.762  0.00  0.00    +0.000 C 
BRANCH  19  20
ATOM     20  N   UNL     1       5.721   3.045  11.555  0.00  0.00    +0.000 NA
ATOM     21  C   UNL     1       5.939   1.589  11.456  0.00  0.00    +0.000 C 
ATOM     22  C   UNL     1       4.271   3.306  11.606  0.00  0.00    +0.000 C 
ENDBRANCH  19  20
ENDBRANCH  18  19
ENDBRANCH   9  18
TORSDOF 6
ENDMDL
MODEL 7
REMARK VINA RESULT:      -6.2      2.510      7.499
REMARK  Name = 
REMARK  10 active torsions:
REMARK  status: ('A' for Active; 'I' for Inactive)
REMARK    1  A    between atoms: C_1  and  C_2
REMARK    2  A    between atoms: C_2  and  N_3
REMARK    3  A    between atoms: N_3  and  C_4
REMARK    4  A    between atoms: C_5  and  O_7
REMARK    5  A    between atoms: O_7  and  C_8
REMARK    6  A    between atoms: C_16  and  C_17
REMARK    7  A    between atoms: C_17  and  C_18
REMARK    8  A    between atoms: C_18  and  N_19
REMARK    9  A    between atoms: N_19  and  C_20
REMARK   10  A    between atoms: N_19  and  C_21
REMARK                            x       y       z     vdW  Elec       q    Type
REMARK                         _______ _______ _______ _____ _____    ______ ____
ROOT
ATOM      1  C   UNL     1       2.799   7.021  18.249  0.00  0.00    +0.000 A 
ATOM      2  C   UNL     1       2.472   8.194  17.517  0.00  0.00    +0.000 A 
ATOM      3  C   UNL     1       1.806   9.261  18.134  0.00  0.00    +0.000 A 
ATOM      4  C   UNL     1       1.489   9.149  19.485  0.00  0.00    +0.000 A 
ATOM      5  C   UNL     1       1.790   8.015  20.189  0.00  0.00    +0.000 A 
ATOM      6  C   UNL     1       2.432   6.925  19.602  0.00  0.00    +0.000 A 
ATOM      7  N   UNL     1       1.401   8.128  21.523  0.00  0.00    +0.000 N 
ATOM      8  C   UNL     1       0.932   9.467  21.771  0.00  0.00    +0.000 C 
ATOM      9  C   UNL     1       0.763  10.123  20.362  0.00  0.00    +0.000 C 
ATOM     10  H   UNL     1       1.603   7.430  22.253  0.00  0.00    +0.000 HD
ENDROOT
BRANCH   1  11
ATOM     11  O   UNL     1       3.457   5.991  17.662  0.00  0.00    +0.000 OA
BRANCH  11  14
ATOM     12  N   UNL     1       5.572   5.067  18.224  0.00  0.00    +0.000 N 
ATOM     13  C   UNL     1       4.911   4.122  19.112  0.00  0.00    +0.000 C 
ATOM     14  C   UNL     1       4.813   5.956  17.515  0.00  0.00    +0.000 C 
ATOM     15  O   UNL     1       5.347   6.724  16.724  0.00  0.00    +0.000 OA
BRANCH  12  17
ATOM     16  C   UNL     1       7.774   5.833  19.096  0.00  0.00    +0.000 C 
ATOM     17  C   UNL     1       7.020   5.016  18.041  0.00  0.00    +0.000 C 
ENDBRANCH  12  17
ENDBRANCH  11  14
ENDBRANCH   1  11
BRANCH   9  18
ATOM     18  C   UNL     1      -0.710  10.189  19.893  0.00  0.00    +0.000 C 
BRANCH  18  19
ATOM     19  C   UNL     1      -1.328  11.595  20.060  0.00  0.00    +0.000 C 
BRANCH  19  20
ATOM     20  N   UNL     1      -1.613  12.266  18.771  0.00  0.00    +0.000 NA
ATOM     21  C   UNL     1      -0.481  13.093  18.308  0.00  0.00    +0.000 C 
ATOM     22  C   UNL     1      -1.897  11.237  17.755  0.00  0.00    +0.000 C 
ENDBRANCH  19  20
ENDBRANCH  18  19
ENDBRANCH   9  18
TORSDOF 6
ENDMDL
MODEL 8
REMARK VINA RESULT:      -6.2      2.872      7.902
REMARK  Name = 
REMARK  10 active torsions:
REMARK  status: ('A' for Active; 'I' for Inactive)
REMARK    1  A    between atoms: C_1  and  C_2
REMARK    2  A    between atoms: C_2  and  N_3
REMARK    3  A    between atoms: N_3  and  C_4
REMARK    4  A    between atoms: C_5  and  O_7
REMARK    5  A    between atoms: O_7  and  C_8
REMARK    6  A    between atoms: C_16  and  C_17
REMARK    7  A    between atoms: C_17  and  C_18
REMARK    8  A    between atoms: C_18  and  N_19
REMARK    9  A    between atoms: N_19  and  C_20
REMARK   10  A    between atoms: N_19  and  C_21
REMARK                            x       y       z     vdW  Elec       q    Type
REMARK                         _______ _______ _______ _____ _____    ______ ____
ROOT
ATOM      1  C   UNL     1       2.402   7.211  19.593  0.00  0.00    +0.000 A 
ATOM      2  C   UNL     1       2.461   7.635  18.238  0.00  0.00    +0.000 A 
ATOM      3  C   UNL     1       1.730   8.748  17.803  0.00  0.00    +0.000 A 
ATOM      4  C   UNL     1       0.959   9.436  18.735  0.00  0.00    +0.000 A 
ATOM      5  C   UNL     1       0.889   9.022  20.038  0.00  0.00    +0.000 A 
ATOM      6  C   UNL     1       1.586   7.906  20.501  0.00  0.00    +0.000 A 
ATOM      7  N   UNL     1       0.079   9.866  20.796  0.00  0.00    +0.000 N 
ATOM      8  C   UNL     1      -0.316  10.995  19.995  0.00  0.00    +0.000 C 
ATOM      9  C   UNL     1       0.073  10.626  18.526  0.00  0.00    +0.000 C 
ATOM     10  H   UNL     1      -0.051   9.794  21.815  0.00  0.00    +0.000 HD
ENDROOT
BRANCH   1  11
ATOM     11  O   UNL     1       3.121   6.144  20.023  0.00  0.00    +0.000 OA
BRANCH  11  14
ATOM     12  N   UNL     1       3.444   3.866  19.436  0.00  0.00    +0.000 N 
ATOM     13  C   UNL     1       4.790   4.184  18.982  0.00  0.00    +0.000 C 
ATOM     14  C   UNL     1       2.666   4.860  19.960  0.00  0.00    +0.000 C 
ATOM     15  O   UNL     1       1.550   4.600  20.393  0.00  0.00    +0.000 OA
BRANCH  12  17
ATOM     16  C   UNL     1       3.427   1.738  18.143  0.00  0.00    +0.000 C 
ATOM     17  C   UNL     1       2.961   2.487  19.396  0.00  0.00    +0.000 C 
ENDBRANCH  12  17
ENDBRANCH  11  14
ENDBRANCH   1  11
BRANCH   9  18
ATOM     18  C   UNL     1      -1.136  10.182  17.668  0.00  0.00    +0.000 C 
BRANCH  18  19
ATOM     19  C   UNL     1      -2.434  10.940  18.025  0.00  0.00    +0.000 C 
BRANCH  19  20
ATOM     20  N   UNL     1      -3.518  10.743  17.035  0.00  0.00    +0.000 NA
ATOM     21  C   UNL     1      -4.591  11.747  17.172  0.00  0.00    +0.000 C 
ATOM     22  C   UNL     1      -2.944  10.842  15.680  0.00  0.00    +0.000 C 
ENDBRANCH  19  20
ENDBRANCH  18  19
ENDBRANCH   9  18
TORSDOF 6
ENDMDL
MODEL 9
REMARK VINA RESULT:      -6.1      1.058      1.479
REMARK  Name = 
REMARK  10 active torsions:
REMARK  status: ('A' for Active; 'I' for Inactive)
REMARK    1  A    between atoms: C_1  and  C_2
REMARK    2  A    between atoms: C_2  and  N_3
REMARK    3  A    between atoms: N_3  and  C_4
REMARK    4  A    between atoms: C_5  and  O_7
REMARK    5  A    between atoms: O_7  and  C_8
REMARK    6  A    between atoms: C_16  and  C_17
REMARK    7  A    between atoms: C_17  and  C_18
REMARK    8  A    between atoms: C_18  and  N_19
REMARK    9  A    between atoms: N_19  and  C_20
REMARK   10  A    between atoms: N_19  and  C_21
REMARK                            x       y       z     vdW  Elec       q    Type
REMARK                         _______ _______ _______ _____ _____    ______ ____
ROOT
ATOM      1  C   UNL     1       1.297   9.138  19.558  0.00  0.00    +0.000 A 
ATOM      2  C   UNL     1       1.646   9.216  18.183  0.00  0.00    +0.000 A 
ATOM      3  C   UNL     1       2.364   8.183  17.566  0.00  0.00    +0.000 A 
ATOM      4  C   UNL     1       2.710   7.072  18.329  0.00  0.00    +0.000 A 
ATOM      5  C   UNL     1       2.386   6.999  19.657  0.00  0.00    +0.000 A 
ATOM      6  C   UNL     1       1.693   8.018  20.310  0.00  0.00    +0.000 A 
ATOM      7  N   UNL     1       2.811   5.795  20.218  0.00  0.00    +0.000 N 
ATOM      8  C   UNL     1       3.332   4.943  19.180  0.00  0.00    +0.000 C 
ATOM      9  C   UNL     1       3.490   5.859  17.922  0.00  0.00    +0.000 C 
ATOM     10  H   UNL     1       2.603   5.491  21.180  0.00  0.00    +0.000 HD
ENDROOT
BRANCH   1  11
ATOM     11  O   UNL     1       0.589  10.127  20.157  0.00  0.00    +0.000 OA
BRANCH  11  14
ATOM     12  N   UNL     1       0.303  12.303  19.249  0.00  0.00    +0.000 N 
ATOM     13  C   UNL     1       1.631  12.664  19.725  0.00  0.00    +0.000 C 
ATOM     14  C   UNL     1      -0.159  11.035  19.468  0.00  0.00    +0.000 C 
ATOM     15  O   UNL     1      -1.252  10.698  19.030  0.00  0.00    +0.000 OA
BRANCH  12  17
ATOM     16  C   UNL     1      -0.146  14.715  18.830  0.00  0.00    +0.000 C 
ATOM     17  C   UNL     1      -0.491  13.262  18.486  0.00  0.00    +0.000 C 
ENDBRANCH  12  17
ENDBRANCH  11  14
ENDBRANCH   1  11
BRANCH   9  18
ATOM     18  C   UNL     1       4.953   6.291  17.663  0.00  0.00    +0.000 C 
BRANCH  18  19
ATOM     19  C   UNL     1       5.394   6.060  16.201  0.00  0.00    +0.000 C 
BRANCH  19  20
ATOM     20  N   UNL     1       6.529   5.116  16.074  0.00  0.00    +0.000 NA
ATOM     21  C   UNL     1       7.180   4.846  17.371  0.00  0.00    +0.000 C 
ATOM     22  C   UNL     1       6.026   3.845  15.521  0.00  0.00    +0.000 C 
ENDBRANCH  19  20
ENDBRANCH  18  19
ENDBRANCH   9  18
TORSDOF 6
ENDMDL
