MODEL 1
REMARK VINA RESULT:      -8.5      0.000      0.000
REMARK  Name = 
REMARK  4 active torsions:
REMARK  status: ('A' for Active; 'I' for Inactive)
REMARK    1  A    between atoms: C_2  and  C_3
REMARK    2  A    between atoms: C_3  and  C_4
REMARK    3  A    between atoms: C_7  and  N_8
REMARK    4  A    between atoms: C_17  and  C_18
REMARK                            x       y       z     vdW  Elec       q    Type
REMARK                         _______ _______ _______ _____ _____    ______ ____
ROOT
ATOM      1  N   UNL     1       2.595   7.651  20.105  0.00  0.00    +0.000 N 
ATOM      2  C   UNL     1       2.532   6.314  19.934  0.00  0.00    +0.000 A 
ATOM      3  N   UNL     1       3.699   5.679  19.598  0.00  0.00    +0.000 NA
ATOM      4  C   UNL     1       3.304   4.477  19.232  0.00  0.00    +0.000 A 
ATOM      5  N   UNL     1       1.969   4.368  19.481  0.00  0.00    +0.000 N 
ATOM      6  N   UNL     1       1.457   5.518  19.917  0.00  0.00    +0.000 NA
ATOM      7  C   UNL     1       1.118   3.262  19.107  0.00  0.00    +0.000 C 
ATOM      8  C   UNL     1       1.931   2.006  18.801  0.00  0.00    +0.000 C 
ATOM      9  C   UNL     1       3.127   2.342  17.907  0.00  0.00    +0.000 C 
ATOM     10  C   UNL     1       4.076   3.380  18.563  0.00  0.00    +0.000 C 
ATOM     11  H   UNL     1       3.529   8.019  19.978  0.00  0.00    +0.000 HD
ENDROOT
BRANCH  10  12
ATOM     12  C   UNL     1       5.040   3.916  17.512  0.00  0.00    +0.000 A 
ATOM     13  C   UNL     1       4.637   4.050  16.169  0.00  0.00    +0.000 A 
ATOM     14  C   UNL     1       5.530   4.497  15.199  0.00  0.00    +0.000 A 
ATOM     15  C   UNL     1       6.827   4.824  15.567  0.00  0.00    +0.000 A 
ATOM     16  F   UNL     1       7.692   5.239  14.632  0.00  0.00    +0.000 F 
ATOM     17  C   UNL     1       7.243   4.723  16.890  0.00  0.00    +0.000 A 
ATOM     18  C   UNL     1       6.351   4.271  17.864  0.00  0.00    +0.000 A 
ENDBRANCH  10  12
BRANCH   1  22
ATOM     19  C   UNL     1      -0.624  10.189  19.045  0.00  0.00    +0.000 A 
ATOM     20  C   UNL     1      -0.440   9.814  20.379  0.00  0.00    +0.000 A 
ATOM     21  C   UNL     1       0.655   9.030  20.743  0.00  0.00    +0.000 A 
ATOM     22  C   UNL     1       1.584   8.587  19.794  0.00  0.00    +0.000 A 
ATOM     23  C   UNL     1       1.445   9.048  18.478  0.00  0.00    +0.000 A 
ATOM     24  C   UNL     1       0.352   9.841  18.106  0.00  0.00    +0.000 A 
BRANCH  19  25
ATOM     25  C   UNL     1      -1.856  10.954  18.646  0.00  0.00    +0.000 C 
BRANCH  25  27
ATOM     26  N   UNL     1      -2.506  10.595  15.966  0.00  0.00    +0.000 NA
ATOM     27  C   UNL     1      -2.213  10.757  17.182  0.00  0.00    +0.000 C 
ENDBRANCH  25  27
ENDBRANCH  19  25
ENDBRANCH   1  22
TORSDOF 4
ENDMDL
MODEL 2
REMARK VINA RESULT:      -8.4      0.552      1.110
REMARK  Name = 
REMARK  4 active torsions:
REMARK  status: ('A' for Active; 'I' for Inactive)
REMARK    1  A    between atoms: C_2  and  C_3
REMARK    2  A    between atoms: C_3  and  C_4
REMARK    3  A    between atoms: C_7  and  N_8
REMARK    4  A    between atoms: C_17  and  C_18
REMARK                            x       y       z     vdW  Elec       q    Type
REMARK                         _______ _______ _______ _____ _____    ______ ____
ROOT
ATOM      1  N   UNL     1       2.526   7.407  20.367  0.00  0.00    +0.000 N 
ATOM      2  C   UNL     1       2.488   6.078  20.140  0.00  0.00    +0.000 A 
ATOM      3  N   UNL     1       3.661   5.484  19.751  0.00  0.00    +0.000 NA
ATOM      4  C   UNL     1       3.284   4.291  19.341  0.00  0.00    +0.000 A 
ATOM      5  N   UNL     1       1.957   4.141  19.614  0.00  0.00    +0.000 N 
ATOM      6  N   UNL     1       1.431   5.259  20.111  0.00  0.00    +0.000 NA
ATOM      7  C   UNL     1       1.123   3.033  19.211  0.00  0.00    +0.000 C 
ATOM      8  C   UNL     1       1.955   1.811  18.832  0.00  0.00    +0.000 C 
ATOM      9  C   UNL     1       3.123   2.212  17.929  0.00  0.00    +0.000 C 
ATOM     10  C   UNL     1       4.064   3.242  18.608  0.00  0.00    +0.000 C 
ATOM     11  H   UNL     1       3.449   7.801  20.236  0.00  0.00    +0.000 HD
ENDROOT
BRANCH  10  12
ATOM     12  C   UNL     1       4.992   3.844  17.562  0.00  0.00    +0.000 A 
ATOM     13  C   UNL     1       4.576   3.973  16.222  0.00  0.00    +0.000 A 
ATOM     14  C   UNL     1       5.439   4.482  15.255  0.00  0.00    +0.000 A 
ATOM     15  C   UNL     1       6.717   4.876  15.622  0.00  0.00    +0.000 A 
ATOM     16  F   UNL     1       7.554   5.351  14.689  0.00  0.00    +0.000 F 
ATOM     17  C   UNL     1       7.144   4.781  16.942  0.00  0.00    +0.000 A 
ATOM     18  C   UNL     1       6.282   4.267  17.913  0.00  0.00    +0.000 A 
ENDBRANCH  10  12
BRANCH   1  22
ATOM     19  C   UNL     1      -0.386  10.425  19.784  0.00  0.00    +0.000 A 
ATOM     20  C   UNL     1       0.425  10.022  18.719  0.00  0.00    +0.000 A 
ATOM     21  C   UNL     1       1.343   8.984  18.889  0.00  0.00    +0.000 A 
ATOM     22  C   UNL     1       1.488   8.333  20.120  0.00  0.00    +0.000 A 
ATOM     23  C   UNL     1       0.605   8.678  21.152  0.00  0.00    +0.000 A 
ATOM     24  C   UNL     1      -0.323   9.714  20.987  0.00  0.00    +0.000 A 
BRANCH  19  25
ATOM     25  C   UNL     1      -1.304  11.605  19.620  0.00  0.00    +0.000 C 
BRANCH  25  27
ATOM     26  N   UNL     1      -2.780  11.487  17.267  0.00  0.00    +0.000 NA
ATOM     27  C   UNL     1      -2.110  11.541  18.334  0.00  0.00    +0.000 C 
ENDBRANCH  25  27
ENDBRANCH  19  25
ENDBRANCH   1  22
TORSDOF 4
ENDMDL
MODEL 3
REMARK VINA RESULT:      -8.3      0.356      1.383
REMARK  Name = 
REMARK  4 active torsions:
REMARK  status: ('A' for Active; 'I' for Inactive)
REMARK    1  A    between atoms: C_2  and  C_3
REMARK    2  A    between atoms: C_3  and  C_4
REMARK    3  A    between atoms: C_7  and  N_8
REMARK    4  A    between atoms: C_17  and  C_18
REMARK                            x       y       z     vdW  Elec       q    Type
REMARK                         _______ _______ _______ _____ _____    ______ ____
ROOT
ATOM      1  N   UNL     1       2.553   7.544  20.078  0.00  0.00    +0.000 N 
ATOM      2  C   UNL     1       2.548   6.202  19.949  0.00  0.00    +0.000 A 
ATOM      3  N   UNL     1       3.735   5.610  19.603  0.00  0.00    +0.000 NA
ATOM      4  C   UNL     1       3.387   4.381  19.282  0.00  0.00    +0.000 A 
ATOM      5  N   UNL     1       2.065   4.218  19.569  0.00  0.00    +0.000 N 
ATOM      6  N   UNL     1       1.511   5.357  19.983  0.00  0.00    +0.000 NA
ATOM      7  C   UNL     1       1.258   3.064  19.250  0.00  0.00    +0.000 C 
ATOM      8  C   UNL     1       2.120   1.838  18.961  0.00  0.00    +0.000 C 
ATOM      9  C   UNL     1       3.278   2.200  18.027  0.00  0.00    +0.000 C 
ATOM     10  C   UNL     1       4.193   3.300  18.627  0.00  0.00    +0.000 C 
ATOM     11  H   UNL     1       3.466   7.950  19.916  0.00  0.00    +0.000 HD
ENDROOT
BRANCH  10  12
ATOM     12  C   UNL     1       5.105   3.846  17.536  0.00  0.00    +0.000 A 
ATOM     13  C   UNL     1       6.413   4.273  17.840  0.00  0.00    +0.000 A 
ATOM     14  C   UNL     1       7.233   4.814  16.853  0.00  0.00    +0.000 A 
ATOM     15  C   UNL     1       6.755   4.921  15.555  0.00  0.00    +0.000 A 
ATOM     16  F   UNL     1       7.537   5.457  14.608  0.00  0.00    +0.000 F 
ATOM     17  C   UNL     1       5.476   4.486  15.224  0.00  0.00    +0.000 A 
ATOM     18  C   UNL     1       4.652   3.946  16.212  0.00  0.00    +0.000 A 
ENDBRANCH  10  12
BRANCH   1  22
ATOM     19  C   UNL     1      -0.428  10.440  19.268  0.00  0.00    +0.000 A 
ATOM     20  C   UNL     1       0.361   9.940  18.228  0.00  0.00    +0.000 A 
ATOM     21  C   UNL     1       1.301   8.940  18.478  0.00  0.00    +0.000 A 
ATOM     22  C   UNL     1       1.492   8.424  19.766  0.00  0.00    +0.000 A 
ATOM     23  C   UNL     1       0.632   8.862  20.781  0.00  0.00    +0.000 A 
ATOM     24  C   UNL     1      -0.319   9.860  20.536  0.00  0.00    +0.000 A 
BRANCH  19  25
ATOM     25  C   UNL     1      -1.371  11.583  19.009  0.00  0.00    +0.000 C 
BRANCH  25  27
ATOM     26  N   UNL     1      -2.648  11.370  16.549  0.00  0.00    +0.000 NA
ATOM     27  C   UNL     1      -2.069  11.467  17.665  0.00  0.00    +0.000 C 
ENDBRANCH  25  27
ENDBRANCH  19  25
ENDBRANCH   1  22
TORSDOF 4
ENDMDL
MODEL 4
REMARK VINA RESULT:      -8.2      1.045      1.139
REMARK  Name = 
REMARK  4 active torsions:
REMARK  status: ('A' for Active; 'I' for Inactive)
REMARK    1  A    between atoms: C_2  and  C_3
REMARK    2  A    between atoms: C_3  and  C_4
REMARK    3  A    between atoms: C_7  and  N_8
REMARK    4  A    between atoms: C_17  and  C_18
REMARK                            x       y       z     vdW  Elec       q    Type
REMARK                         _______ _______ _______ _____ _____    ______ ____
ROOT
ATOM      1  N   UNL     1       2.578   7.595  20.142  0.00  0.00    +0.000 N 
ATOM      2  C   UNL     1       2.507   6.260  19.962  0.00  0.00    +0.000 A 
ATOM      3  N   UNL     1       3.670   5.621  19.620  0.00  0.00    +0.000 NA
ATOM      4  C   UNL     1       3.268   4.424  19.246  0.00  0.00    +0.000 A 
ATOM      5  N   UNL     1       1.933   4.321  19.496  0.00  0.00    +0.000 N 
ATOM      6  N   UNL     1       1.428   5.471  19.940  0.00  0.00    +0.000 NA
ATOM      7  C   UNL     1       1.075   3.222  19.115  0.00  0.00    +0.000 C 
ATOM      8  C   UNL     1       1.880   1.964  18.799  0.00  0.00    +0.000 C 
ATOM      9  C   UNL     1       3.078   2.299  17.907  0.00  0.00    +0.000 C 
ATOM     10  C   UNL     1       4.033   3.327  18.569  0.00  0.00    +0.000 C 
ATOM     11  H   UNL     1       3.514   7.959  20.016  0.00  0.00    +0.000 HD
ENDROOT
BRANCH  10  12
ATOM     12  C   UNL     1       4.999   3.865  17.521  0.00  0.00    +0.000 A 
ATOM     13  C   UNL     1       4.618   3.945  16.167  0.00  0.00    +0.000 A 
ATOM     14  C   UNL     1       5.515   4.394  15.201  0.00  0.00    +0.000 A 
ATOM     15  C   UNL     1       6.793   4.777  15.583  0.00  0.00    +0.000 A 
ATOM     16  F   UNL     1       7.662   5.193  14.653  0.00  0.00    +0.000 F 
ATOM     17  C   UNL     1       7.185   4.730  16.916  0.00  0.00    +0.000 A 
ATOM     18  C   UNL     1       6.289   4.277  17.886  0.00  0.00    +0.000 A 
ENDBRANCH  10  12
BRANCH   1  22
ATOM     19  C   UNL     1      -0.626  10.161  19.099  0.00  0.00    +0.000 A 
ATOM     20  C   UNL     1      -0.455   9.761  20.427  0.00  0.00    +0.000 A 
ATOM     21  C   UNL     1       0.635   8.968  20.787  0.00  0.00    +0.000 A 
ATOM     22  C   UNL     1       1.572   8.540  19.838  0.00  0.00    +0.000 A 
ATOM     23  C   UNL     1       1.446   9.024  18.530  0.00  0.00    +0.000 A 
ATOM     24  C   UNL     1       0.358   9.826  18.162  0.00  0.00    +0.000 A 
BRANCH  19  25
ATOM     25  C   UNL     1      -1.852  10.935  18.702  0.00  0.00    +0.000 C 
BRANCH  25  27
ATOM     26  N   UNL     1      -2.339  13.094  20.384  0.00  0.00    +0.000 NA
ATOM     27  C   UNL     1      -2.118  12.114  19.622  0.00  0.00    +0.000 C 
ENDBRANCH  25  27
ENDBRANCH  19  25
ENDBRANCH   1  22
TORSDOF 4
ENDMDL
MODEL 5
REMARK VINA RESULT:      -8.2      1.441      1.822
REMARK  Name = 
REMARK  4 active torsions:
REMARK  status: ('A' for Active; 'I' for Inactive)
REMARK    1  A    between atoms: C_2  and  C_3
REMARK    2  A    between atoms: C_3  and  C_4
REMARK    3  A    between atoms: C_7  and  N_8
REMARK    4  A    between atoms: C_17  and  C_18
REMARK                            x       y       z     vdW  Elec       q    Type
REMARK                         _______ _______ _______ _____ _____    ______ ____
ROOT
ATOM      1  N   UNL     1       2.524   7.420  20.355  0.00  0.00    +0.000 N 
ATOM      2  C   UNL     1       2.491   6.089  20.136  0.00  0.00    +0.000 A 
ATOM      3  N   UNL     1       3.666   5.498  19.748  0.00  0.00    +0.000 NA
ATOM      4  C   UNL     1       3.293   4.301  19.346  0.00  0.00    +0.000 A 
ATOM      5  N   UNL     1       1.968   4.146  19.624  0.00  0.00    +0.000 N 
ATOM      6  N   UNL     1       1.438   5.265  20.115  0.00  0.00    +0.000 NA
ATOM      7  C   UNL     1       1.138   3.032  19.230  0.00  0.00    +0.000 C 
ATOM      8  C   UNL     1       1.975   1.811  18.857  0.00  0.00    +0.000 C 
ATOM      9  C   UNL     1       3.139   2.212  17.947  0.00  0.00    +0.000 C 
ATOM     10  C   UNL     1       4.076   3.251  18.618  0.00  0.00    +0.000 C 
ATOM     11  H   UNL     1       3.444   7.817  20.219  0.00  0.00    +0.000 HD
ENDROOT
BRANCH  10  12
ATOM     12  C   UNL     1       4.998   3.851  17.565  0.00  0.00    +0.000 A 
ATOM     13  C   UNL     1       4.574   3.979  16.227  0.00  0.00    +0.000 A 
ATOM     14  C   UNL     1       5.431   4.486  15.254  0.00  0.00    +0.000 A 
ATOM     15  C   UNL     1       6.713   4.879  15.613  0.00  0.00    +0.000 A 
ATOM     16  F   UNL     1       7.544   5.351  14.675  0.00  0.00    +0.000 F 
ATOM     17  C   UNL     1       7.148   4.784  16.930  0.00  0.00    +0.000 A 
ATOM     18  C   UNL     1       6.292   4.273  17.907  0.00  0.00    +0.000 A 
ENDBRANCH  10  12
BRANCH   1  22
ATOM     19  C   UNL     1      -0.409  10.417  19.770  0.00  0.00    +0.000 A 
ATOM     20  C   UNL     1       0.424  10.040  18.714  0.00  0.00    +0.000 A 
ATOM     21  C   UNL     1       1.349   9.008  18.882  0.00  0.00    +0.000 A 
ATOM     22  C   UNL     1       1.480   8.339  20.105  0.00  0.00    +0.000 A 
ATOM     23  C   UNL     1       0.577   8.659  21.127  0.00  0.00    +0.000 A 
ATOM     24  C   UNL     1      -0.358   9.688  20.963  0.00  0.00    +0.000 A 
BRANCH  19  25
ATOM     25  C   UNL     1      -1.336  11.591  19.610  0.00  0.00    +0.000 C 
BRANCH  25  27
ATOM     26  N   UNL     1      -1.864  12.865  22.025  0.00  0.00    +0.000 NA
ATOM     27  C   UNL     1      -1.624  12.288  20.930  0.00  0.00    +0.000 C 
ENDBRANCH  25  27
ENDBRANCH  19  25
ENDBRANCH   1  22
TORSDOF 4
ENDMDL
MODEL 6
REMARK VINA RESULT:      -7.1      2.343      2.930
REMARK  Name = 
REMARK  4 active torsions:
REMARK  status: ('A' for Active; 'I' for Inactive)
REMARK    1  A    between atoms: C_2  and  C_3
REMARK    2  A    between atoms: C_3  and  C_4
REMARK    3  A    between atoms: C_7  and  N_8
REMARK    4  A    between atoms: C_17  and  C_18
REMARK                            x       y       z     vdW  Elec       q    Type
REMARK                         _______ _______ _______ _____ _____    ______ ____
ROOT
ATOM      1  N   UNL     1       1.953   7.508  21.272  0.00  0.00    +0.000 N 
ATOM      2  C   UNL     1       2.107   6.434  20.471  0.00  0.00    +0.000 A 
ATOM      3  N   UNL     1       3.391   6.001  20.260  0.00  0.00    +0.000 NA
ATOM      4  C   UNL     1       3.272   5.155  19.258  0.00  0.00    +0.000 A 
ATOM      5  N   UNL     1       1.947   4.991  18.987  0.00  0.00    +0.000 N 
ATOM      6  N   UNL     1       1.192   5.795  19.734  0.00  0.00    +0.000 NA
ATOM      7  C   UNL     1       1.387   4.250  17.881  0.00  0.00    +0.000 C 
ATOM      8  C   UNL     1       2.402   3.278  17.285  0.00  0.00    +0.000 C 
ATOM      9  C   UNL     1       3.757   3.962  17.093  0.00  0.00    +0.000 C 
ATOM     10  C   UNL     1       4.336   4.501  18.428  0.00  0.00    +0.000 C 
ATOM     11  H   UNL     1       2.830   7.852  21.640  0.00  0.00    +0.000 HD
ENDROOT
BRANCH  10  12
ATOM     12  C   UNL     1       5.493   5.446  18.131  0.00  0.00    +0.000 A 
ATOM     13  C   UNL     1       6.693   5.367  18.865  0.00  0.00    +0.000 A 
ATOM     14  C   UNL     1       7.734   6.259  18.625  0.00  0.00    +0.000 A 
ATOM     15  C   UNL     1       7.588   7.228  17.642  0.00  0.00    +0.000 A 
ATOM     16  F   UNL     1       8.583   8.097  17.421  0.00  0.00    +0.000 F 
ATOM     17  C   UNL     1       6.423   7.312  16.887  0.00  0.00    +0.000 A 
ATOM     18  C   UNL     1       5.376   6.421  17.129  0.00  0.00    +0.000 A 
ENDBRANCH  10  12
BRANCH   1  22
ATOM     19  C   UNL     1      -0.762  10.750  21.048  0.00  0.00    +0.000 A 
ATOM     20  C   UNL     1      -0.075  10.334  19.905  0.00  0.00    +0.000 A 
ATOM     21  C   UNL     1       0.772   9.226  19.958  0.00  0.00    +0.000 A 
ATOM     22  C   UNL     1       0.971   8.516  21.148  0.00  0.00    +0.000 A 
ATOM     23  C   UNL     1       0.206   8.881  22.264  0.00  0.00    +0.000 A 
ATOM     24  C   UNL     1      -0.652   9.987  22.216  0.00  0.00    +0.000 A 
BRANCH  19  25
ATOM     25  C   UNL     1      -1.598  11.999  21.006  0.00  0.00    +0.000 C 
BRANCH  25  27
ATOM     26  N   UNL     1      -3.329  12.193  23.174  0.00  0.00    +0.000 NA
ATOM     27  C   UNL     1      -2.545  12.105  22.190  0.00  0.00    +0.000 C 
ENDBRANCH  25  27
ENDBRANCH  19  25
ENDBRANCH   1  22
TORSDOF 4
ENDMDL
MODEL 7
REMARK VINA RESULT:      -7.1      4.068      9.300
REMARK  Name = 
REMARK  4 active torsions:
REMARK  status: ('A' for Active; 'I' for Inactive)
REMARK    1  A    between atoms: C_2  and  C_3
REMARK    2  A    between atoms: C_3  and  C_4
REMARK    3  A    between atoms: C_7  and  N_8
REMARK    4  A    between atoms: C_17  and  C_18
REMARK                            x       y       z     vdW  Elec       q    Type
REMARK                         _______ _______ _______ _____ _____    ______ ____
ROOT
ATOM      1  N   UNL     1       1.847   9.393  18.659  0.00  0.00    +0.000 N 
ATOM      2  C   UNL     1       0.656   9.917  18.303  0.00  0.00    +0.000 A 
ATOM      3  N   UNL     1       0.376  11.179  18.759  0.00  0.00    +0.000 NA
ATOM      4  C   UNL     1      -0.910  11.320  18.511  0.00  0.00    +0.000 A 
ATOM      5  N   UNL     1      -1.334  10.235  17.806  0.00  0.00    +0.000 N 
ATOM      6  N   UNL     1      -0.366   9.331  17.669  0.00  0.00    +0.000 NA
ATOM      7  C   UNL     1      -2.700   9.932  17.445  0.00  0.00    +0.000 C 
ATOM      8  C   UNL     1      -3.592  11.168  17.532  0.00  0.00    +0.000 C 
ATOM      9  C   UNL     1      -3.332  11.931  18.833  0.00  0.00    +0.000 C 
ATOM     10  C   UNL     1      -1.856  12.394  18.957  0.00  0.00    +0.000 C 
ATOM     11  H   UNL     1       2.404  10.028  19.216  0.00  0.00    +0.000 HD
ENDROOT
BRANCH  10  12
ATOM     12  C   UNL     1      -1.586  12.838  20.388  0.00  0.00    +0.000 A 
ATOM     13  C   UNL     1      -1.875  11.985  21.472  0.00  0.00    +0.000 A 
ATOM     14  C   UNL     1      -1.671  12.407  22.783  0.00  0.00    +0.000 A 
ATOM     15  C   UNL     1      -1.166  13.677  23.020  0.00  0.00    +0.000 A 
ATOM     16  F   UNL     1      -0.984  14.090  24.281  0.00  0.00    +0.000 F 
ATOM     17  C   UNL     1      -0.850  14.529  21.967  0.00  0.00    +0.000 A 
ATOM     18  C   UNL     1      -1.057  14.111  20.651  0.00  0.00    +0.000 A 
ENDBRANCH  10  12
BRANCH   1  22
ATOM     19  C   UNL     1       2.331   5.252  19.398  0.00  0.00    +0.000 A 
ATOM     20  C   UNL     1       2.757   5.799  18.185  0.00  0.00    +0.000 A 
ATOM     21  C   UNL     1       2.658   7.173  17.961  0.00  0.00    +0.000 A 
ATOM     22  C   UNL     1       2.122   8.033  18.926  0.00  0.00    +0.000 A 
ATOM     23  C   UNL     1       1.788   7.490  20.174  0.00  0.00    +0.000 A 
ATOM     24  C   UNL     1       1.890   6.113  20.409  0.00  0.00    +0.000 A 
BRANCH  19  25
ATOM     25  C   UNL     1       2.352   3.761  19.596  0.00  0.00    +0.000 C 
BRANCH  25  27
ATOM     26  N   UNL     1       2.272   3.043  22.281  0.00  0.00    +0.000 NA
ATOM     27  C   UNL     1       2.309   3.369  21.063  0.00  0.00    +0.000 C 
ENDBRANCH  25  27
ENDBRANCH  19  25
ENDBRANCH   1  22
TORSDOF 4
ENDMDL
MODEL 8
REMARK VINA RESULT:      -7.1      1.957      2.552
REMARK  Name = 
REMARK  4 active torsions:
REMARK  status: ('A' for Active; 'I' for Inactive)
REMARK    1  A    between atoms: C_2  and  C_3
REMARK    2  A    between atoms: C_3  and  C_4
REMARK    3  A    between atoms: C_7  and  N_8
REMARK    4  A    between atoms: C_17  and  C_18
REMARK                            x       y       z     vdW  Elec       q    Type
REMARK                         _______ _______ _______ _____ _____    ______ ____
ROOT
ATOM      1  N   UNL     1       1.954   7.542  21.178  0.00  0.00    +0.000 N 
ATOM      2  C   UNL     1       2.112   6.437  20.420  0.00  0.00    +0.000 A 
ATOM      3  N   UNL     1       3.397   6.002  20.224  0.00  0.00    +0.000 NA
ATOM      4  C   UNL     1       3.280   5.116  19.257  0.00  0.00    +0.000 A 
ATOM      5  N   UNL     1       1.954   4.935  18.996  0.00  0.00    +0.000 N 
ATOM      6  N   UNL     1       1.198   5.765  19.712  0.00  0.00    +0.000 NA
ATOM      7  C   UNL     1       1.395   4.147  17.922  0.00  0.00    +0.000 C 
ATOM      8  C   UNL     1       2.413   3.157  17.363  0.00  0.00    +0.000 C 
ATOM      9  C   UNL     1       3.765   3.839  17.140  0.00  0.00    +0.000 C 
ATOM     10  C   UNL     1       4.344   4.434  18.451  0.00  0.00    +0.000 C 
ATOM     11  H   UNL     1       2.831   7.905  21.530  0.00  0.00    +0.000 HD
ENDROOT
BRANCH  10  12
ATOM     12  C   UNL     1       5.496   5.372  18.113  0.00  0.00    +0.000 A 
ATOM     13  C   UNL     1       6.683   5.355  18.871  0.00  0.00    +0.000 A 
ATOM     14  C   UNL     1       7.718   6.243  18.592  0.00  0.00    +0.000 A 
ATOM     15  C   UNL     1       7.580   7.144  17.545  0.00  0.00    +0.000 A 
ATOM     16  F   UNL     1       8.569   8.009  17.286  0.00  0.00    +0.000 F 
ATOM     17  C   UNL     1       6.428   7.164  16.766  0.00  0.00    +0.000 A 
ATOM     18  C   UNL     1       5.387   6.278  17.047  0.00  0.00    +0.000 A 
ENDBRANCH  10  12
BRANCH   1  22
ATOM     19  C   UNL     1      -0.780  10.757  20.841  0.00  0.00    +0.000 A 
ATOM     20  C   UNL     1      -0.071  10.323  19.718  0.00  0.00    +0.000 A 
ATOM     21  C   UNL     1       0.784   9.224  19.809  0.00  0.00    +0.000 A 
ATOM     22  C   UNL     1       0.966   8.539  21.016  0.00  0.00    +0.000 A 
ATOM     23  C   UNL     1       0.180   8.921  22.111  0.00  0.00    +0.000 A 
ATOM     24  C   UNL     1      -0.685  10.019  22.026  0.00  0.00    +0.000 A 
BRANCH  19  25
ATOM     25  C   UNL     1      -1.625  11.999  20.759  0.00  0.00    +0.000 C 
BRANCH  25  27
ATOM     26  N   UNL     1      -0.533  13.919  19.071  0.00  0.00    +0.000 NA
ATOM     27  C   UNL     1      -1.028  13.048  19.835  0.00  0.00    +0.000 C 
ENDBRANCH  25  27
ENDBRANCH  19  25
ENDBRANCH   1  22
TORSDOF 4
ENDMDL
MODEL 9
REMARK VINA RESULT:      -7.0      3.509      5.101
REMARK  Name = 
REMARK  4 active torsions:
REMARK  status: ('A' for Active; 'I' for Inactive)
REMARK    1  A    between atoms: C_2  and  C_3
REMARK    2  A    between atoms: C_3  and  C_4
REMARK    3  A    between atoms: C_7  and  N_8
REMARK    4  A    between atoms: C_17  and  C_18
REMARK                            x       y       z     vdW  Elec       q    Type
REMARK                         _______ _______ _______ _____ _____    ______ ____
ROOT
ATOM      1  N   UNL     1       1.322   8.872  17.985  0.00  0.00    +0.000 N 
ATOM      2  C   UNL     1       2.304   7.997  17.687  0.00  0.00    +0.000 A 
ATOM      3  N   UNL     1       1.993   6.665  17.780  0.00  0.00    +0.000 NA
ATOM      4  C   UNL     1       3.165   6.067  17.714  0.00  0.00    +0.000 A 
ATOM      5  N   UNL     1       4.114   7.008  17.448  0.00  0.00    +0.000 N 
ATOM      6  N   UNL     1       3.596   8.235  17.435  0.00  0.00    +0.000 NA
ATOM      7  C   UNL     1       5.543   6.796  17.424  0.00  0.00    +0.000 C 
ATOM      8  C   UNL     1       5.889   5.316  17.278  0.00  0.00    +0.000 C 
ATOM      9  C   UNL     1       5.041   4.467  18.228  0.00  0.00    +0.000 C 
ATOM     10  C   UNL     1       3.521   4.632  17.964  0.00  0.00    +0.000 C 
ATOM     11  H   UNL     1       0.451   8.417  18.226  0.00  0.00    +0.000 HD
ENDROOT
BRANCH  10  12
ATOM     12  C   UNL     1       2.740   4.042  19.131  0.00  0.00    +0.000 A 
ATOM     13  C   UNL     1       2.971   4.486  20.448  0.00  0.00    +0.000 A 
ATOM     14  C   UNL     1       2.290   3.917  21.520  0.00  0.00    +0.000 A 
ATOM     15  C   UNL     1       1.367   2.909  21.283  0.00  0.00    +0.000 A 
ATOM     16  F   UNL     1       0.723   2.349  22.316  0.00  0.00    +0.000 F 
ATOM     17  C   UNL     1       1.103   2.469  19.990  0.00  0.00    +0.000 A 
ATOM     18  C   UNL     1       1.787   3.036  18.913  0.00  0.00    +0.000 A 
ENDBRANCH  10  12
BRANCH   1  22
ATOM     19  C   UNL     1       1.526  12.768  19.630  0.00  0.00    +0.000 A 
ATOM     20  C   UNL     1       0.916  11.737  20.350  0.00  0.00    +0.000 A 
ATOM     21  C   UNL     1       0.902  10.438  19.841  0.00  0.00    +0.000 A 
ATOM     22  C   UNL     1       1.478  10.133  18.601  0.00  0.00    +0.000 A 
ATOM     23  C   UNL     1       2.170  11.152  17.933  0.00  0.00    +0.000 A 
ATOM     24  C   UNL     1       2.194  12.457  18.441  0.00  0.00    +0.000 A 
BRANCH  19  25
ATOM     25  C   UNL     1       1.454  14.181  20.140  0.00  0.00    +0.000 C 
BRANCH  25  27
ATOM     26  N   UNL     1       3.107  14.607  22.334  0.00  0.00    +0.000 NA
ATOM     27  C   UNL     1       2.359  14.413  21.339  0.00  0.00    +0.000 C 
ENDBRANCH  25  27
ENDBRANCH  19  25
ENDBRANCH   1  22
TORSDOF 4
ENDMDL
