MODEL 1
REMARK VINA RESULT:      -7.4      0.000      0.000
REMARK  Name = 
REMARK  4 active torsions:
REMARK  status: ('A' for Active; 'I' for Inactive)
REMARK    1  A    between atoms: C_4  and  C_5
REMARK    2  A    between atoms: C_5  and  N_6
REMARK    3  A    between atoms: N_17  and  C_18
REMARK    4  A    between atoms: C_18  and  C_19
REMARK                            x       y       z     vdW  Elec       q    Type
REMARK                         _______ _______ _______ _____ _____    ______ ____
ROOT
ATOM      1  O   UNL     1       7.719   5.192  20.265  0.00  0.00    +0.000 OA
ATOM      2  C   UNL     1       7.382   5.801  19.255  0.00  0.00    +0.000 A 
ATOM      3  C   UNL     1       8.115   7.022  18.887  0.00  0.00    +0.000 A 
ATOM      4  C   UNL     1       7.741   7.698  17.795  0.00  0.00    +0.000 A 
ATOM      5  N   UNL     1       6.721   7.282  16.976  0.00  0.00    +0.000 NA
ATOM      6  C   UNL     1       6.058   6.215  17.308  0.00  0.00    +0.000 A 
ATOM      7  N   UNL     1       6.352   5.437  18.410  0.00  0.00    +0.000 N 
ATOM      8  C   UNL     1       5.573   4.246  18.750  0.00  0.00    +0.000 C 
ATOM      9  C   UNL     1       4.139   4.556  19.177  0.00  0.00    +0.000 C 
ATOM     10  C   UNL     1       3.220   4.872  17.997  0.00  0.00    +0.000 C 
ATOM     11  N   UNL     1       3.558   6.061  17.217  0.00  0.00    +0.000 NA
ATOM     12  C   UNL     1       4.826   5.873  16.464  0.00  0.00    +0.000 C 
ENDROOT
BRANCH   4  13
ATOM     13  C   UNL     1       8.445   8.991  17.395  0.00  0.00    +0.000 C 
BRANCH  13  14
ATOM     14  N   UNL     1       8.291  10.078  18.378  0.00  0.00    +0.000 NA
ATOM     15  C   UNL     1       8.317  11.421  17.783  0.00  0.00    +0.000 C 
ATOM     16  C   UNL     1       9.751  11.910  17.873  0.00  0.00    +0.000 C 
ATOM     17  C   UNL     1      10.319  11.208  19.088  0.00  0.00    +0.000 C 
ATOM     18  C   UNL     1       9.364  10.059  19.385  0.00  0.00    +0.000 C 
ENDBRANCH  13  14
ENDBRANCH   4  13
BRANCH  11  19
ATOM     19  C   UNL     1       3.572   7.325  17.980  0.00  0.00    +0.000 C 
BRANCH  19  20
ATOM     20  C   UNL     1       2.209   7.912  18.398  0.00  0.00    +0.000 C 
ATOM     21  C   UNL     1       2.025   9.349  17.898  0.00  0.00    +0.000 C 
ATOM     22  C   UNL     1       0.851  10.044  18.578  0.00  0.00    +0.000 C 
ATOM     23  O   UNL     1       0.938   9.948  19.999  0.00  0.00    +0.000 OA
ATOM     24  C   UNL     1       0.888   8.595  20.440  0.00  0.00    +0.000 C 
ATOM     25  C   UNL     1       2.102   7.841  19.932  0.00  0.00    +0.000 C 
ENDBRANCH  19  20
ENDBRANCH  11  19
TORSDOF 4
ENDMDL
MODEL 2
REMARK VINA RESULT:      -6.6      6.521     10.320
REMARK  Name = 
REMARK  4 active torsions:
REMARK  status: ('A' for Active; 'I' for Inactive)
REMARK    1  A    between atoms: C_4  and  C_5
REMARK    2  A    between atoms: C_5  and  N_6
REMARK    3  A    between atoms: N_17  and  C_18
REMARK    4  A    between atoms: C_18  and  C_19
REMARK                            x       y       z     vdW  Elec       q    Type
REMARK                         _______ _______ _______ _____ _____    ______ ____
ROOT
ATOM      1  O   UNL     1      -0.545   9.953  23.719  0.00  0.00    +0.000 OA
ATOM      2  C   UNL     1      -0.772  10.784  22.846  0.00  0.00    +0.000 A 
ATOM      3  C   UNL     1      -1.928  11.681  23.006  0.00  0.00    +0.000 A 
ATOM      4  C   UNL     1      -2.189  12.579  22.049  0.00  0.00    +0.000 A 
ATOM      5  N   UNL     1      -1.401  12.729  20.935  0.00  0.00    +0.000 NA
ATOM      6  C   UNL     1      -0.392  11.926  20.780  0.00  0.00    +0.000 A 
ATOM      7  N   UNL     1      -0.026  10.962  21.699  0.00  0.00    +0.000 N 
ATOM      8  C   UNL     1       1.117  10.073  21.479  0.00  0.00    +0.000 C 
ATOM      9  C   UNL     1       0.915   9.095  20.323  0.00  0.00    +0.000 C 
ATOM     10  C   UNL     1       1.103   9.744  18.952  0.00  0.00    +0.000 C 
ATOM     11  N   UNL     1       0.158  10.805  18.606  0.00  0.00    +0.000 NA
ATOM     12  C   UNL     1       0.366  12.011  19.450  0.00  0.00    +0.000 C 
ENDROOT
BRANCH   4  13
ATOM     13  C   UNL     1      -3.398  13.504  22.151  0.00  0.00    +0.000 C 
BRANCH  13  14
ATOM     14  N   UNL     1      -3.955  13.602  23.512  0.00  0.00    +0.000 NA
ATOM     15  C   UNL     1      -5.323  13.079  23.630  0.00  0.00    +0.000 C 
ATOM     16  C   UNL     1      -6.258  14.262  23.455  0.00  0.00    +0.000 C 
ATOM     17  C   UNL     1      -5.465  15.454  23.945  0.00  0.00    +0.000 C 
ATOM     18  C   UNL     1      -4.012  14.997  23.978  0.00  0.00    +0.000 C 
ENDBRANCH  13  14
ENDBRANCH   4  13
BRANCH  11  19
ATOM     19  C   UNL     1      -1.260  10.398  18.594  0.00  0.00    +0.000 C 
BRANCH  19  20
ATOM     20  C   UNL     1      -2.191  11.111  17.593  0.00  0.00    +0.000 C 
ATOM     21  C   UNL     1      -3.580  11.372  18.186  0.00  0.00    +0.000 C 
ATOM     22  C   UNL     1      -4.594  11.762  17.116  0.00  0.00    +0.000 C 
ATOM     23  O   UNL     1      -4.607  10.823  16.042  0.00  0.00    +0.000 OA
ATOM     24  C   UNL     1      -3.350  10.768  15.375  0.00  0.00    +0.000 C 
ATOM     25  C   UNL     1      -2.285  10.248  16.322  0.00  0.00    +0.000 C 
ENDBRANCH  19  20
ENDBRANCH  11  19
TORSDOF 4
ENDMDL
MODEL 3
REMARK VINA RESULT:      -6.4      6.756     10.405
REMARK  Name = 
REMARK  4 active torsions:
REMARK  status: ('A' for Active; 'I' for Inactive)
REMARK    1  A    between atoms: C_4  and  C_5
REMARK    2  A    between atoms: C_5  and  N_6
REMARK    3  A    between atoms: N_17  and  C_18
REMARK    4  A    between atoms: C_18  and  C_19
REMARK                            x       y       z     vdW  Elec       q    Type
REMARK                         _______ _______ _______ _____ _____    ______ ____
ROOT
ATOM      1  O   UNL     1      -0.255  10.534  23.569  0.00  0.00    +0.000 OA
ATOM      2  C   UNL     1      -0.759  11.161  22.642  0.00  0.00    +0.000 A 
ATOM      3  C   UNL     1      -2.031  11.864  22.872  0.00  0.00    +0.000 A 
ATOM      4  C   UNL     1      -2.593  12.536  21.861  0.00  0.00    +0.000 A 
ATOM      5  N   UNL     1      -2.013  12.632  20.620  0.00  0.00    +0.000 NA
ATOM      6  C   UNL     1      -0.901  11.996  20.407  0.00  0.00    +0.000 A 
ATOM      7  N   UNL     1      -0.230  11.272  21.372  0.00  0.00    +0.000 N 
ATOM      8  C   UNL     1       1.020  10.565  21.085  0.00  0.00    +0.000 C 
ATOM      9  C   UNL     1       0.849   9.390  20.123  0.00  0.00    +0.000 C 
ATOM     10  C   UNL     1       0.712   9.828  18.665  0.00  0.00    +0.000 C 
ATOM     11  N   UNL     1      -0.458  10.644  18.343  0.00  0.00    +0.000 NA
ATOM     12  C   UNL     1      -0.370  11.989  18.969  0.00  0.00    +0.000 C 
ENDROOT
BRANCH   4  13
ATOM     13  C   UNL     1      -3.930  13.247  22.040  0.00  0.00    +0.000 C 
BRANCH  13  14
ATOM     14  N   UNL     1      -3.829  14.525  22.767  0.00  0.00    +0.000 NA
ATOM     15  C   UNL     1      -4.549  14.533  24.048  0.00  0.00    +0.000 C 
ATOM     16  C   UNL     1      -5.924  15.112  23.771  0.00  0.00    +0.000 C 
ATOM     17  C   UNL     1      -5.721  16.037  22.590  0.00  0.00    +0.000 C 
ATOM     18  C   UNL     1      -4.380  15.643  21.984  0.00  0.00    +0.000 C 
ENDBRANCH  13  14
ENDBRANCH   4  13
BRANCH  11  19
ATOM     19  C   UNL     1      -1.759  10.007  18.626  0.00  0.00    +0.000 C 
BRANCH  19  20
ATOM     20  C   UNL     1      -2.795   9.979  17.485  0.00  0.00    +0.000 C 
ATOM     21  C   UNL     1      -2.134   9.798  16.114  0.00  0.00    +0.000 C 
ATOM     22  C   UNL     1      -3.096  10.103  14.971  0.00  0.00    +0.000 C 
ATOM     23  O   UNL     1      -3.715  11.377  15.135  0.00  0.00    +0.000 OA
ATOM     24  C   UNL     1      -4.501  11.434  16.321  0.00  0.00    +0.000 C 
ATOM     25  C   UNL     1      -3.609  11.283  17.539  0.00  0.00    +0.000 C 
ENDBRANCH  19  20
ENDBRANCH  11  19
TORSDOF 4
ENDMDL
MODEL 4
REMARK VINA RESULT:      -6.4      7.855     11.714
REMARK  Name = 
REMARK  4 active torsions:
REMARK  status: ('A' for Active; 'I' for Inactive)
REMARK    1  A    between atoms: C_4  and  C_5
REMARK    2  A    between atoms: C_5  and  N_6
REMARK    3  A    between atoms: N_17  and  C_18
REMARK    4  A    between atoms: C_18  and  C_19
REMARK                            x       y       z     vdW  Elec       q    Type
REMARK                         _______ _______ _______ _____ _____    ______ ____
ROOT
ATOM      1  O   UNL     1      -7.399  11.752  21.692  0.00  0.00    +0.000 OA
ATOM      2  C   UNL     1      -6.306  12.169  21.320  0.00  0.00    +0.000 A 
ATOM      3  C   UNL     1      -5.870  11.881  19.945  0.00  0.00    +0.000 A 
ATOM      4  C   UNL     1      -4.672  12.320  19.540  0.00  0.00    +0.000 A 
ATOM      5  N   UNL     1      -3.843  13.063  20.342  0.00  0.00    +0.000 NA
ATOM      6  C   UNL     1      -4.216  13.302  21.563  0.00  0.00    +0.000 A 
ATOM      7  N   UNL     1      -5.426  12.902  22.092  0.00  0.00    +0.000 N 
ATOM      8  C   UNL     1      -5.802  13.188  23.477  0.00  0.00    +0.000 C 
ATOM      9  C   UNL     1      -4.949  12.448  24.506  0.00  0.00    +0.000 C 
ATOM     10  C   UNL     1      -3.571  13.080  24.705  0.00  0.00    +0.000 C 
ATOM     11  N   UNL     1      -2.689  13.083  23.539  0.00  0.00    +0.000 NA
ATOM     12  C   UNL     1      -3.197  13.991  22.477  0.00  0.00    +0.000 C 
ENDROOT
BRANCH   4  13
ATOM     13  C   UNL     1      -4.159  12.012  18.136  0.00  0.00    +0.000 C 
BRANCH  13  14
ATOM     14  N   UNL     1      -3.971  10.574  17.877  0.00  0.00    +0.000 NA
ATOM     15  C   UNL     1      -2.654  10.067  18.286  0.00  0.00    +0.000 C 
ATOM     16  C   UNL     1      -1.763  10.128  17.059  0.00  0.00    +0.000 C 
ATOM     17  C   UNL     1      -2.711   9.976  15.889  0.00  0.00    +0.000 C 
ATOM     18  C   UNL     1      -4.101  10.256  16.446  0.00  0.00    +0.000 C 
ENDBRANCH  13  14
ENDBRANCH   4  13
BRANCH  11  19
ATOM     19  C   UNL     1      -2.371  11.749  22.994  0.00  0.00    +0.000 C 
BRANCH  19  20
ATOM     20  C   UNL     1      -0.888  11.435  22.715  0.00  0.00    +0.000 C 
ATOM     21  C   UNL     1      -0.512  11.693  21.251  0.00  0.00    +0.000 C 
ATOM     22  C   UNL     1       0.836  11.078  20.890  0.00  0.00    +0.000 C 
ATOM     23  O   UNL     1       0.895   9.700  21.253  0.00  0.00    +0.000 OA
ATOM     24  C   UNL     1       0.757   9.519  22.659  0.00  0.00    +0.000 C 
ATOM     25  C   UNL     1      -0.621   9.971  23.105  0.00  0.00    +0.000 C 
ENDBRANCH  19  20
ENDBRANCH  11  19
TORSDOF 4
ENDMDL
MODEL 5
REMARK VINA RESULT:      -6.4      6.679     10.272
REMARK  Name = 
REMARK  4 active torsions:
REMARK  status: ('A' for Active; 'I' for Inactive)
REMARK    1  A    between atoms: C_4  and  C_5
REMARK    2  A    between atoms: C_5  and  N_6
REMARK    3  A    between atoms: N_17  and  C_18
REMARK    4  A    between atoms: C_18  and  C_19
REMARK                            x       y       z     vdW  Elec       q    Type
REMARK                         _______ _______ _______ _____ _____    ______ ____
ROOT
ATOM      1  O   UNL     1      -0.361   9.719  23.627  0.00  0.00    +0.000 OA
ATOM      2  C   UNL     1      -0.626  10.669  22.896  0.00  0.00    +0.000 A 
ATOM      3  C   UNL     1      -1.741  11.556  23.263  0.00  0.00    +0.000 A 
ATOM      4  C   UNL     1      -2.043  12.583  22.461  0.00  0.00    +0.000 A 
ATOM      5  N   UNL     1      -1.332  12.872  21.323  0.00  0.00    +0.000 NA
ATOM      6  C   UNL     1      -0.360  12.080  20.985  0.00  0.00    +0.000 A 
ATOM      7  N   UNL     1       0.043  10.991  21.732  0.00  0.00    +0.000 N 
ATOM      8  C   UNL     1       1.141  10.121  21.308  0.00  0.00    +0.000 C 
ATOM      9  C   UNL     1       0.830   9.317  20.046  0.00  0.00    +0.000 C 
ATOM     10  C   UNL     1       0.939  10.147  18.767  0.00  0.00    +0.000 C 
ATOM     11  N   UNL     1       0.003  11.264  18.642  0.00  0.00    +0.000 NA
ATOM     12  C   UNL     1       0.304  12.336  19.627  0.00  0.00    +0.000 C 
ENDROOT
BRANCH   4  13
ATOM     13  C   UNL     1      -3.215  13.506  22.779  0.00  0.00    +0.000 C 
BRANCH  13  14
ATOM     14  N   UNL     1      -4.112  13.741  21.633  0.00  0.00    +0.000 NA
ATOM     15  C   UNL     1      -5.116  14.787  21.873  0.00  0.00    +0.000 C 
ATOM     16  C   UNL     1      -6.369  14.085  22.362  0.00  0.00    +0.000 C 
ATOM     17  C   UNL     1      -6.308  12.709  21.732  0.00  0.00    +0.000 C 
ATOM     18  C   UNL     1      -4.867  12.530  21.274  0.00  0.00    +0.000 C 
ENDBRANCH  13  14
ENDBRANCH   4  13
BRANCH  11  19
ATOM     19  C   UNL     1      -1.424  10.889  18.680  0.00  0.00    +0.000 C 
BRANCH  19  20
ATOM     20  C   UNL     1      -2.309  11.360  17.508  0.00  0.00    +0.000 C 
ATOM     21  C   UNL     1      -3.775  11.524  17.926  0.00  0.00    +0.000 C 
ATOM     22  C   UNL     1      -4.700  11.659  16.721  0.00  0.00    +0.000 C 
ATOM     23  O   UNL     1      -4.495  10.604  15.784  0.00  0.00    +0.000 OA
ATOM     24  C   UNL     1      -3.173  10.619  15.253  0.00  0.00    +0.000 C 
ATOM     25  C   UNL     1      -2.170  10.347  16.359  0.00  0.00    +0.000 C 
ENDBRANCH  19  20
ENDBRANCH  11  19
TORSDOF 4
ENDMDL
MODEL 6
REMARK VINA RESULT:      -6.3      6.432     10.040
REMARK  Name = 
REMARK  4 active torsions:
REMARK  status: ('A' for Active; 'I' for Inactive)
REMARK    1  A    between atoms: C_4  and  C_5
REMARK    2  A    between atoms: C_5  and  N_6
REMARK    3  A    between atoms: N_17  and  C_18
REMARK    4  A    between atoms: C_18  and  C_19
REMARK                            x       y       z     vdW  Elec       q    Type
REMARK                         _______ _______ _______ _____ _____    ______ ____
ROOT
ATOM      1  O   UNL     1       0.713   9.561  23.331  0.00  0.00    +0.000 OA
ATOM      2  C   UNL     1       0.031  10.346  22.679  0.00  0.00    +0.000 A 
ATOM      3  C   UNL     1      -1.188  10.899  23.288  0.00  0.00    +0.000 A 
ATOM      4  C   UNL     1      -1.944  11.743  22.576  0.00  0.00    +0.000 A 
ATOM      5  N   UNL     1      -1.611  12.148  21.308  0.00  0.00    +0.000 NA
ATOM      6  C   UNL     1      -0.546  11.647  20.759  0.00  0.00    +0.000 A 
ATOM      7  N   UNL     1       0.309  10.769  21.395  0.00  0.00    +0.000 N 
ATOM      8  C   UNL     1       1.496  10.224  20.733  0.00  0.00    +0.000 C 
ATOM      9  C   UNL     1       1.170   9.284  19.573  0.00  0.00    +0.000 C 
ATOM     10  C   UNL     1       0.752  10.026  18.304  0.00  0.00    +0.000 C 
ATOM     11  N   UNL     1      -0.474  10.818  18.394  0.00  0.00    +0.000 NA
ATOM     12  C   UNL     1      -0.295  11.993  19.287  0.00  0.00    +0.000 C 
ENDROOT
BRANCH   4  13
ATOM     13  C   UNL     1      -3.238  12.312  23.150  0.00  0.00    +0.000 C 
BRANCH  13  14
ATOM     14  N   UNL     1      -3.918  13.261  22.252  0.00  0.00    +0.000 NA
ATOM     15  C   UNL     1      -4.026  14.620  22.802  0.00  0.00    +0.000 C 
ATOM     16  C   UNL     1      -5.382  14.709  23.478  0.00  0.00    +0.000 C 
ATOM     17  C   UNL     1      -6.254  13.730  22.721  0.00  0.00    +0.000 C 
ATOM     18  C   UNL     1      -5.293  12.835  21.948  0.00  0.00    +0.000 C 
ENDBRANCH  13  14
ENDBRANCH   4  13
BRANCH  11  19
ATOM     19  C   UNL     1      -1.685  10.054  18.751  0.00  0.00    +0.000 C 
BRANCH  19  20
ATOM     20  C   UNL     1      -2.806   9.975  17.696  0.00  0.00    +0.000 C 
ATOM     21  C   UNL     1      -2.249   9.910  16.269  0.00  0.00    +0.000 C 
ATOM     22  C   UNL     1      -3.327  10.169  15.222  0.00  0.00    +0.000 C 
ATOM     23  O   UNL     1      -4.042  11.373  15.494  0.00  0.00    +0.000 OA
ATOM     24  C   UNL     1      -4.727  11.310  16.741  0.00  0.00    +0.000 C 
ATOM     25  C   UNL     1      -3.727  11.195  17.875  0.00  0.00    +0.000 C 
ENDBRANCH  19  20
ENDBRANCH  11  19
TORSDOF 4
ENDMDL
MODEL 7
REMARK VINA RESULT:      -6.2      4.271      7.745
REMARK  Name = 
REMARK  4 active torsions:
REMARK  status: ('A' for Active; 'I' for Inactive)
REMARK    1  A    between atoms: C_4  and  C_5
REMARK    2  A    between atoms: C_5  and  N_6
REMARK    3  A    between atoms: N_17  and  C_18
REMARK    4  A    between atoms: C_18  and  C_19
REMARK                            x       y       z     vdW  Elec       q    Type
REMARK                         _______ _______ _______ _____ _____    ______ ____
ROOT
ATOM      1  O   UNL     1       0.079   9.871  23.556  0.00  0.00    +0.000 OA
ATOM      2  C   UNL     1       0.267   9.749  22.349  0.00  0.00    +0.000 A 
ATOM      3  C   UNL     1       1.141   8.665  21.875  0.00  0.00    +0.000 A 
ATOM      4  C   UNL     1       1.363   8.537  20.562  0.00  0.00    +0.000 A 
ATOM      5  N   UNL     1       0.778   9.355  19.627  0.00  0.00    +0.000 NA
ATOM      6  C   UNL     1       0.021  10.326  20.043  0.00  0.00    +0.000 A 
ATOM      7  N   UNL     1      -0.279  10.555  21.370  0.00  0.00    +0.000 N 
ATOM      8  C   UNL     1      -1.132  11.667  21.793  0.00  0.00    +0.000 C 
ATOM      9  C   UNL     1      -0.507  13.041  21.552  0.00  0.00    +0.000 C 
ATOM     10  C   UNL     1      -0.584  13.483  20.092  0.00  0.00    +0.000 C 
ATOM     11  N   UNL     1       0.143  12.657  19.129  0.00  0.00    +0.000 NA
ATOM     12  C   UNL     1      -0.481  11.315  18.985  0.00  0.00    +0.000 C 
ENDROOT
BRANCH   4  13
ATOM     13  C   UNL     1       2.293   7.454  20.026  0.00  0.00    +0.000 C 
BRANCH  13  14
ATOM     14  N   UNL     1       2.131   7.194  18.584  0.00  0.00    +0.000 NA
ATOM     15  C   UNL     1       2.193   5.769  18.230  0.00  0.00    +0.000 C 
ATOM     16  C   UNL     1       3.632   5.479  17.844  0.00  0.00    +0.000 C 
ATOM     17  C   UNL     1       4.159   6.794  17.310  0.00  0.00    +0.000 C 
ATOM     18  C   UNL     1       3.178   7.856  17.790  0.00  0.00    +0.000 C 
ENDBRANCH  13  14
ENDBRANCH   4  13
BRANCH  11  19
ATOM     19  C   UNL     1       1.595  12.548  19.372  0.00  0.00    +0.000 C 
BRANCH  19  20
ATOM     20  C   UNL     1       2.409  13.857  19.387  0.00  0.00    +0.000 C 
ATOM     21  C   UNL     1       3.355  13.960  18.185  0.00  0.00    +0.000 C 
ATOM     22  C   UNL     1       4.387  15.067  18.364  0.00  0.00    +0.000 C 
ATOM     23  O   UNL     1       5.070  14.949  19.611  0.00  0.00    +0.000 OA
ATOM     24  C   UNL     1       4.179  15.076  20.715  0.00  0.00    +0.000 C 
ATOM     25  C   UNL     1       3.187  13.928  20.712  0.00  0.00    +0.000 C 
ENDBRANCH  19  20
ENDBRANCH  11  19
TORSDOF 4
ENDMDL
MODEL 8
REMARK VINA RESULT:      -6.2      3.656      6.349
REMARK  Name = 
REMARK  4 active torsions:
REMARK  status: ('A' for Active; 'I' for Inactive)
REMARK    1  A    between atoms: C_4  and  C_5
REMARK    2  A    between atoms: C_5  and  N_6
REMARK    3  A    between atoms: N_17  and  C_18
REMARK    4  A    between atoms: C_18  and  C_19
REMARK                            x       y       z     vdW  Elec       q    Type
REMARK                         _______ _______ _______ _____ _____    ______ ____
ROOT
ATOM      1  O   UNL     1       0.118   3.592  20.384  0.00  0.00    +0.000 OA
ATOM      2  C   UNL     1       1.171   4.190  20.185  0.00  0.00    +0.000 A 
ATOM      3  C   UNL     1       1.167   5.660  20.221  0.00  0.00    +0.000 A 
ATOM      4  C   UNL     1       2.310   6.317  19.990  0.00  0.00    +0.000 A 
ATOM      5  N   UNL     1       3.501   5.677  19.756  0.00  0.00    +0.000 NA
ATOM      6  C   UNL     1       3.504   4.379  19.704  0.00  0.00    +0.000 A 
ATOM      7  N   UNL     1       2.389   3.596  19.926  0.00  0.00    +0.000 N 
ATOM      8  C   UNL     1       2.439   2.134  19.850  0.00  0.00    +0.000 C 
ATOM      9  C   UNL     1       2.702   1.605  18.441  0.00  0.00    +0.000 C 
ATOM     10  C   UNL     1       4.169   1.718  18.026  0.00  0.00    +0.000 C 
ATOM     11  N   UNL     1       4.712   3.073  17.937  0.00  0.00    +0.000 NA
ATOM     12  C   UNL     1       4.814   3.705  19.279  0.00  0.00    +0.000 C 
ENDROOT
BRANCH   4  13
ATOM     13  C   UNL     1       2.348   7.842  19.977  0.00  0.00    +0.000 C 
BRANCH  13  14
ATOM     14  N   UNL     1       1.273   8.455  19.176  0.00  0.00    +0.000 NA
ATOM     15  C   UNL     1       1.719   8.940  17.862  0.00  0.00    +0.000 C 
ATOM     16  C   UNL     1       2.057  10.409  18.033  0.00  0.00    +0.000 C 
ATOM     17  C   UNL     1       1.166  10.881  19.161  0.00  0.00    +0.000 C 
ATOM     18  C   UNL     1       0.679   9.616  19.857  0.00  0.00    +0.000 C 
ENDBRANCH  13  14
ENDBRANCH   4  13
BRANCH  11  19
ATOM     19  C   UNL     1       4.022   3.959  16.979  0.00  0.00    +0.000 C 
BRANCH  19  20
ATOM     20  C   UNL     1       4.904   4.833  16.065  0.00  0.00    +0.000 C 
ATOM     21  C   UNL     1       5.883   3.992  15.238  0.00  0.00    +0.000 C 
ATOM     22  C   UNL     1       6.969   4.848  14.595  0.00  0.00    +0.000 C 
ATOM     23  O   UNL     1       7.613   5.683  15.556  0.00  0.00    +0.000 OA
ATOM     24  C   UNL     1       6.704   6.603  16.150  0.00  0.00    +0.000 C 
ATOM     25  C   UNL     1       5.652   5.850  16.943  0.00  0.00    +0.000 C 
ENDBRANCH  19  20
ENDBRANCH  11  19
TORSDOF 4
ENDMDL
MODEL 9
REMARK VINA RESULT:      -6.2      6.386      9.855
REMARK  Name = 
REMARK  4 active torsions:
REMARK  status: ('A' for Active; 'I' for Inactive)
REMARK    1  A    between atoms: C_4  and  C_5
REMARK    2  A    between atoms: C_5  and  N_6
REMARK    3  A    between atoms: N_17  and  C_18
REMARK    4  A    between atoms: C_18  and  C_19
REMARK                            x       y       z     vdW  Elec       q    Type
REMARK                         _______ _______ _______ _____ _____    ______ ____
ROOT
ATOM      1  O   UNL     1      -0.333   9.663  23.726  0.00  0.00    +0.000 OA
ATOM      2  C   UNL     1      -0.574  10.527  22.889  0.00  0.00    +0.000 A 
ATOM      3  C   UNL     1      -1.720  11.423  23.107  0.00  0.00    +0.000 A 
ATOM      4  C   UNL     1      -1.997  12.357  22.189  0.00  0.00    +0.000 A 
ATOM      5  N   UNL     1      -1.233  12.542  21.064  0.00  0.00    +0.000 NA
ATOM      6  C   UNL     1      -0.232  11.740  20.858  0.00  0.00    +0.000 A 
ATOM      7  N   UNL     1       0.148  10.742  21.733  0.00  0.00    +0.000 N 
ATOM      8  C   UNL     1       1.281   9.856  21.456  0.00  0.00    +0.000 C 
ATOM      9  C   UNL     1       1.047   8.921  20.270  0.00  0.00    +0.000 C 
ATOM     10  C   UNL     1       1.209   9.618  18.920  0.00  0.00    +0.000 C 
ATOM     11  N   UNL     1       0.264  10.696  18.633  0.00  0.00    +0.000 NA
ATOM     12  C   UNL     1       0.497  11.869  19.516  0.00  0.00    +0.000 C 
ENDROOT
BRANCH   4  13
ATOM     13  C   UNL     1      -3.198  13.283  22.351  0.00  0.00    +0.000 C 
BRANCH  13  14
ATOM     14  N   UNL     1      -3.179  14.442  21.441  0.00  0.00    +0.000 NA
ATOM     15  C   UNL     1      -3.054  15.733  22.131  0.00  0.00    +0.000 C 
ATOM     16  C   UNL     1      -4.463  16.258  22.332  0.00  0.00    +0.000 C 
ATOM     17  C   UNL     1      -5.260  15.669  21.188  0.00  0.00    +0.000 C 
ATOM     18  C   UNL     1      -4.412  14.528  20.641  0.00  0.00    +0.000 C 
ENDBRANCH  13  14
ENDBRANCH   4  13
BRANCH  11  19
ATOM     19  C   UNL     1      -1.157  10.297  18.638  0.00  0.00    +0.000 C 
BRANCH  19  20
ATOM     20  C   UNL     1      -2.100  11.032  17.665  0.00  0.00    +0.000 C 
ATOM     21  C   UNL     1      -3.429  11.411  18.328  0.00  0.00    +0.000 C 
ATOM     22  C   UNL     1      -4.481  11.827  17.306  0.00  0.00    +0.000 C 
ATOM     23  O   UNL     1      -4.622  10.851  16.275  0.00  0.00    +0.000 OA
ATOM     24  C   UNL     1      -3.416  10.684  15.537  0.00  0.00    +0.000 C 
ATOM     25  C   UNL     1      -2.330  10.131  16.440  0.00  0.00    +0.000 C 
ENDBRANCH  19  20
ENDBRANCH  11  19
TORSDOF 4
ENDMDL
