MODEL 1
REMARK VINA RESULT:      -7.7      0.000      0.000
REMARK  Name = 
REMARK  13 active torsions:
REMARK  status: ('A' for Active; 'I' for Inactive)
REMARK    1  A    between atoms: C_2  and  C_3
REMARK    2  A    between atoms: C_3  and  N_4
REMARK    3  A    between atoms: N_7  and  C_8
REMARK    4  A    between atoms: N_7  and  C_26
REMARK    5  A    between atoms: C_8  and  C_9
REMARK    6  A    between atoms: C_9  and  C_10
REMARK    7  A    between atoms: C_10  and  C_11
REMARK    8  A    between atoms: C_11  and  N_12
REMARK    9  A    between atoms: C_11  and  C_16
REMARK   10  A    between atoms: C_13  and  C_14
REMARK   11  A    between atoms: N_18  and  C_19
REMARK   12  A    between atoms: C_19  and  C_20
REMARK   13  A    between atoms: C_26  and  C_27
REMARK                            x       y       z     vdW  Elec       q    Type
REMARK                         _______ _______ _______ _____ _____    ______ ____
ROOT
ATOM      1  C   UNL     1       4.745   6.245  16.684  0.00  0.00    +0.000 C 
ENDROOT
BRANCH   1   2
ATOM      2  C   UNL     1       4.292   7.334  17.674  0.00  0.00    +0.000 C 
BRANCH   2   3
ATOM      3  C   UNL     1       2.772   7.563  17.696  0.00  0.00    +0.000 C 
BRANCH   3   7
ATOM      4  N   UNL     1       1.153   9.693  18.753  0.00  0.00    +0.000 N 
ATOM      5  C   UNL     1       1.498   8.676  19.606  0.00  0.00    +0.000 C 
ATOM      6  O   UNL     1       1.203   8.722  20.801  0.00  0.00    +0.000 OA
ATOM      7  N   UNL     1       2.230   7.628  19.062  0.00  0.00    +0.000 N 
ATOM      8  H   UNL     1       1.053   9.480  17.775  0.00  0.00    +0.000 HD
BRANCH   4   9
ATOM      9  C   UNL     1       0.391  10.832  19.223  0.00  0.00    +0.000 C 
BRANCH   9  11
ATOM     10  C   UNL     1       2.326  12.155  18.306  0.00  0.00    +0.000 C 
ATOM     11  C   UNL     1       1.072  12.089  18.777  0.00  0.00    +0.000 C 
ENDBRANCH   9  11
ENDBRANCH   4   9
BRANCH   7  12
ATOM     12  C   UNL     1       2.658   6.576  19.988  0.00  0.00    +0.000 C 
BRANCH  12  13
ATOM     13  C   UNL     1       2.067   5.209  19.710  0.00  0.00    +0.000 A 
ATOM     14  C   UNL     1       1.656   4.374  20.760  0.00  0.00    +0.000 A 
ATOM     15  C   UNL     1       0.998   3.169  20.494  0.00  0.00    +0.000 A 
ATOM     16  C   UNL     1       0.752   2.779  19.179  0.00  0.00    +0.000 A 
ATOM     17  C   UNL     1       1.186   3.581  18.126  0.00  0.00    +0.000 A 
ATOM     18  C   UNL     1       1.843   4.786  18.390  0.00  0.00    +0.000 A 
ENDBRANCH  12  13
ENDBRANCH   7  12
ENDBRANCH   3   7
ENDBRANCH   2   3
ENDBRANCH   1   2
BRANCH   1  19
ATOM     19  C   UNL     1       5.833   5.302  17.219  0.00  0.00    +0.000 C 
BRANCH  19  20
ATOM     20  N   UNL     1       5.231   4.072  17.735  0.00  0.00    +0.000 N 
ATOM     21  C   UNL     1       5.182   3.805  19.082  0.00  0.00    +0.000 C 
ATOM     22  C   UNL     1       4.606   2.457  19.417  0.00  0.00    +0.000 C 
ATOM     23  O   UNL     1       5.604   4.582  19.932  0.00  0.00    +0.000 OA
ATOM     24  H   UNL     1       5.154   3.294  17.091  0.00  0.00    +0.000 HD
ENDBRANCH  19  20
BRANCH  19  25
ATOM     25  C   UNL     1       6.864   4.933  16.121  0.00  0.00    +0.000 C 
ATOM     26  O   UNL     1       7.916   4.345  16.361  0.00  0.00    +0.000 OA
ATOM     27  N   UNL     1       6.478   5.281  14.844  0.00  0.00    +0.000 N 
ATOM     28  H   UNL     1       5.512   5.567  14.695  0.00  0.00    +0.000 HD
BRANCH  27  29
ATOM     29  C   UNL     1       7.276   4.938  13.691  0.00  0.00    +0.000 C 
BRANCH  29  30
ATOM     30  C   UNL     1       6.563   3.955  12.801  0.00  0.00    +0.000 A 
ATOM     31  C   UNL     1       5.166   3.988  12.689  0.00  0.00    +0.000 A 
ATOM     32  C   UNL     1       4.498   3.085  11.860  0.00  0.00    +0.000 A 
ATOM     33  C   UNL     1       5.220   2.135  11.141  0.00  0.00    +0.000 A 
ATOM     34  C   UNL     1       6.609   2.082  11.256  0.00  0.00    +0.000 A 
ATOM     35  C   UNL     1       7.279   2.984  12.085  0.00  0.00    +0.000 A 
ENDBRANCH  29  30
ENDBRANCH  27  29
ENDBRANCH  19  25
ENDBRANCH   1  19
TORSDOF 12
ENDMDL
MODEL 2
REMARK VINA RESULT:      -7.5      3.485      9.689
REMARK  Name = 
REMARK  13 active torsions:
REMARK  status: ('A' for Active; 'I' for Inactive)
REMARK    1  A    between atoms: C_2  and  C_3
REMARK    2  A    between atoms: C_3  and  N_4
REMARK    3  A    between atoms: N_7  and  C_8
REMARK    4  A    between atoms: N_7  and  C_26
REMARK    5  A    between atoms: C_8  and  C_9
REMARK    6  A    between atoms: C_9  and  C_10
REMARK    7  A    between atoms: C_10  and  C_11
REMARK    8  A    between atoms: C_11  and  N_12
REMARK    9  A    between atoms: C_11  and  C_16
REMARK   10  A    between atoms: C_13  and  C_14
REMARK   11  A    between atoms: N_18  and  C_19
REMARK   12  A    between atoms: C_19  and  C_20
REMARK   13  A    between atoms: C_26  and  C_27
REMARK                            x       y       z     vdW  Elec       q    Type
REMARK                         _______ _______ _______ _____ _____    ______ ____
ROOT
ATOM      1  C   UNL     1       1.952   9.549  18.393  0.00  0.00    +0.000 C 
ENDROOT
BRANCH   1   2
ATOM      2  C   UNL     1       2.462   8.255  17.733  0.00  0.00    +0.000 C 
BRANCH   2   3
ATOM      3  C   UNL     1       2.563   7.061  18.696  0.00  0.00    +0.000 C 
BRANCH   3   7
ATOM      4  N   UNL     1       1.472   4.451  19.215  0.00  0.00    +0.000 N 
ATOM      5  C   UNL     1       2.487   4.542  18.297  0.00  0.00    +0.000 C 
ATOM      6  O   UNL     1       2.972   3.533  17.786  0.00  0.00    +0.000 OA
ATOM      7  N   UNL     1       2.960   5.819  18.017  0.00  0.00    +0.000 N 
ATOM      8  H   UNL     1       0.854   5.238  19.322  0.00  0.00    +0.000 HD
BRANCH   4   9
ATOM      9  C   UNL     1       0.908   3.167  19.577  0.00  0.00    +0.000 C 
BRANCH   9  11
ATOM     10  C   UNL     1       2.333   3.300  21.648  0.00  0.00    +0.000 C 
ATOM     11  C   UNL     1       1.228   2.884  21.013  0.00  0.00    +0.000 C 
ENDBRANCH   9  11
ENDBRANCH   4   9
BRANCH   7  12
ATOM     12  C   UNL     1       4.090   5.909  17.090  0.00  0.00    +0.000 C 
BRANCH  12  13
ATOM     13  C   UNL     1       5.430   6.165  17.749  0.00  0.00    +0.000 A 
ATOM     14  C   UNL     1       5.846   5.407  18.855  0.00  0.00    +0.000 A 
ATOM     15  C   UNL     1       7.133   5.562  19.380  0.00  0.00    +0.000 A 
ATOM     16  C   UNL     1       8.015   6.481  18.815  0.00  0.00    +0.000 A 
ATOM     17  C   UNL     1       7.604   7.264  17.739  0.00  0.00    +0.000 A 
ATOM     18  C   UNL     1       6.318   7.110  17.213  0.00  0.00    +0.000 A 
ENDBRANCH  12  13
ENDBRANCH   7  12
ENDBRANCH   3   7
ENDBRANCH   2   3
ENDBRANCH   1   2
BRANCH   1  19
ATOM     19  C   UNL     1       0.656   9.391  19.201  0.00  0.00    +0.000 C 
BRANCH  19  20
ATOM     20  N   UNL     1       0.902   9.666  20.616  0.00  0.00    +0.000 N 
ATOM     21  C   UNL     1       0.221   9.001  21.608  0.00  0.00    +0.000 C 
ATOM     22  C   UNL     1       0.545   9.478  22.997  0.00  0.00    +0.000 C 
ATOM     23  O   UNL     1      -0.604   8.123  21.378  0.00  0.00    +0.000 OA
ATOM     24  H   UNL     1       1.324  10.558  20.844  0.00  0.00    +0.000 HD
ENDBRANCH  19  20
BRANCH  19  25
ATOM     25  C   UNL     1      -0.459  10.342  18.692  0.00  0.00    +0.000 C 
ATOM     26  O   UNL     1      -1.228  10.047  17.781  0.00  0.00    +0.000 OA
ATOM     27  N   UNL     1      -0.543  11.533  19.384  0.00  0.00    +0.000 N 
ATOM     28  H   UNL     1      -0.023  11.621  20.255  0.00  0.00    +0.000 HD
BRANCH  27  29
ATOM     29  C   UNL     1      -1.576  12.501  19.101  0.00  0.00    +0.000 C 
BRANCH  29  30
ATOM     30  C   UNL     1      -2.562  12.599  20.234  0.00  0.00    +0.000 A 
ATOM     31  C   UNL     1      -3.936  12.690  19.968  0.00  0.00    +0.000 A 
ATOM     32  C   UNL     1      -4.857  12.773  21.014  0.00  0.00    +0.000 A 
ATOM     33  C   UNL     1      -4.414  12.774  22.335  0.00  0.00    +0.000 A 
ATOM     34  C   UNL     1      -3.049  12.700  22.611  0.00  0.00    +0.000 A 
ATOM     35  C   UNL     1      -2.126  12.618  21.567  0.00  0.00    +0.000 A 
ENDBRANCH  29  30
ENDBRANCH  27  29
ENDBRANCH  19  25
ENDBRANCH   1  19
TORSDOF 12
ENDMDL
MODEL 3
REMARK VINA RESULT:      -7.4      2.472      8.287
REMARK  Name = 
REMARK  13 active torsions:
REMARK  status: ('A' for Active; 'I' for Inactive)
REMARK    1  A    between atoms: C_2  and  C_3
REMARK    2  A    between atoms: C_3  and  N_4
REMARK    3  A    between atoms: N_7  and  C_8
REMARK    4  A    between atoms: N_7  and  C_26
REMARK    5  A    between atoms: C_8  and  C_9
REMARK    6  A    between atoms: C_9  and  C_10
REMARK    7  A    between atoms: C_10  and  C_11
REMARK    8  A    between atoms: C_11  and  N_12
REMARK    9  A    between atoms: C_11  and  C_16
REMARK   10  A    between atoms: C_13  and  C_14
REMARK   11  A    between atoms: N_18  and  C_19
REMARK   12  A    between atoms: C_19  and  C_20
REMARK   13  A    between atoms: C_26  and  C_27
REMARK                            x       y       z     vdW  Elec       q    Type
REMARK                         _______ _______ _______ _____ _____    ______ ____
ROOT
ATOM      1  C   UNL     1       3.975   6.317  18.435  0.00  0.00    +0.000 C 
ENDROOT
BRANCH   1   2
ATOM      2  C   UNL     1       3.873   7.215  17.188  0.00  0.00    +0.000 C 
BRANCH   2   3
ATOM      3  C   UNL     1       4.867   6.850  16.074  0.00  0.00    +0.000 C 
BRANCH   3   7
ATOM      4  N   UNL     1       7.192   7.508  17.634  0.00  0.00    +0.000 N 
ATOM      5  C   UNL     1       7.053   6.208  17.222  0.00  0.00    +0.000 C 
ATOM      6  O   UNL     1       7.936   5.377  17.435  0.00  0.00    +0.000 OA
ATOM      7  N   UNL     1       5.894   5.898  16.521  0.00  0.00    +0.000 N 
ATOM      8  H   UNL     1       6.359   8.047  17.800  0.00  0.00    +0.000 HD
BRANCH   4   9
ATOM      9  C   UNL     1       8.364   7.934  18.372  0.00  0.00    +0.000 C 
BRANCH   9  11
ATOM     10  C   UNL     1       9.143  10.214  19.100  0.00  0.00    +0.000 C 
ATOM     11  C   UNL     1       8.521   9.416  18.220  0.00  0.00    +0.000 C 
ENDBRANCH   9  11
ENDBRANCH   4   9
BRANCH   7  12
ATOM     12  C   UNL     1       5.778   4.526  16.020  0.00  0.00    +0.000 C 
BRANCH  12  13
ATOM     13  C   UNL     1       6.250   4.330  14.594  0.00  0.00    +0.000 A 
ATOM     14  C   UNL     1       5.553   3.489  13.712  0.00  0.00    +0.000 A 
ATOM     15  C   UNL     1       5.919   3.411  12.365  0.00  0.00    +0.000 A 
ATOM     16  C   UNL     1       6.991   4.161  11.884  0.00  0.00    +0.000 A 
ATOM     17  C   UNL     1       7.713   4.973  12.756  0.00  0.00    +0.000 A 
ATOM     18  C   UNL     1       7.348   5.053  14.102  0.00  0.00    +0.000 A 
ENDBRANCH  12  13
ENDBRANCH   7  12
ENDBRANCH   3   7
ENDBRANCH   2   3
ENDBRANCH   1   2
BRANCH   1  19
ATOM     19  C   UNL     1       2.695   5.540  18.775  0.00  0.00    +0.000 C 
BRANCH  19  20
ATOM     20  N   UNL     1       2.961   4.102  18.788  0.00  0.00    +0.000 N 
ATOM     21  C   UNL     1       2.434   3.264  17.835  0.00  0.00    +0.000 C 
ATOM     22  C   UNL     1       2.746   1.810  18.060  0.00  0.00    +0.000 C 
ATOM     23  O   UNL     1       1.742   3.662  16.905  0.00  0.00    +0.000 OA
ATOM     24  H   UNL     1       3.255   3.698  19.669  0.00  0.00    +0.000 HD
ENDBRANCH  19  20
BRANCH  19  25
ATOM     25  C   UNL     1       2.119   5.955  20.154  0.00  0.00    +0.000 C 
ATOM     26  O   UNL     1       1.914   5.156  21.063  0.00  0.00    +0.000 OA
ATOM     27  N   UNL     1       1.899   7.311  20.288  0.00  0.00    +0.000 N 
ATOM     28  H   UNL     1       2.288   7.933  19.582  0.00  0.00    +0.000 HD
BRANCH  27  29
ATOM     29  C   UNL     1       1.445   7.885  21.533  0.00  0.00    +0.000 C 
BRANCH  29  30
ATOM     30  C   UNL     1       0.633   9.131  21.300  0.00  0.00    +0.000 A 
ATOM     31  C   UNL     1       0.521   9.669  20.011  0.00  0.00    +0.000 A 
ATOM     32  C   UNL     1      -0.237  10.820  19.785  0.00  0.00    +0.000 A 
ATOM     33  C   UNL     1      -0.883  11.448  20.848  0.00  0.00    +0.000 A 
ATOM     34  C   UNL     1      -0.766  10.930  22.137  0.00  0.00    +0.000 A 
ATOM     35  C   UNL     1      -0.009   9.780  22.365  0.00  0.00    +0.000 A 
ENDBRANCH  29  30
ENDBRANCH  27  29
ENDBRANCH  19  25
ENDBRANCH   1  19
TORSDOF 12
ENDMDL
MODEL 4
REMARK VINA RESULT:      -7.4      2.514      8.306
REMARK  Name = 
REMARK  13 active torsions:
REMARK  status: ('A' for Active; 'I' for Inactive)
REMARK    1  A    between atoms: C_2  and  C_3
REMARK    2  A    between atoms: C_3  and  N_4
REMARK    3  A    between atoms: N_7  and  C_8
REMARK    4  A    between atoms: N_7  and  C_26
REMARK    5  A    between atoms: C_8  and  C_9
REMARK    6  A    between atoms: C_9  and  C_10
REMARK    7  A    between atoms: C_10  and  C_11
REMARK    8  A    between atoms: C_11  and  N_12
REMARK    9  A    between atoms: C_11  and  C_16
REMARK   10  A    between atoms: C_13  and  C_14
REMARK   11  A    between atoms: N_18  and  C_19
REMARK   12  A    between atoms: C_19  and  C_20
REMARK   13  A    between atoms: C_26  and  C_27
REMARK                            x       y       z     vdW  Elec       q    Type
REMARK                         _______ _______ _______ _____ _____    ______ ____
ROOT
ATOM      1  C   UNL     1       3.951   6.421  18.310  0.00  0.00    +0.000 C 
ENDROOT
BRANCH   1   2
ATOM      2  C   UNL     1       3.856   7.330  17.071  0.00  0.00    +0.000 C 
BRANCH   2   3
ATOM      3  C   UNL     1       4.856   6.973  15.958  0.00  0.00    +0.000 C 
BRANCH   3   7
ATOM      4  N   UNL     1       7.167   7.755  17.480  0.00  0.00    +0.000 N 
ATOM      5  C   UNL     1       7.072   6.440  17.104  0.00  0.00    +0.000 C 
ATOM      6  O   UNL     1       7.986   5.647  17.330  0.00  0.00    +0.000 OA
ATOM      7  N   UNL     1       5.919   6.070  16.421  0.00  0.00    +0.000 N 
ATOM      8  H   UNL     1       6.316   8.268  17.639  0.00  0.00    +0.000 HD
BRANCH   4   9
ATOM      9  C   UNL     1       8.328   8.241  18.197  0.00  0.00    +0.000 C 
BRANCH   9  11
ATOM     10  C   UNL     1       9.391  10.517  18.375  0.00  0.00    +0.000 C 
ATOM     11  C   UNL     1       8.315   9.740  18.182  0.00  0.00    +0.000 C 
ENDBRANCH   9  11
ENDBRANCH   4   9
BRANCH   7  12
ATOM     12  C   UNL     1       5.849   4.682  15.958  0.00  0.00    +0.000 C 
BRANCH  12  13
ATOM     13  C   UNL     1       6.184   4.486  14.493  0.00  0.00    +0.000 A 
ATOM     14  C   UNL     1       7.311   5.099  13.923  0.00  0.00    +0.000 A 
ATOM     15  C   UNL     1       7.685   4.814  12.606  0.00  0.00    +0.000 A 
ATOM     16  C   UNL     1       6.934   3.924  11.840  0.00  0.00    +0.000 A 
ATOM     17  C   UNL     1       5.794   3.336  12.382  0.00  0.00    +0.000 A 
ATOM     18  C   UNL     1       5.419   3.619  13.698  0.00  0.00    +0.000 A 
ENDBRANCH  12  13
ENDBRANCH   7  12
ENDBRANCH   3   7
ENDBRANCH   2   3
ENDBRANCH   1   2
BRANCH   1  19
ATOM     19  C   UNL     1       2.643   5.707  18.685  0.00  0.00    +0.000 C 
BRANCH  19  20
ATOM     20  N   UNL     1       2.830   4.257  18.657  0.00  0.00    +0.000 N 
ATOM     21  C   UNL     1       1.996   3.437  17.936  0.00  0.00    +0.000 C 
ATOM     22  C   UNL     1       2.290   1.971  18.097  0.00  0.00    +0.000 C 
ATOM     23  O   UNL     1       1.071   3.862  17.251  0.00  0.00    +0.000 OA
ATOM     24  H   UNL     1       3.360   3.848  19.418  0.00  0.00    +0.000 HD
ENDBRANCH  19  20
BRANCH  19  25
ATOM     25  C   UNL     1       2.146   6.122  20.094  0.00  0.00    +0.000 C 
ATOM     26  O   UNL     1       1.952   5.316  21.000  0.00  0.00    +0.000 OA
ATOM     27  N   UNL     1       1.982   7.482  20.257  0.00  0.00    +0.000 N 
ATOM     28  H   UNL     1       2.362   8.101  19.543  0.00  0.00    +0.000 HD
BRANCH  27  29
ATOM     29  C   UNL     1       1.606   8.052  21.529  0.00  0.00    +0.000 C 
BRANCH  29  30
ATOM     30  C   UNL     1       0.698   9.240  21.352  0.00  0.00    +0.000 A 
ATOM     31  C   UNL     1       0.109   9.851  22.468  0.00  0.00    +0.000 A 
ATOM     32  C   UNL     1      -0.729  10.957  22.312  0.00  0.00    +0.000 A 
ATOM     33  C   UNL     1      -0.992  11.458  21.039  0.00  0.00    +0.000 A 
ATOM     34  C   UNL     1      -0.425  10.849  19.921  0.00  0.00    +0.000 A 
ATOM     35  C   UNL     1       0.412   9.742  20.073  0.00  0.00    +0.000 A 
ENDBRANCH  29  30
ENDBRANCH  27  29
ENDBRANCH  19  25
ENDBRANCH   1  19
TORSDOF 12
ENDMDL
MODEL 5
REMARK VINA RESULT:      -7.3      2.641      4.687
REMARK  Name = 
REMARK  13 active torsions:
REMARK  status: ('A' for Active; 'I' for Inactive)
REMARK    1  A    between atoms: C_2  and  C_3
REMARK    2  A    between atoms: C_3  and  N_4
REMARK    3  A    between atoms: N_7  and  C_8
REMARK    4  A    between atoms: N_7  and  C_26
REMARK    5  A    between atoms: C_8  and  C_9
REMARK    6  A    between atoms: C_9  and  C_10
REMARK    7  A    between atoms: C_10  and  C_11
REMARK    8  A    between atoms: C_11  and  N_12
REMARK    9  A    between atoms: C_11  and  C_16
REMARK   10  A    between atoms: C_13  and  C_14
REMARK   11  A    between atoms: N_18  and  C_19
REMARK   12  A    between atoms: C_19  and  C_20
REMARK   13  A    between atoms: C_26  and  C_27
REMARK                            x       y       z     vdW  Elec       q    Type
REMARK                         _______ _______ _______ _____ _____    ______ ____
ROOT
ATOM      1  C   UNL     1       2.816   7.358  17.988  0.00  0.00    +0.000 C 
ENDROOT
BRANCH   1   2
ATOM      2  C   UNL     1       1.483   8.082  18.253  0.00  0.00    +0.000 C 
BRANCH   2   3
ATOM      3  C   UNL     1       1.466   9.547  17.786  0.00  0.00    +0.000 C 
BRANCH   3   7
ATOM      4  N   UNL     1      -1.307   9.764  17.054  0.00  0.00    +0.000 N 
ATOM      5  C   UNL     1      -0.870  10.517  18.114  0.00  0.00    +0.000 C 
ATOM      6  O   UNL     1      -1.617  11.323  18.670  0.00  0.00    +0.000 OA
ATOM      7  N   UNL     1       0.457  10.353  18.489  0.00  0.00    +0.000 N 
ATOM      8  H   UNL     1      -0.850   8.886  16.874  0.00  0.00    +0.000 HD
BRANCH   4   9
ATOM      9  C   UNL     1      -2.674   9.861  16.585  0.00  0.00    +0.000 C 
BRANCH   9  11
ATOM     10  C   UNL     1      -3.538  10.066  14.229  0.00  0.00    +0.000 C 
ATOM     11  C   UNL     1      -2.671  10.412  15.192  0.00  0.00    +0.000 C 
ENDBRANCH   9  11
ENDBRANCH   4   9
BRANCH   7  12
ATOM     12  C   UNL     1       0.942  11.208  19.576  0.00  0.00    +0.000 C 
BRANCH  12  13
ATOM     13  C   UNL     1       0.415  10.846  20.949  0.00  0.00    +0.000 A 
ATOM     14  C   UNL     1      -0.349  11.758  21.693  0.00  0.00    +0.000 A 
ATOM     15  C   UNL     1      -0.937  11.374  22.903  0.00  0.00    +0.000 A 
ATOM     16  C   UNL     1      -0.760  10.081  23.389  0.00  0.00    +0.000 A 
ATOM     17  C   UNL     1       0.024   9.175  22.678  0.00  0.00    +0.000 A 
ATOM     18  C   UNL     1       0.612   9.557  21.469  0.00  0.00    +0.000 A 
ENDBRANCH  12  13
ENDBRANCH   7  12
ENDBRANCH   3   7
ENDBRANCH   2   3
ENDBRANCH   1   2
BRANCH   1  19
ATOM     19  C   UNL     1       3.154   6.246  18.992  0.00  0.00    +0.000 C 
BRANCH  19  20
ATOM     20  N   UNL     1       2.218   5.130  18.849  0.00  0.00    +0.000 N 
ATOM     21  C   UNL     1       1.747   4.441  19.941  0.00  0.00    +0.000 C 
ATOM     22  C   UNL     1       0.864   3.275  19.593  0.00  0.00    +0.000 C 
ATOM     23  O   UNL     1       2.049   4.730  21.094  0.00  0.00    +0.000 OA
ATOM     24  H   UNL     1       2.183   4.674  17.946  0.00  0.00    +0.000 HD
ENDBRANCH  19  20
BRANCH  19  25
ATOM     25  C   UNL     1       4.598   5.716  18.799  0.00  0.00    +0.000 C 
ATOM     26  O   UNL     1       5.304   5.338  19.731  0.00  0.00    +0.000 OA
ATOM     27  N   UNL     1       5.008   5.662  17.483  0.00  0.00    +0.000 N 
ATOM     28  H   UNL     1       4.306   5.784  16.756  0.00  0.00    +0.000 HD
BRANCH  27  29
ATOM     29  C   UNL     1       6.292   5.115  17.112  0.00  0.00    +0.000 C 
BRANCH  29  30
ATOM     30  C   UNL     1       6.341   4.775  15.646  0.00  0.00    +0.000 A 
ATOM     31  C   UNL     1       5.306   4.034  15.058  0.00  0.00    +0.000 A 
ATOM     32  C   UNL     1       5.340   3.721  13.698  0.00  0.00    +0.000 A 
ATOM     33  C   UNL     1       6.414   4.138  12.914  0.00  0.00    +0.000 A 
ATOM     34  C   UNL     1       7.457   4.862  13.491  0.00  0.00    +0.000 A 
ATOM     35  C   UNL     1       7.425   5.175  14.851  0.00  0.00    +0.000 A 
ENDBRANCH  29  30
ENDBRANCH  27  29
ENDBRANCH  19  25
ENDBRANCH   1  19
TORSDOF 12
ENDMDL
MODEL 6
REMARK VINA RESULT:      -7.2      2.736      7.856
REMARK  Name = 
REMARK  13 active torsions:
REMARK  status: ('A' for Active; 'I' for Inactive)
REMARK    1  A    between atoms: C_2  and  C_3
REMARK    2  A    between atoms: C_3  and  N_4
REMARK    3  A    between atoms: N_7  and  C_8
REMARK    4  A    between atoms: N_7  and  C_26
REMARK    5  A    between atoms: C_8  and  C_9
REMARK    6  A    between atoms: C_9  and  C_10
REMARK    7  A    between atoms: C_10  and  C_11
REMARK    8  A    between atoms: C_11  and  N_12
REMARK    9  A    between atoms: C_11  and  C_16
REMARK   10  A    between atoms: C_13  and  C_14
REMARK   11  A    between atoms: N_18  and  C_19
REMARK   12  A    between atoms: C_19  and  C_20
REMARK   13  A    between atoms: C_26  and  C_27
REMARK                            x       y       z     vdW  Elec       q    Type
REMARK                         _______ _______ _______ _____ _____    ______ ____
ROOT
ATOM      1  C   UNL     1       3.236   7.028  19.010  0.00  0.00    +0.000 C 
ENDROOT
BRANCH   1   2
ATOM      2  C   UNL     1       3.078   6.706  17.513  0.00  0.00    +0.000 C 
BRANCH   2   3
ATOM      3  C   UNL     1       4.282   7.127  16.653  0.00  0.00    +0.000 C 
BRANCH   3   7
ATOM      4  N   UNL     1       6.940   7.821  17.502  0.00  0.00    +0.000 N 
ATOM      5  C   UNL     1       6.716   6.524  17.119  0.00  0.00    +0.000 C 
ATOM      6  O   UNL     1       7.641   5.713  17.053  0.00  0.00    +0.000 OA
ATOM      7  N   UNL     1       5.412   6.194  16.769  0.00  0.00    +0.000 N 
ATOM      8  H   UNL     1       6.178   8.336  17.909  0.00  0.00    +0.000 HD
BRANCH   4   9
ATOM      9  C   UNL     1       8.264   8.266  17.886  0.00  0.00    +0.000 C 
BRANCH   9  11
ATOM     10  C   UNL     1       9.277  10.484  18.511  0.00  0.00    +0.000 C 
ATOM     11  C   UNL     1       8.239   9.751  18.085  0.00  0.00    +0.000 C 
ENDBRANCH   9  11
ENDBRANCH   4   9
BRANCH   7  12
ATOM     12  C   UNL     1       5.187   4.827  16.293  0.00  0.00    +0.000 C 
BRANCH  12  13
ATOM     13  C   UNL     1       4.579   3.892  17.318  0.00  0.00    +0.000 A 
ATOM     14  C   UNL     1       3.513   3.044  16.979  0.00  0.00    +0.000 A 
ATOM     15  C   UNL     1       3.039   2.097  17.892  0.00  0.00    +0.000 A 
ATOM     16  C   UNL     1       3.615   1.992  19.157  0.00  0.00    +0.000 A 
ATOM     17  C   UNL     1       4.650   2.851  19.519  0.00  0.00    +0.000 A 
ATOM     18  C   UNL     1       5.125   3.798  18.608  0.00  0.00    +0.000 A 
ENDBRANCH  12  13
ENDBRANCH   7  12
ENDBRANCH   3   7
ENDBRANCH   2   3
ENDBRANCH   1   2
BRANCH   1  19
ATOM     19  C   UNL     1       1.979   6.779  19.857  0.00  0.00    +0.000 C 
BRANCH  19  20
ATOM     20  N   UNL     1       2.225   5.716  20.831  0.00  0.00    +0.000 N 
ATOM     21  C   UNL     1       1.648   4.476  20.703  0.00  0.00    +0.000 C 
ATOM     22  C   UNL     1       1.948   3.542  21.844  0.00  0.00    +0.000 C 
ATOM     23  O   UNL     1       0.925   4.169  19.761  0.00  0.00    +0.000 OA
ATOM     24  H   UNL     1       2.547   6.000  21.749  0.00  0.00    +0.000 HD
ENDBRANCH  19  20
BRANCH  19  25
ATOM     25  C   UNL     1       1.533   8.058  20.613  0.00  0.00    +0.000 C 
ATOM     26  O   UNL     1       1.687   8.210  21.822  0.00  0.00    +0.000 OA
ATOM     27  N   UNL     1       0.988   9.032  19.801  0.00  0.00    +0.000 N 
ATOM     28  H   UNL     1       1.088   8.928  18.793  0.00  0.00    +0.000 HD
BRANCH  27  29
ATOM     29  C   UNL     1       0.597  10.320  20.322  0.00  0.00    +0.000 C 
BRANCH  29  30
ATOM     30  C   UNL     1      -0.681  10.803  19.690  0.00  0.00    +0.000 A 
ATOM     31  C   UNL     1      -1.142  10.225  18.499  0.00  0.00    +0.000 A 
ATOM     32  C   UNL     1      -2.331  10.662  17.910  0.00  0.00    +0.000 A 
ATOM     33  C   UNL     1      -3.065  11.687  18.503  0.00  0.00    +0.000 A 
ATOM     34  C   UNL     1      -2.609  12.280  19.679  0.00  0.00    +0.000 A 
ATOM     35  C   UNL     1      -1.421  11.845  20.269  0.00  0.00    +0.000 A 
ENDBRANCH  29  30
ENDBRANCH  27  29
ENDBRANCH  19  25
ENDBRANCH   1  19
TORSDOF 12
ENDMDL
MODEL 7
REMARK VINA RESULT:      -7.1      3.122      9.963
REMARK  Name = 
REMARK  13 active torsions:
REMARK  status: ('A' for Active; 'I' for Inactive)
REMARK    1  A    between atoms: C_2  and  C_3
REMARK    2  A    between atoms: C_3  and  N_4
REMARK    3  A    between atoms: N_7  and  C_8
REMARK    4  A    between atoms: N_7  and  C_26
REMARK    5  A    between atoms: C_8  and  C_9
REMARK    6  A    between atoms: C_9  and  C_10
REMARK    7  A    between atoms: C_10  and  C_11
REMARK    8  A    between atoms: C_11  and  N_12
REMARK    9  A    between atoms: C_11  and  C_16
REMARK   10  A    between atoms: C_13  and  C_14
REMARK   11  A    between atoms: N_18  and  C_19
REMARK   12  A    between atoms: C_19  and  C_20
REMARK   13  A    between atoms: C_26  and  C_27
REMARK                            x       y       z     vdW  Elec       q    Type
REMARK                         _______ _______ _______ _____ _____    ______ ____
ROOT
ATOM      1  C   UNL     1       1.429   8.897  19.453  0.00  0.00    +0.000 C 
ENDROOT
BRANCH   1   2
ATOM      2  C   UNL     1       1.876   8.404  18.064  0.00  0.00    +0.000 C 
BRANCH   2   3
ATOM      3  C   UNL     1       3.290   7.801  18.041  0.00  0.00    +0.000 C 
BRANCH   3   7
ATOM      4  N   UNL     1       5.556   6.259  17.171  0.00  0.00    +0.000 N 
ATOM      5  C   UNL     1       4.354   5.609  17.287  0.00  0.00    +0.000 C 
ATOM      6  O   UNL     1       4.233   4.434  16.942  0.00  0.00    +0.000 OA
ATOM      7  N   UNL     1       3.286   6.358  17.765  0.00  0.00    +0.000 N 
ATOM      8  H   UNL     1       5.737   7.038  17.781  0.00  0.00    +0.000 HD
BRANCH   4   9
ATOM      9  C   UNL     1       6.732   5.568  16.683  0.00  0.00    +0.000 C 
BRANCH   9  11
ATOM     10  C   UNL     1       7.710   5.915  18.977  0.00  0.00    +0.000 C 
ATOM     11  C   UNL     1       7.597   5.198  17.849  0.00  0.00    +0.000 C 
ENDBRANCH   9  11
ENDBRANCH   4   9
BRANCH   7  12
ATOM     12  C   UNL     1       1.986   5.683  17.822  0.00  0.00    +0.000 C 
BRANCH  12  13
ATOM     13  C   UNL     1       1.786   4.796  19.034  0.00  0.00    +0.000 A 
ATOM     14  C   UNL     1       1.266   3.499  18.902  0.00  0.00    +0.000 A 
ATOM     15  C   UNL     1       1.201   2.643  20.005  0.00  0.00    +0.000 A 
ATOM     16  C   UNL     1       1.644   3.073  21.254  0.00  0.00    +0.000 A 
ATOM     17  C   UNL     1       2.129   4.370  21.407  0.00  0.00    +0.000 A 
ATOM     18  C   UNL     1       2.195   5.227  20.306  0.00  0.00    +0.000 A 
ENDBRANCH  12  13
ENDBRANCH   7  12
ENDBRANCH   3   7
ENDBRANCH   2   3
ENDBRANCH   1   2
BRANCH   1  19
ATOM     19  C   UNL     1       0.630  10.208  19.443  0.00  0.00    +0.000 C 
BRANCH  19  20
ATOM     20  N   UNL     1      -0.697   9.990  18.867  0.00  0.00    +0.000 N 
ATOM     21  C   UNL     1      -1.395  11.007  18.262  0.00  0.00    +0.000 C 
ATOM     22  C   UNL     1      -2.774  10.616  17.807  0.00  0.00    +0.000 C 
ATOM     23  O   UNL     1      -0.948  12.142  18.137  0.00  0.00    +0.000 OA
ATOM     24  H   UNL     1      -1.218   9.189  19.204  0.00  0.00    +0.000 HD
ENDBRANCH  19  20
BRANCH  19  25
ATOM     25  C   UNL     1       0.466  10.793  20.870  0.00  0.00    +0.000 C 
ATOM     26  O   UNL     1       1.346  11.437  21.435  0.00  0.00    +0.000 OA
ATOM     27  N   UNL     1      -0.772  10.566  21.434  0.00  0.00    +0.000 N 
ATOM     28  H   UNL     1      -1.517  10.217  20.834  0.00  0.00    +0.000 HD
BRANCH  27  29
ATOM     29  C   UNL     1      -1.129  11.111  22.723  0.00  0.00    +0.000 C 
BRANCH  29  30
ATOM     30  C   UNL     1      -2.345  11.993  22.629  0.00  0.00    +0.000 A 
ATOM     31  C   UNL     1      -3.125  12.244  23.767  0.00  0.00    +0.000 A 
ATOM     32  C   UNL     1      -4.250  13.067  23.689  0.00  0.00    +0.000 A 
ATOM     33  C   UNL     1      -4.610  13.641  22.472  0.00  0.00    +0.000 A 
ATOM     34  C   UNL     1      -3.851  13.387  21.331  0.00  0.00    +0.000 A 
ATOM     35  C   UNL     1      -2.726  12.563  21.405  0.00  0.00    +0.000 A 
ENDBRANCH  29  30
ENDBRANCH  27  29
ENDBRANCH  19  25
ENDBRANCH   1  19
TORSDOF 12
ENDMDL
MODEL 8
REMARK VINA RESULT:      -7.1      3.520      9.930
REMARK  Name = 
REMARK  13 active torsions:
REMARK  status: ('A' for Active; 'I' for Inactive)
REMARK    1  A    between atoms: C_2  and  C_3
REMARK    2  A    between atoms: C_3  and  N_4
REMARK    3  A    between atoms: N_7  and  C_8
REMARK    4  A    between atoms: N_7  and  C_26
REMARK    5  A    between atoms: C_8  and  C_9
REMARK    6  A    between atoms: C_9  and  C_10
REMARK    7  A    between atoms: C_10  and  C_11
REMARK    8  A    between atoms: C_11  and  N_12
REMARK    9  A    between atoms: C_11  and  C_16
REMARK   10  A    between atoms: C_13  and  C_14
REMARK   11  A    between atoms: N_18  and  C_19
REMARK   12  A    between atoms: C_19  and  C_20
REMARK   13  A    between atoms: C_26  and  C_27
REMARK                            x       y       z     vdW  Elec       q    Type
REMARK                         _______ _______ _______ _____ _____    ______ ____
ROOT
ATOM      1  C   UNL     1       1.172   8.899  17.552  0.00  0.00    +0.000 C 
ENDROOT
BRANCH   1   2
ATOM      2  C   UNL     1       2.565   8.453  18.034  0.00  0.00    +0.000 C 
BRANCH   2   3
ATOM      3  C   UNL     1       2.556   7.152  18.852  0.00  0.00    +0.000 C 
BRANCH   3   7
ATOM      4  N   UNL     1       1.513   4.492  19.185  0.00  0.00    +0.000 N 
ATOM      5  C   UNL     1       2.490   4.676  18.241  0.00  0.00    +0.000 C 
ATOM      6  O   UNL     1       2.965   3.721  17.626  0.00  0.00    +0.000 OA
ATOM      7  N   UNL     1       2.938   5.978  18.054  0.00  0.00    +0.000 N 
ATOM      8  H   UNL     1       0.892   5.259  19.383  0.00  0.00    +0.000 HD
BRANCH   4   9
ATOM      9  C   UNL     1       0.978   3.174  19.455  0.00  0.00    +0.000 C 
BRANCH   9  11
ATOM     10  C   UNL     1       2.069   3.511  21.699  0.00  0.00    +0.000 C 
ATOM     11  C   UNL     1       1.260   2.819  20.884  0.00  0.00    +0.000 C 
ENDBRANCH   9  11
ENDBRANCH   4   9
BRANCH   7  12
ATOM     12  C   UNL     1       4.030   6.164  17.095  0.00  0.00    +0.000 C 
BRANCH  12  13
ATOM     13  C   UNL     1       5.401   6.323  17.721  0.00  0.00    +0.000 A 
ATOM     14  C   UNL     1       5.805   5.507  18.789  0.00  0.00    +0.000 A 
ATOM     15  C   UNL     1       7.114   5.573  19.279  0.00  0.00    +0.000 A 
ATOM     16  C   UNL     1       8.029   6.460  18.717  0.00  0.00    +0.000 A 
ATOM     17  C   UNL     1       7.631   7.301  17.679  0.00  0.00    +0.000 A 
ATOM     18  C   UNL     1       6.324   7.236  17.189  0.00  0.00    +0.000 A 
ENDBRANCH  12  13
ENDBRANCH   7  12
ENDBRANCH   3   7
ENDBRANCH   2   3
ENDBRANCH   1   2
BRANCH   1  19
ATOM     19  C   UNL     1       0.479   9.929  18.456  0.00  0.00    +0.000 C 
BRANCH  19  20
ATOM     20  N   UNL     1       1.257  11.167  18.506  0.00  0.00    +0.000 N 
ATOM     21  C   UNL     1       1.313  11.938  19.642  0.00  0.00    +0.000 C 
ATOM     22  C   UNL     1       2.090  13.215  19.478  0.00  0.00    +0.000 C 
ATOM     23  O   UNL     1       0.748  11.629  20.686  0.00  0.00    +0.000 OA
ATOM     24  H   UNL     1       1.476  11.607  17.620  0.00  0.00    +0.000 HD
ENDBRANCH  19  20
BRANCH  19  25
ATOM     25  C   UNL     1      -0.953  10.258  17.961  0.00  0.00    +0.000 C 
ATOM     26  O   UNL     1      -1.535   9.595  17.106  0.00  0.00    +0.000 OA
ATOM     27  N   UNL     1      -1.537  11.334  18.597  0.00  0.00    +0.000 N 
ATOM     28  H   UNL     1      -1.088  11.699  19.434  0.00  0.00    +0.000 HD
BRANCH  27  29
ATOM     29  C   UNL     1      -2.899  11.729  18.321  0.00  0.00    +0.000 C 
BRANCH  29  30
ATOM     30  C   UNL     1      -3.590  12.222  19.565  0.00  0.00    +0.000 A 
ATOM     31  C   UNL     1      -2.840  12.723  20.638  0.00  0.00    +0.000 A 
ATOM     32  C   UNL     1      -3.474  13.189  21.791  0.00  0.00    +0.000 A 
ATOM     33  C   UNL     1      -4.864  13.151  21.886  0.00  0.00    +0.000 A 
ATOM     34  C   UNL     1      -5.619  12.640  20.832  0.00  0.00    +0.000 A 
ATOM     35  C   UNL     1      -4.987  12.172  19.678  0.00  0.00    +0.000 A 
ENDBRANCH  29  30
ENDBRANCH  27  29
ENDBRANCH  19  25
ENDBRANCH   1  19
TORSDOF 12
ENDMDL
MODEL 9
REMARK VINA RESULT:      -7.1      2.808      8.972
REMARK  Name = 
REMARK  13 active torsions:
REMARK  status: ('A' for Active; 'I' for Inactive)
REMARK    1  A    between atoms: C_2  and  C_3
REMARK    2  A    between atoms: C_3  and  N_4
REMARK    3  A    between atoms: N_7  and  C_8
REMARK    4  A    between atoms: N_7  and  C_26
REMARK    5  A    between atoms: C_8  and  C_9
REMARK    6  A    between atoms: C_9  and  C_10
REMARK    7  A    between atoms: C_10  and  C_11
REMARK    8  A    between atoms: C_11  and  N_12
REMARK    9  A    between atoms: C_11  and  C_16
REMARK   10  A    between atoms: C_13  and  C_14
REMARK   11  A    between atoms: N_18  and  C_19
REMARK   12  A    between atoms: C_19  and  C_20
REMARK   13  A    between atoms: C_26  and  C_27
REMARK                            x       y       z     vdW  Elec       q    Type
REMARK                         _______ _______ _______ _____ _____    ______ ____
ROOT
ATOM      1  C   UNL     1       1.797   8.973  17.958  0.00  0.00    +0.000 C 
ENDROOT
BRANCH   1   2
ATOM      2  C   UNL     1       2.808   7.933  18.475  0.00  0.00    +0.000 C 
BRANCH   2   3
ATOM      3  C   UNL     1       3.166   6.847  17.447  0.00  0.00    +0.000 C 
BRANCH   3   7
ATOM      4  N   UNL     1       5.266   5.787  15.792  0.00  0.00    +0.000 N 
ATOM      5  C   UNL     1       5.242   5.403  17.109  0.00  0.00    +0.000 C 
ATOM      6  O   UNL     1       6.035   4.566  17.539  0.00  0.00    +0.000 OA
ATOM      7  N   UNL     1       4.256   5.973  17.905  0.00  0.00    +0.000 N 
ATOM      8  H   UNL     1       4.907   6.696  15.555  0.00  0.00    +0.000 HD
BRANCH   4   9
ATOM      9  C   UNL     1       6.255   5.252  14.879  0.00  0.00    +0.000 C 
BRANCH   9  11
ATOM     10  C   UNL     1       6.209   3.585  12.992  0.00  0.00    +0.000 C 
ATOM     11  C   UNL     1       5.594   4.252  13.980  0.00  0.00    +0.000 C 
ENDBRANCH   9  11
ENDBRANCH   4   9
BRANCH   7  12
ATOM     12  C   UNL     1       4.187   5.510  19.293  0.00  0.00    +0.000 C 
BRANCH  12  13
ATOM     13  C   UNL     1       3.081   4.513  19.574  0.00  0.00    +0.000 A 
ATOM     14  C   UNL     1       3.002   3.304  18.864  0.00  0.00    +0.000 A 
ATOM     15  C   UNL     1       2.056   2.335  19.213  0.00  0.00    +0.000 A 
ATOM     16  C   UNL     1       1.172   2.565  20.265  0.00  0.00    +0.000 A 
ATOM     17  C   UNL     1       1.215   3.774  20.955  0.00  0.00    +0.000 A 
ATOM     18  C   UNL     1       2.160   4.743  20.608  0.00  0.00    +0.000 A 
ENDBRANCH  12  13
ENDBRANCH   7  12
ENDBRANCH   3   7
ENDBRANCH   2   3
ENDBRANCH   1   2
BRANCH   1  19
ATOM     19  C   UNL     1       0.642   9.281  18.923  0.00  0.00    +0.000 C 
BRANCH  19  20
ATOM     20  N   UNL     1       1.154   9.495  20.276  0.00  0.00    +0.000 N 
ATOM     21  C   UNL     1       0.520   8.972  21.377  0.00  0.00    +0.000 C 
ATOM     22  C   UNL     1       1.143   9.368  22.688  0.00  0.00    +0.000 C 
ATOM     23  O   UNL     1      -0.485   8.273  21.299  0.00  0.00    +0.000 OA
ATOM     24  H   UNL     1       1.772  10.286  20.414  0.00  0.00    +0.000 HD
ENDBRANCH  19  20
BRANCH  19  25
ATOM     25  C   UNL     1      -0.154  10.538  18.484  0.00  0.00    +0.000 C 
ATOM     26  O   UNL     1       0.158  11.679  18.815  0.00  0.00    +0.000 OA
ATOM     27  N   UNL     1      -1.219  10.268  17.650  0.00  0.00    +0.000 N 
ATOM     28  H   UNL     1      -1.289   9.335  17.247  0.00  0.00    +0.000 HD
BRANCH  27  29
ATOM     29  C   UNL     1      -2.019  11.324  17.077  0.00  0.00    +0.000 C 
BRANCH  29  30
ATOM     30  C   UNL     1      -3.320  11.491  17.816  0.00  0.00    +0.000 A 
ATOM     31  C   UNL     1      -4.516  11.022  17.255  0.00  0.00    +0.000 A 
ATOM     32  C   UNL     1      -5.725  11.166  17.938  0.00  0.00    +0.000 A 
ATOM     33  C   UNL     1      -5.751  11.788  19.185  0.00  0.00    +0.000 A 
ATOM     34  C   UNL     1      -4.570  12.272  19.745  0.00  0.00    +0.000 A 
ATOM     35  C   UNL     1      -3.360  12.131  19.064  0.00  0.00    +0.000 A 
ENDBRANCH  29  30
ENDBRANCH  27  29
ENDBRANCH  19  25
ENDBRANCH   1  19
TORSDOF 12
ENDMDL
