MODEL 1
REMARK VINA RESULT:      -8.4      0.000      0.000
REMARK  Name = 
REMARK  3 active torsions:
REMARK  status: ('A' for Active; 'I' for Inactive)
REMARK    1  A    between atoms: C_1  and  C_2
REMARK    2  A    between atoms: C_16  and  C_18
REMARK    3  A    between atoms: C_22  and  C_23
REMARK                            x       y       z     vdW  Elec       q    Type
REMARK                         _______ _______ _______ _____ _____    ______ ____
ROOT
ATOM      1  C   UNL     1      -0.363   9.655  17.773  0.00  0.00    +0.000 C 
ATOM      2  C   UNL     1       1.078   9.597  18.288  0.00  0.00    +0.000 C 
ATOM      3  C   UNL     1       1.769  11.004  18.257  0.00  0.00    +0.000 C 
ATOM      4  C   UNL     1       1.469  11.734  19.514  0.00  0.00    +0.000 A 
ATOM      5  C   UNL     1       0.911  11.167  20.636  0.00  0.00    +0.000 A 
ATOM      6  N   UNL     1       0.827  12.090  21.626  0.00  0.00    +0.000 NA
ATOM      7  N   UNL     1       1.357  13.219  21.168  0.00  0.00    +0.000 NA
ATOM      8  N   UNL     1       1.790  13.024  19.885  0.00  0.00    +0.000 N 
ATOM      9  C   UNL     1       2.477  14.034  19.150  0.00  0.00    +0.000 A 
ATOM     10  C   UNL     1       2.863  15.300  19.637  0.00  0.00    +0.000 A 
ATOM     11  C   UNL     1       3.486  15.902  18.571  0.00  0.00    +0.000 A 
ATOM     12  N   UNL     1       3.431  15.006  17.539  0.00  0.00    +0.000 N 
ATOM     13  N   UNL     1       2.836  13.843  17.870  0.00  0.00    +0.000 NA
ATOM     14  C   UNL     1       0.503   9.745  20.754  0.00  0.00    +0.000 C 
ATOM     15  N   UNL     1       1.151   8.983  19.652  0.00  0.00    +0.000 N 
ATOM     16  C   UNL     1       1.756   7.768  20.020  0.00  0.00    +0.000 C 
ATOM     17  O   UNL     1       1.740   7.374  21.185  0.00  0.00    +0.000 OA
ATOM     18  H   UNL     1       3.780  15.123  16.594  0.00  0.00    +0.000 HD
ENDROOT
BRANCH  16  19
ATOM     19  C   UNL     1       2.490   6.921  19.036  0.00  0.00    +0.000 A 
ATOM     20  C   UNL     1       3.426   7.524  18.182  0.00  0.00    +0.000 A 
ATOM     21  C   UNL     1       4.119   6.777  17.236  0.00  0.00    +0.000 A 
ATOM     22  C   UNL     1       4.003   5.393  17.235  0.00  0.00    +0.000 A 
ATOM     23  C   UNL     1       3.183   4.738  18.173  0.00  0.00    +0.000 A 
ATOM     24  C   UNL     1       2.380   5.511  19.037  0.00  0.00    +0.000 A 
ATOM     25 CL   UNL     1       1.238   4.694  20.061  0.00  0.00    +0.000 Cl
BRANCH  23  26
ATOM     26  C   UNL     1       3.254   3.234  18.278  0.00  0.00    +0.000 C 
ATOM     27  F   UNL     1       2.076   2.627  17.942  0.00  0.00    +0.000 F 
ATOM     28  F   UNL     1       4.180   2.694  17.436  0.00  0.00    +0.000 F 
ATOM     29  F   UNL     1       3.546   2.780  19.525  0.00  0.00    +0.000 F 
ENDBRANCH  23  26
ENDBRANCH  16  19
TORSDOF 2
ENDMDL
MODEL 2
REMARK VINA RESULT:      -7.5      7.433      9.811
REMARK  Name = 
REMARK  3 active torsions:
REMARK  status: ('A' for Active; 'I' for Inactive)
REMARK    1  A    between atoms: C_1  and  C_2
REMARK    2  A    between atoms: C_16  and  C_18
REMARK    3  A    between atoms: C_22  and  C_23
REMARK                            x       y       z     vdW  Elec       q    Type
REMARK                         _______ _______ _______ _____ _____    ______ ____
ROOT
ATOM      1  C   UNL     1      -0.986  14.195  20.866  0.00  0.00    +0.000 C 
ATOM      2  C   UNL     1      -1.862  12.962  20.632  0.00  0.00    +0.000 C 
ATOM      3  C   UNL     1      -1.023  11.728  20.152  0.00  0.00    +0.000 C 
ATOM      4  C   UNL     1      -0.498  10.992  21.329  0.00  0.00    +0.000 A 
ATOM      5  C   UNL     1      -0.908  11.195  22.627  0.00  0.00    +0.000 A 
ATOM      6  N   UNL     1      -0.280  10.320  23.451  0.00  0.00    +0.000 NA
ATOM      7  N   UNL     1       0.490   9.541  22.697  0.00  0.00    +0.000 NA
ATOM      8  N   UNL     1       0.353   9.908  21.387  0.00  0.00    +0.000 N 
ATOM      9  C   UNL     1       0.996   9.203  20.326  0.00  0.00    +0.000 A 
ATOM     10  C   UNL     1       1.771   8.033  20.456  0.00  0.00    +0.000 A 
ATOM     11  C   UNL     1       2.167   7.739  19.173  0.00  0.00    +0.000 A 
ATOM     12  N   UNL     1       1.639   8.718  18.377  0.00  0.00    +0.000 N 
ATOM     13  N   UNL     1       0.900   9.619  19.053  0.00  0.00    +0.000 NA
ATOM     14  C   UNL     1      -1.920  12.194  23.049  0.00  0.00    +0.000 C 
ATOM     15  N   UNL     1      -2.677  12.628  21.844  0.00  0.00    +0.000 N 
ATOM     16  C   UNL     1      -4.075  12.678  21.984  0.00  0.00    +0.000 C 
ATOM     17  O   UNL     1      -4.623  12.380  23.044  0.00  0.00    +0.000 OA
ATOM     18  H   UNL     1       1.743   8.828  17.374  0.00  0.00    +0.000 HD
ENDROOT
BRANCH  16  19
ATOM     19  C   UNL     1      -4.971  13.043  20.847  0.00  0.00    +0.000 A 
ATOM     20  C   UNL     1      -5.709  12.033  20.211  0.00  0.00    +0.000 A 
ATOM     21  C   UNL     1      -6.541  12.323  19.135  0.00  0.00    +0.000 A 
ATOM     22  C   UNL     1      -6.768  13.647  18.780  0.00  0.00    +0.000 A 
ATOM     23  C   UNL     1      -6.156  14.698  19.490  0.00  0.00    +0.000 A 
ATOM     24  C   UNL     1      -5.209  14.389  20.488  0.00  0.00    +0.000 A 
ATOM     25 CL   UNL     1      -4.328  15.692  21.227  0.00  0.00    +0.000 Cl
BRANCH  23  26
ATOM     26  C   UNL     1      -6.596  16.115  19.214  0.00  0.00    +0.000 C 
ATOM     27  F   UNL     1      -7.014  16.766  20.342  0.00  0.00    +0.000 F 
ATOM     28  F   UNL     1      -5.591  16.888  18.715  0.00  0.00    +0.000 F 
ATOM     29  F   UNL     1      -7.635  16.212  18.343  0.00  0.00    +0.000 F 
ENDBRANCH  23  26
ENDBRANCH  16  19
TORSDOF 2
ENDMDL
MODEL 3
REMARK VINA RESULT:      -7.5      5.627      7.541
REMARK  Name = 
REMARK  3 active torsions:
REMARK  status: ('A' for Active; 'I' for Inactive)
REMARK    1  A    between atoms: C_1  and  C_2
REMARK    2  A    between atoms: C_16  and  C_18
REMARK    3  A    between atoms: C_22  and  C_23
REMARK                            x       y       z     vdW  Elec       q    Type
REMARK                         _______ _______ _______ _____ _____    ______ ____
ROOT
ATOM      1  C   UNL     1      -0.793  12.500  22.893  0.00  0.00    +0.000 C 
ATOM      2  C   UNL     1      -1.796  12.539  21.737  0.00  0.00    +0.000 C 
ATOM      3  C   UNL     1      -3.270  12.700  22.244  0.00  0.00    +0.000 C 
ATOM      4  C   UNL     1      -3.584  14.141  22.415  0.00  0.00    +0.000 A 
ATOM      5  C   UNL     1      -2.807  15.174  21.944  0.00  0.00    +0.000 A 
ATOM      6  N   UNL     1      -3.405  16.360  22.212  0.00  0.00    +0.000 NA
ATOM      7  N   UNL     1      -4.564  16.099  22.809  0.00  0.00    +0.000 NA
ATOM      8  N   UNL     1      -4.717  14.745  22.918  0.00  0.00    +0.000 N 
ATOM      9  C   UNL     1      -5.901  14.152  23.447  0.00  0.00    +0.000 A 
ATOM     10  C   UNL     1      -7.067  14.837  23.847  0.00  0.00    +0.000 A 
ATOM     11  C   UNL     1      -7.916  13.846  24.278  0.00  0.00    +0.000 A 
ATOM     12  N   UNL     1      -7.236  12.669  24.132  0.00  0.00    +0.000 N 
ATOM     13  N   UNL     1      -6.005  12.822  23.606  0.00  0.00    +0.000 NA
ATOM     14  C   UNL     1      -1.527  15.005  21.212  0.00  0.00    +0.000 C 
ATOM     15  N   UNL     1      -1.443  13.597  20.738  0.00  0.00    +0.000 N 
ATOM     16  C   UNL     1      -1.038  13.423  19.403  0.00  0.00    +0.000 C 
ATOM     17  O   UNL     1      -0.772  14.386  18.685  0.00  0.00    +0.000 OA
ATOM     18  H   UNL     1      -7.552  11.734  24.367  0.00  0.00    +0.000 HD
ENDROOT
BRANCH  16  19
ATOM     19  C   UNL     1      -0.960  12.074  18.770  0.00  0.00    +0.000 A 
ATOM     20  C   UNL     1      -1.951  11.694  17.853  0.00  0.00    +0.000 A 
ATOM     21  C   UNL     1      -1.929  10.439  17.254  0.00  0.00    +0.000 A 
ATOM     22  C   UNL     1      -0.832   9.607  17.442  0.00  0.00    +0.000 A 
ATOM     23  C   UNL     1       0.252  10.015  18.242  0.00  0.00    +0.000 A 
ATOM     24  C   UNL     1       0.159  11.229  18.954  0.00  0.00    +0.000 A 
ATOM     25 CL   UNL     1       1.421  11.631  20.078  0.00  0.00    +0.000 Cl
BRANCH  23  26
ATOM     26  C   UNL     1       1.509   9.180  18.244  0.00  0.00    +0.000 C 
ATOM     27  F   UNL     1       1.812   8.687  19.483  0.00  0.00    +0.000 F 
ATOM     28  F   UNL     1       1.410   8.082  17.444  0.00  0.00    +0.000 F 
ATOM     29  F   UNL     1       2.621   9.854  17.849  0.00  0.00    +0.000 F 
ENDBRANCH  23  26
ENDBRANCH  16  19
TORSDOF 2
ENDMDL
MODEL 4
REMARK VINA RESULT:      -7.5      6.727      9.227
REMARK  Name = 
REMARK  3 active torsions:
REMARK  status: ('A' for Active; 'I' for Inactive)
REMARK    1  A    between atoms: C_1  and  C_2
REMARK    2  A    between atoms: C_16  and  C_18
REMARK    3  A    between atoms: C_22  and  C_23
REMARK                            x       y       z     vdW  Elec       q    Type
REMARK                         _______ _______ _______ _____ _____    ______ ____
ROOT
ATOM      1  C   UNL     1      -1.361  14.845  21.322  0.00  0.00    +0.000 C 
ATOM      2  C   UNL     1      -2.230  13.699  20.799  0.00  0.00    +0.000 C 
ATOM      3  C   UNL     1      -1.375  12.583  20.105  0.00  0.00    +0.000 C 
ATOM      4  C   UNL     1      -0.904  11.610  21.123  0.00  0.00    +0.000 A 
ATOM      5  C   UNL     1      -1.368  11.542  22.416  0.00  0.00    +0.000 A 
ATOM      6  N   UNL     1      -0.779  10.507  23.063  0.00  0.00    +0.000 NA
ATOM      7  N   UNL     1       0.020   9.894  22.195  0.00  0.00    +0.000 NA
ATOM      8  N   UNL     1      -0.059  10.528  20.987  0.00  0.00    +0.000 N 
ATOM      9  C   UNL     1       0.626  10.054  19.830  0.00  0.00    +0.000 A 
ATOM     10  C   UNL     1       1.392   8.872  19.743  0.00  0.00    +0.000 A 
ATOM     11  C   UNL     1       1.841   8.850  18.445  0.00  0.00    +0.000 A 
ATOM     12  N   UNL     1       1.352   9.980  17.850  0.00  0.00    +0.000 N 
ATOM     13  N   UNL     1       0.586  10.728  18.669  0.00  0.00    +0.000 NA
ATOM     14  C   UNL     1      -2.394  12.443  22.996  0.00  0.00    +0.000 C 
ATOM     15  N   UNL     1      -3.097  13.129  21.878  0.00  0.00    +0.000 N 
ATOM     16  C   UNL     1      -4.500  13.165  21.968  0.00  0.00    +0.000 C 
ATOM     17  O   UNL     1      -5.094  12.658  22.919  0.00  0.00    +0.000 OA
ATOM     18  H   UNL     1       1.499  10.296  16.897  0.00  0.00    +0.000 HD
ENDROOT
BRANCH  16  19
ATOM     19  C   UNL     1      -5.345  13.771  20.897  0.00  0.00    +0.000 A 
ATOM     20  C   UNL     1      -5.698  15.125  20.992  0.00  0.00    +0.000 A 
ATOM     21  C   UNL     1      -6.500  15.727  20.029  0.00  0.00    +0.000 A 
ATOM     22  C   UNL     1      -6.831  15.026  18.876  0.00  0.00    +0.000 A 
ATOM     23  C   UNL     1      -6.373  13.709  18.677  0.00  0.00    +0.000 A 
ATOM     24  C   UNL     1      -5.677  13.062  19.719  0.00  0.00    +0.000 A 
ATOM     25 CL   UNL     1      -5.280  11.381  19.533  0.00  0.00    +0.000 Cl
BRANCH  23  26
ATOM     26  C   UNL     1      -6.571  13.067  17.326  0.00  0.00    +0.000 C 
ATOM     27  F   UNL     1      -5.399  12.625  16.777  0.00  0.00    +0.000 F 
ATOM     28  F   UNL     1      -7.369  11.965  17.382  0.00  0.00    +0.000 F 
ATOM     29  F   UNL     1      -7.110  13.895  16.393  0.00  0.00    +0.000 F 
ENDBRANCH  23  26
ENDBRANCH  16  19
TORSDOF 2
ENDMDL
MODEL 5
REMARK VINA RESULT:      -7.5      7.064      9.497
REMARK  Name = 
REMARK  3 active torsions:
REMARK  status: ('A' for Active; 'I' for Inactive)
REMARK    1  A    between atoms: C_1  and  C_2
REMARK    2  A    between atoms: C_16  and  C_18
REMARK    3  A    between atoms: C_22  and  C_23
REMARK                            x       y       z     vdW  Elec       q    Type
REMARK                         _______ _______ _______ _____ _____    ______ ____
ROOT
ATOM      1  C   UNL     1      -2.031  14.982  21.672  0.00  0.00    +0.000 C 
ATOM      2  C   UNL     1      -2.829  13.786  21.147  0.00  0.00    +0.000 C 
ATOM      3  C   UNL     1      -1.919  12.763  20.385  0.00  0.00    +0.000 C 
ATOM      4  C   UNL     1      -1.332  11.801  21.351  0.00  0.00    +0.000 A 
ATOM      5  C   UNL     1      -1.736  11.659  22.658  0.00  0.00    +0.000 A 
ATOM      6  N   UNL     1      -1.042  10.655  23.249  0.00  0.00    +0.000 NA
ATOM      7  N   UNL     1      -0.234  10.132  22.331  0.00  0.00    +0.000 NA
ATOM      8  N   UNL     1      -0.413  10.793  21.148  0.00  0.00    +0.000 N 
ATOM      9  C   UNL     1       0.260  10.408  19.950  0.00  0.00    +0.000 A 
ATOM     10  C   UNL     1       1.110   9.294  19.796  0.00  0.00    +0.000 A 
ATOM     11  C   UNL     1       1.506   9.345  18.481  0.00  0.00    +0.000 A 
ATOM     12  N   UNL     1       0.906  10.449  17.942  0.00  0.00    +0.000 N 
ATOM     13  N   UNL     1       0.119  11.111  18.814  0.00  0.00    +0.000 NA
ATOM     14  C   UNL     1      -2.804  12.458  23.307  0.00  0.00    +0.000 C 
ATOM     15  N   UNL     1      -3.604  13.119  22.240  0.00  0.00    +0.000 N 
ATOM     16  C   UNL     1      -5.001  13.041  22.386  0.00  0.00    +0.000 C 
ATOM     17  O   UNL     1      -5.513  12.462  23.342  0.00  0.00    +0.000 OA
ATOM     18  H   UNL     1       0.988  10.803  16.995  0.00  0.00    +0.000 HD
ENDROOT
BRANCH  16  19
ATOM     19  C   UNL     1      -5.934  13.609  21.368  0.00  0.00    +0.000 A 
ATOM     20  C   UNL     1      -6.525  14.858  21.610  0.00  0.00    +0.000 A 
ATOM     21  C   UNL     1      -7.417  15.417  20.700  0.00  0.00    +0.000 A 
ATOM     22  C   UNL     1      -7.608  14.810  19.465  0.00  0.00    +0.000 A 
ATOM     23  C   UNL     1      -6.919  13.629  19.129  0.00  0.00    +0.000 A 
ATOM     24  C   UNL     1      -6.125  12.997  20.108  0.00  0.00    +0.000 A 
ATOM     25 CL   UNL     1      -5.429  11.448  19.740  0.00  0.00    +0.000 Cl
BRANCH  23  26
ATOM     26  C   UNL     1      -6.988  13.126  17.708  0.00  0.00    +0.000 C 
ATOM     27  F   UNL     1      -7.802  13.890  16.918  0.00  0.00    +0.000 F 
ATOM     28  F   UNL     1      -5.776  13.147  17.085  0.00  0.00    +0.000 F 
ATOM     29  F   UNL     1      -7.467  11.859  17.592  0.00  0.00    +0.000 F 
ENDBRANCH  23  26
ENDBRANCH  16  19
TORSDOF 2
ENDMDL
MODEL 6
REMARK VINA RESULT:      -7.4      4.679      6.183
REMARK  Name = 
REMARK  3 active torsions:
REMARK  status: ('A' for Active; 'I' for Inactive)
REMARK    1  A    between atoms: C_1  and  C_2
REMARK    2  A    between atoms: C_16  and  C_18
REMARK    3  A    between atoms: C_22  and  C_23
REMARK                            x       y       z     vdW  Elec       q    Type
REMARK                         _______ _______ _______ _____ _____    ______ ____
ROOT
ATOM      1  C   UNL     1       1.108  15.481  18.712  0.00  0.00    +0.000 C 
ATOM      2  C   UNL     1       1.834  14.147  18.904  0.00  0.00    +0.000 C 
ATOM      3  C   UNL     1       3.372  14.271  18.631  0.00  0.00    +0.000 C 
ATOM      4  C   UNL     1       4.066  14.698  19.872  0.00  0.00    +0.000 A 
ATOM      5  C   UNL     1       3.495  14.713  21.124  0.00  0.00    +0.000 A 
ATOM      6  N   UNL     1       4.414  15.094  22.045  0.00  0.00    +0.000 NA
ATOM      7  N   UNL     1       5.566  15.283  21.409  0.00  0.00    +0.000 NA
ATOM      8  N   UNL     1       5.392  15.016  20.079  0.00  0.00    +0.000 N 
ATOM      9  C   UNL     1       6.471  15.054  19.146  0.00  0.00    +0.000 A 
ATOM     10  C   UNL     1       7.828  15.286  19.454  0.00  0.00    +0.000 A 
ATOM     11  C   UNL     1       8.469  15.225  18.240  0.00  0.00    +0.000 A 
ATOM     12  N   UNL     1       7.500  14.982  17.306  0.00  0.00    +0.000 N 
ATOM     13  N   UNL     1       6.267  14.852  17.835  0.00  0.00    +0.000 NA
ATOM     14  C   UNL     1       2.094  14.326  21.421  0.00  0.00    +0.000 C 
ATOM     15  N   UNL     1       1.565  13.564  20.257  0.00  0.00    +0.000 N 
ATOM     16  C   UNL     1       0.869  12.381  20.565  0.00  0.00    +0.000 C 
ATOM     17  O   UNL     1       0.714  12.015  21.729  0.00  0.00    +0.000 OA
ATOM     18  H   UNL     1       7.611  14.892  16.302  0.00  0.00    +0.000 HD
ENDROOT
BRANCH  16  19
ATOM     19  C   UNL     1       0.328  11.483  19.502  0.00  0.00    +0.000 A 
ATOM     20  C   UNL     1       1.090  10.380  19.090  0.00  0.00    +0.000 A 
ATOM     21  C   UNL     1       0.635   9.528  18.090  0.00  0.00    +0.000 A 
ATOM     22  C   UNL     1      -0.656   9.675  17.598  0.00  0.00    +0.000 A 
ATOM     23  C   UNL     1      -1.505  10.683  18.092  0.00  0.00    +0.000 A 
ATOM     24  C   UNL     1      -0.988  11.626  19.005  0.00  0.00    +0.000 A 
ATOM     25 CL   UNL     1      -1.988  12.971  19.465  0.00  0.00    +0.000 Cl
BRANCH  23  26
ATOM     26  C   UNL     1      -2.959  10.672  17.691  0.00  0.00    +0.000 C 
ATOM     27  F   UNL     1      -3.251  11.609  16.739  0.00  0.00    +0.000 F 
ATOM     28  F   UNL     1      -3.342   9.485  17.143  0.00  0.00    +0.000 F 
ATOM     29  F   UNL     1      -3.817  10.926  18.714  0.00  0.00    +0.000 F 
ENDBRANCH  23  26
ENDBRANCH  16  19
TORSDOF 2
ENDMDL
MODEL 7
REMARK VINA RESULT:      -7.4      7.032      9.592
REMARK  Name = 
REMARK  3 active torsions:
REMARK  status: ('A' for Active; 'I' for Inactive)
REMARK    1  A    between atoms: C_1  and  C_2
REMARK    2  A    between atoms: C_16  and  C_18
REMARK    3  A    between atoms: C_22  and  C_23
REMARK                            x       y       z     vdW  Elec       q    Type
REMARK                         _______ _______ _______ _____ _____    ______ ____
ROOT
ATOM      1  C   UNL     1      -0.407  14.302  19.747  0.00  0.00    +0.000 C 
ATOM      2  C   UNL     1      -1.382  13.227  20.236  0.00  0.00    +0.000 C 
ATOM      3  C   UNL     1      -2.099  12.502  19.046  0.00  0.00    +0.000 C 
ATOM      4  C   UNL     1      -1.263  11.369  18.576  0.00  0.00    +0.000 A 
ATOM      5  C   UNL     1      -0.173  10.867  19.248  0.00  0.00    +0.000 A 
ATOM      6  N   UNL     1       0.328   9.798  18.582  0.00  0.00    +0.000 NA
ATOM      7  N   UNL     1      -0.445   9.588  17.521  0.00  0.00    +0.000 NA
ATOM      8  N   UNL     1      -1.449  10.515  17.508  0.00  0.00    +0.000 N 
ATOM      9  C   UNL     1      -2.489  10.500  16.531  0.00  0.00    +0.000 A 
ATOM     10  C   UNL     1      -2.672   9.527  15.527  0.00  0.00    +0.000 A 
ATOM     11  C   UNL     1      -3.792   9.942  14.848  0.00  0.00    +0.000 A 
ATOM     12  N   UNL     1      -4.197  11.102  15.449  0.00  0.00    +0.000 N 
ATOM     13  N   UNL     1      -3.429  11.459  16.497  0.00  0.00    +0.000 NA
ATOM     14  C   UNL     1       0.346  11.394  20.534  0.00  0.00    +0.000 C 
ATOM     15  N   UNL     1      -0.709  12.247  21.146  0.00  0.00    +0.000 N 
ATOM     16  C   UNL     1      -0.950  12.035  22.515  0.00  0.00    +0.000 C 
ATOM     17  O   UNL     1      -0.318  11.194  23.153  0.00  0.00    +0.000 OA
ATOM     18  H   UNL     1      -4.983  11.692  15.198  0.00  0.00    +0.000 HD
ENDROOT
BRANCH  16  19
ATOM     19  C   UNL     1      -2.014  12.776  23.255  0.00  0.00    +0.000 A 
ATOM     20  C   UNL     1      -3.181  12.096  23.631  0.00  0.00    +0.000 A 
ATOM     21  C   UNL     1      -4.208  12.751  24.303  0.00  0.00    +0.000 A 
ATOM     22  C   UNL     1      -4.016  14.053  24.748  0.00  0.00    +0.000 A 
ATOM     23  C   UNL     1      -2.799  14.721  24.515  0.00  0.00    +0.000 A 
ATOM     24  C   UNL     1      -1.818  14.099  23.715  0.00  0.00    +0.000 A 
ATOM     25 CL   UNL     1      -0.401  15.006  23.283  0.00  0.00    +0.000 Cl
BRANCH  23  26
ATOM     26  C   UNL     1      -2.553  16.044  25.199  0.00  0.00    +0.000 C 
ATOM     27  F   UNL     1      -2.054  16.991  24.348  0.00  0.00    +0.000 F 
ATOM     28  F   UNL     1      -3.693  16.592  25.704  0.00  0.00    +0.000 F 
ATOM     29  F   UNL     1      -1.661  15.981  26.222  0.00  0.00    +0.000 F 
ENDBRANCH  23  26
ENDBRANCH  16  19
TORSDOF 2
ENDMDL
MODEL 8
REMARK VINA RESULT:      -7.4      6.080      6.976
REMARK  Name = 
REMARK  3 active torsions:
REMARK  status: ('A' for Active; 'I' for Inactive)
REMARK    1  A    between atoms: C_1  and  C_2
REMARK    2  A    between atoms: C_16  and  C_18
REMARK    3  A    between atoms: C_22  and  C_23
REMARK                            x       y       z     vdW  Elec       q    Type
REMARK                         _______ _______ _______ _____ _____    ______ ____
ROOT
ATOM      1  C   UNL     1      -1.674  16.482  20.189  0.00  0.00    +0.000 C 
ATOM      2  C   UNL     1      -1.256  15.034  19.923  0.00  0.00    +0.000 C 
ATOM      3  C   UNL     1       0.180  14.941  19.303  0.00  0.00    +0.000 C 
ATOM      4  C   UNL     1       1.192  14.914  20.389  0.00  0.00    +0.000 A 
ATOM      5  C   UNL     1       0.907  14.722  21.721  0.00  0.00    +0.000 A 
ATOM      6  N   UNL     1       2.057  14.690  22.438  0.00  0.00    +0.000 NA
ATOM      7  N   UNL     1       3.067  14.819  21.583  0.00  0.00    +0.000 NA
ATOM      8  N   UNL     1       2.569  14.926  20.314  0.00  0.00    +0.000 N 
ATOM      9  C   UNL     1       3.414  14.998  19.167  0.00  0.00    +0.000 A 
ATOM     10  C   UNL     1       4.821  14.898  19.164  0.00  0.00    +0.000 A 
ATOM     11  C   UNL     1       5.170  15.024  17.840  0.00  0.00    +0.000 A 
ATOM     12  N   UNL     1       4.001  15.199  17.151  0.00  0.00    +0.000 N 
ATOM     13  N   UNL     1       2.906  15.168  17.936  0.00  0.00    +0.000 NA
ATOM     14  C   UNL     1      -0.455  14.534  22.277  0.00  0.00    +0.000 C 
ATOM     15  N   UNL     1      -1.373  14.192  21.157  0.00  0.00    +0.000 N 
ATOM     16  C   UNL     1      -2.248  13.116  21.388  0.00  0.00    +0.000 C 
ATOM     17  O   UNL     1      -2.244  12.507  22.457  0.00  0.00    +0.000 OA
ATOM     18  H   UNL     1       3.882  15.342  16.154  0.00  0.00    +0.000 HD
ENDROOT
BRANCH  16  19
ATOM     19  C   UNL     1      -3.189  12.623  20.339  0.00  0.00    +0.000 A 
ATOM     20  C   UNL     1      -4.512  13.089  20.338  0.00  0.00    +0.000 A 
ATOM     21  C   UNL     1      -5.429  12.642  19.393  0.00  0.00    +0.000 A 
ATOM     22  C   UNL     1      -4.996  11.844  18.341  0.00  0.00    +0.000 A 
ATOM     23  C   UNL     1      -3.643  11.473  18.228  0.00  0.00    +0.000 A 
ATOM     24  C   UNL     1      -2.750  11.817  19.264  0.00  0.00    +0.000 A 
ATOM     25 CL   UNL     1      -1.128  11.196  19.201  0.00  0.00    +0.000 Cl
BRANCH  23  26
ATOM     26  C   UNL     1      -3.179  10.793  16.963  0.00  0.00    +0.000 C 
ATOM     27  F   UNL     1      -4.184  10.637  16.050  0.00  0.00    +0.000 F 
ATOM     28  F   UNL     1      -2.218  11.504  16.309  0.00  0.00    +0.000 F 
ATOM     29  F   UNL     1      -2.678   9.545  17.158  0.00  0.00    +0.000 F 
ENDBRANCH  23  26
ENDBRANCH  16  19
TORSDOF 2
ENDMDL
MODEL 9
REMARK VINA RESULT:      -7.3      6.173      8.151
REMARK  Name = 
REMARK  3 active torsions:
REMARK  status: ('A' for Active; 'I' for Inactive)
REMARK    1  A    between atoms: C_1  and  C_2
REMARK    2  A    between atoms: C_16  and  C_18
REMARK    3  A    between atoms: C_22  and  C_23
REMARK                            x       y       z     vdW  Elec       q    Type
REMARK                         _______ _______ _______ _____ _____    ______ ____
ROOT
ATOM      1  C   UNL     1       5.853  16.139  21.971  0.00  0.00    +0.000 C 
ATOM      2  C   UNL     1       5.939  15.211  20.756  0.00  0.00    +0.000 C 
ATOM      3  C   UNL     1       4.553  14.562  20.415  0.00  0.00    +0.000 C 
ATOM      4  C   UNL     1       3.784  15.468  19.525  0.00  0.00    +0.000 A 
ATOM      5  C   UNL     1       4.307  16.566  18.883  0.00  0.00    +0.000 A 
ATOM      6  N   UNL     1       3.358  17.139  18.102  0.00  0.00    +0.000 NA
ATOM      7  N   UNL     1       2.255  16.403  18.206  0.00  0.00    +0.000 NA
ATOM      8  N   UNL     1       2.495  15.352  19.047  0.00  0.00    +0.000 N 
ATOM      9  C   UNL     1       1.523  14.339  19.298  0.00  0.00    +0.000 A 
ATOM     10  C   UNL     1       0.257  14.232  18.686  0.00  0.00    +0.000 A 
ATOM     11  C   UNL     1      -0.301  13.108  19.246  0.00  0.00    +0.000 A 
ATOM     12  N   UNL     1       0.619  12.629  20.138  0.00  0.00    +0.000 N 
ATOM     13  N   UNL     1       1.755  13.351  20.177  0.00  0.00    +0.000 NA
ATOM     14  C   UNL     1       5.713  17.025  18.998  0.00  0.00    +0.000 C 
ATOM     15  N   UNL     1       6.520  15.912  19.568  0.00  0.00    +0.000 N 
ATOM     16  C   UNL     1       7.742  15.649  18.923  0.00  0.00    +0.000 C 
ATOM     17  O   UNL     1       8.107  16.309  17.951  0.00  0.00    +0.000 OA
ATOM     18  H   UNL     1       0.535  11.819  20.744  0.00  0.00    +0.000 HD
ENDROOT
BRANCH  16  19
ATOM     19  C   UNL     1       8.635  14.530  19.347  0.00  0.00    +0.000 A 
ATOM     20  C   UNL     1       9.365  14.656  20.538  0.00  0.00    +0.000 A 
ATOM     21  C   UNL     1      10.224  13.648  20.962  0.00  0.00    +0.000 A 
ATOM     22  C   UNL     1      10.247  12.435  20.284  0.00  0.00    +0.000 A 
ATOM     23  C   UNL     1       9.419  12.219  19.166  0.00  0.00    +0.000 A 
ATOM     24  C   UNL     1       8.655  13.293  18.663  0.00  0.00    +0.000 A 
ATOM     25 CL   UNL     1       7.782  13.066  17.178  0.00  0.00    +0.000 Cl
BRANCH  23  26
ATOM     26  C   UNL     1       9.315  10.826  18.596  0.00  0.00    +0.000 C 
ATOM     27  F   UNL     1      10.160  10.625  17.540  0.00  0.00    +0.000 F 
ATOM     28  F   UNL     1       9.648   9.864  19.500  0.00  0.00    +0.000 F 
ATOM     29  F   UNL     1       8.079  10.512  18.126  0.00  0.00    +0.000 F 
ENDBRANCH  23  26
ENDBRANCH  16  19
TORSDOF 2
ENDMDL
