MODEL 1
REMARK VINA RESULT:      -7.0      0.000      0.000
REMARK  Name = 
REMARK  8 active torsions:
REMARK  status: ('A' for Active; 'I' for Inactive)
REMARK    1  A    between atoms: C_1  and  C_2
REMARK    2  A    between atoms: C_5  and  N_6
REMARK    3  A    between atoms: C_7  and  S_8
REMARK    4  A    between atoms: C_11  and  C_12
REMARK    5  A    between atoms: C_12  and  S_13
REMARK    6  A    between atoms: S_13  and  C_14
REMARK    7  A    between atoms: C_16  and  C_17
REMARK    8  A    between atoms: C_19  and  C_20
REMARK                            x       y       z     vdW  Elec       q    Type
REMARK                         _______ _______ _______ _____ _____    ______ ____
ROOT
ATOM      1  N   UNL     1       3.416   6.116  17.867  0.00  0.00    +0.000 N 
ATOM      2  C   UNL     1       3.136   7.436  17.523  0.00  0.00    +0.000 A 
ATOM      3  N   UNL     1       3.926   7.839  16.559  0.00  0.00    +0.000 NA
ATOM      4  N   UNL     1       4.767   6.819  16.251  0.00  0.00    +0.000 NA
ATOM      5  C   UNL     1       4.479   5.777  17.012  0.00  0.00    +0.000 A 
ENDROOT
BRANCH   1  10
ATOM      6  C   UNL     1       1.049   2.505  21.669  0.00  0.00    +0.000 C 
ATOM      7  C   UNL     1       1.586   3.493  20.678  0.00  0.00    +0.000 A 
ATOM      8  C   UNL     1       1.333   3.357  19.313  0.00  0.00    +0.000 A 
ATOM      9  C   UNL     1       1.927   4.222  18.386  0.00  0.00    +0.000 A 
ATOM     10  C   UNL     1       2.758   5.267  18.813  0.00  0.00    +0.000 A 
ATOM     11  C   UNL     1       2.961   5.433  20.189  0.00  0.00    +0.000 A 
ATOM     12  C   UNL     1       2.400   4.542  21.109  0.00  0.00    +0.000 A 
ENDBRANCH   1  10
BRANCH   2  13
ATOM     13  S   UNL     1       2.048   8.540  18.309  0.00  0.00    +0.000 S 
ATOM     14  H   UNL     1       1.554   9.184  17.245  0.00  0.00    +0.000 HD
ENDBRANCH   2  13
BRANCH   5  15
ATOM     15  C   UNL     1       5.107   4.419  16.872  0.00  0.00    +0.000 C 
BRANCH  15  16
ATOM     16  S   UNL     1       6.895   4.514  16.556  0.00  0.00    +0.000 S 
BRANCH  16  17
ATOM     17  C   UNL     1       6.919   4.486  14.787  0.00  0.00    +0.000 A 
ATOM     18  N   UNL     1       7.787   5.338  14.224  0.00  0.00    +0.000 NA
ATOM     19  C   UNL     1       7.883   5.336  12.884  0.00  0.00    +0.000 A 
ATOM     20  C   UNL     1       8.857   6.296  12.274  0.00  0.00    +0.000 C 
ATOM     21  C   UNL     1       7.135   4.483  12.102  0.00  0.00    +0.000 A 
ATOM     22  C   UNL     1       6.270   3.631  12.759  0.00  0.00    +0.000 A 
ATOM     23  C   UNL     1       5.417   2.671  11.980  0.00  0.00    +0.000 C 
ATOM     24  N   UNL     1       6.138   3.625  14.107  0.00  0.00    +0.000 NA
ENDBRANCH  16  17
ENDBRANCH  15  16
ENDBRANCH   5  15
TORSDOF 5
ENDMDL
MODEL 2
REMARK VINA RESULT:      -7.0      2.071      3.211
REMARK  Name = 
REMARK  8 active torsions:
REMARK  status: ('A' for Active; 'I' for Inactive)
REMARK    1  A    between atoms: C_1  and  C_2
REMARK    2  A    between atoms: C_5  and  N_6
REMARK    3  A    between atoms: C_7  and  S_8
REMARK    4  A    between atoms: C_11  and  C_12
REMARK    5  A    between atoms: C_12  and  S_13
REMARK    6  A    between atoms: S_13  and  C_14
REMARK    7  A    between atoms: C_16  and  C_17
REMARK    8  A    between atoms: C_19  and  C_20
REMARK                            x       y       z     vdW  Elec       q    Type
REMARK                         _______ _______ _______ _____ _____    ______ ____
ROOT
ATOM      1  N   UNL     1       2.918   4.654  18.410  0.00  0.00    +0.000 N 
ATOM      2  C   UNL     1       2.454   3.426  18.875  0.00  0.00    +0.000 A 
ATOM      3  N   UNL     1       3.119   2.443  18.324  0.00  0.00    +0.000 NA
ATOM      4  N   UNL     1       4.022   2.978  17.462  0.00  0.00    +0.000 NA
ATOM      5  C   UNL     1       3.928   4.296  17.500  0.00  0.00    +0.000 A 
ENDROOT
BRANCH   1  10
ATOM      6  C   UNL     1       1.011   9.869  19.918  0.00  0.00    +0.000 C 
ATOM      7  C   UNL     1       1.595   8.543  19.530  0.00  0.00    +0.000 A 
ATOM      8  C   UNL     1       1.943   8.267  18.208  0.00  0.00    +0.000 A 
ATOM      9  C   UNL     1       2.386   6.991  17.837  0.00  0.00    +0.000 A 
ATOM     10  C   UNL     1       2.525   5.976  18.794  0.00  0.00    +0.000 A 
ATOM     11  C   UNL     1       2.228   6.278  20.128  0.00  0.00    +0.000 A 
ATOM     12  C   UNL     1       1.746   7.541  20.489  0.00  0.00    +0.000 A 
ENDBRANCH   1  10
BRANCH   2  13
ATOM     13  S   UNL     1       1.082   3.117  19.896  0.00  0.00    +0.000 S 
ATOM     14  H   UNL     1       1.341   1.857  20.265  0.00  0.00    +0.000 HD
ENDBRANCH   2  13
BRANCH   5  15
ATOM     15  C   UNL     1       4.852   5.239  16.782  0.00  0.00    +0.000 C 
BRANCH  15  16
ATOM     16  S   UNL     1       6.539   4.578  16.640  0.00  0.00    +0.000 S 
BRANCH  16  17
ATOM     17  C   UNL     1       6.727   4.524  14.883  0.00  0.00    +0.000 A 
ATOM     18  N   UNL     1       7.700   5.306  14.397  0.00  0.00    +0.000 NA
ATOM     19  C   UNL     1       7.920   5.279  13.072  0.00  0.00    +0.000 A 
ATOM     20  C   UNL     1       9.011   6.162  12.550  0.00  0.00    +0.000 C 
ATOM     21  C   UNL     1       7.191   4.469  12.230  0.00  0.00    +0.000 A 
ATOM     22  C   UNL     1       6.211   3.688  12.809  0.00  0.00    +0.000 A 
ATOM     23  C   UNL     1       5.370   2.778  11.960  0.00  0.00    +0.000 C 
ATOM     24  N   UNL     1       5.954   3.709  14.139  0.00  0.00    +0.000 NA
ENDBRANCH  16  17
ENDBRANCH  15  16
ENDBRANCH   5  15
TORSDOF 5
ENDMDL
MODEL 3
REMARK VINA RESULT:      -6.8      3.313      7.608
REMARK  Name = 
REMARK  8 active torsions:
REMARK  status: ('A' for Active; 'I' for Inactive)
REMARK    1  A    between atoms: C_1  and  C_2
REMARK    2  A    between atoms: C_5  and  N_6
REMARK    3  A    between atoms: C_7  and  S_8
REMARK    4  A    between atoms: C_11  and  C_12
REMARK    5  A    between atoms: C_12  and  S_13
REMARK    6  A    between atoms: S_13  and  C_14
REMARK    7  A    between atoms: C_16  and  C_17
REMARK    8  A    between atoms: C_19  and  C_20
REMARK                            x       y       z     vdW  Elec       q    Type
REMARK                         _______ _______ _______ _____ _____    ______ ____
ROOT
ATOM      1  N   UNL     1       5.389   4.941  17.575  0.00  0.00    +0.000 N 
ATOM      2  C   UNL     1       5.189   4.106  16.478  0.00  0.00    +0.000 A 
ATOM      3  N   UNL     1       4.203   3.275  16.705  0.00  0.00    +0.000 NA
ATOM      4  N   UNL     1       3.737   3.509  17.959  0.00  0.00    +0.000 NA
ATOM      5  C   UNL     1       4.422   4.503  18.497  0.00  0.00    +0.000 A 
ENDROOT
BRANCH   1  10
ATOM      6  C   UNL     1       8.906   9.404  18.481  0.00  0.00    +0.000 C 
ATOM      7  C   UNL     1       8.036   8.224  18.166  0.00  0.00    +0.000 A 
ATOM      8  C   UNL     1       6.938   8.344  17.313  0.00  0.00    +0.000 A 
ATOM      9  C   UNL     1       6.069   7.264  17.111  0.00  0.00    +0.000 A 
ATOM     10  C   UNL     1       6.306   6.028  17.730  0.00  0.00    +0.000 A 
ATOM     11  C   UNL     1       7.442   5.899  18.539  0.00  0.00    +0.000 A 
ATOM     12  C   UNL     1       8.285   6.991  18.772  0.00  0.00    +0.000 A 
ENDBRANCH   1  10
BRANCH   2  13
ATOM     13  S   UNL     1       6.156   3.975  15.041  0.00  0.00    +0.000 S 
ATOM     14  H   UNL     1       5.919   5.168  14.485  0.00  0.00    +0.000 HD
ENDBRANCH   2  13
BRANCH   5  15
ATOM     15  C   UNL     1       4.110   5.134  19.824  0.00  0.00    +0.000 C 
BRANCH  15  16
ATOM     16  S   UNL     1       2.347   5.017  20.248  0.00  0.00    +0.000 S 
BRANCH  16  17
ATOM     17  C   UNL     1       1.855   6.709  20.088  0.00  0.00    +0.000 A 
ATOM     18  N   UNL     1       1.236   7.218  21.162  0.00  0.00    +0.000 NA
ATOM     19  C   UNL     1       0.874   8.511  21.118  0.00  0.00    +0.000 A 
ATOM     20  C   UNL     1       0.182   9.060  22.328  0.00  0.00    +0.000 C 
ATOM     21  C   UNL     1       1.136   9.304  20.023  0.00  0.00    +0.000 A 
ATOM     22  C   UNL     1       1.784   8.706  18.961  0.00  0.00    +0.000 A 
ATOM     23  C   UNL     1       2.105   9.500  17.727  0.00  0.00    +0.000 C 
ATOM     24  N   UNL     1       2.144   7.400  18.969  0.00  0.00    +0.000 NA
ENDBRANCH  16  17
ENDBRANCH  15  16
ENDBRANCH   5  15
TORSDOF 5
ENDMDL
MODEL 4
REMARK VINA RESULT:      -6.8      3.828      8.345
REMARK  Name = 
REMARK  8 active torsions:
REMARK  status: ('A' for Active; 'I' for Inactive)
REMARK    1  A    between atoms: C_1  and  C_2
REMARK    2  A    between atoms: C_5  and  N_6
REMARK    3  A    between atoms: C_7  and  S_8
REMARK    4  A    between atoms: C_11  and  C_12
REMARK    5  A    between atoms: C_12  and  S_13
REMARK    6  A    between atoms: S_13  and  C_14
REMARK    7  A    between atoms: C_16  and  C_17
REMARK    8  A    between atoms: C_19  and  C_20
REMARK                            x       y       z     vdW  Elec       q    Type
REMARK                         _______ _______ _______ _____ _____    ______ ____
ROOT
ATOM      1  N   UNL     1       2.949   4.629  19.149  0.00  0.00    +0.000 N 
ATOM      2  C   UNL     1       2.393   3.376  18.899  0.00  0.00    +0.000 A 
ATOM      3  N   UNL     1       1.243   3.251  19.512  0.00  0.00    +0.000 NA
ATOM      4  N   UNL     1       1.010   4.395  20.205  0.00  0.00    +0.000 NA
ATOM      5  C   UNL     1       2.009   5.237  19.999  0.00  0.00    +0.000 A 
ENDROOT
BRANCH   1  10
ATOM      6  C   UNL     1       7.709   7.236  17.240  0.00  0.00    +0.000 C 
ATOM      7  C   UNL     1       6.490   6.484  17.683  0.00  0.00    +0.000 A 
ATOM      8  C   UNL     1       5.315   6.506  16.931  0.00  0.00    +0.000 A 
ATOM      9  C   UNL     1       4.151   5.891  17.406  0.00  0.00    +0.000 A 
ATOM     10  C   UNL     1       4.151   5.207  18.630  0.00  0.00    +0.000 A 
ATOM     11  C   UNL     1       5.349   5.141  19.352  0.00  0.00    +0.000 A 
ATOM     12  C   UNL     1       6.499   5.792  18.895  0.00  0.00    +0.000 A 
ENDBRANCH   1  10
BRANCH   2  13
ATOM     13  S   UNL     1       3.113   2.034  18.063  0.00  0.00    +0.000 S 
ATOM     14  H   UNL     1       2.351   1.033  18.521  0.00  0.00    +0.000 HD
ENDBRANCH   2  13
BRANCH   5  15
ATOM     15  C   UNL     1       2.045   6.655  20.494  0.00  0.00    +0.000 C 
BRANCH  15  16
ATOM     16  S   UNL     1       1.986   7.862  19.136  0.00  0.00    +0.000 S 
BRANCH  16  17
ATOM     17  C   UNL     1       1.010   9.140  19.871  0.00  0.00    +0.000 A 
ATOM     18  N   UNL     1       0.722   8.953  21.167  0.00  0.00    +0.000 NA
ATOM     19  C   UNL     1       0.017   9.910  21.794  0.00  0.00    +0.000 A 
ATOM     20  C   UNL     1      -0.295   9.680  23.240  0.00  0.00    +0.000 C 
ATOM     21  C   UNL     1      -0.389  11.056  21.147  0.00  0.00    +0.000 A 
ATOM     22  C   UNL     1      -0.046  11.177  19.816  0.00  0.00    +0.000 A 
ATOM     23  C   UNL     1      -0.453  12.396  19.038  0.00  0.00    +0.000 C 
ATOM     24  N   UNL     1       0.647  10.220  19.153  0.00  0.00    +0.000 NA
ENDBRANCH  16  17
ENDBRANCH  15  16
ENDBRANCH   5  15
TORSDOF 5
ENDMDL
MODEL 5
REMARK VINA RESULT:      -6.8      3.856      8.274
REMARK  Name = 
REMARK  8 active torsions:
REMARK  status: ('A' for Active; 'I' for Inactive)
REMARK    1  A    between atoms: C_1  and  C_2
REMARK    2  A    between atoms: C_5  and  N_6
REMARK    3  A    between atoms: C_7  and  S_8
REMARK    4  A    between atoms: C_11  and  C_12
REMARK    5  A    between atoms: C_12  and  S_13
REMARK    6  A    between atoms: S_13  and  C_14
REMARK    7  A    between atoms: C_16  and  C_17
REMARK    8  A    between atoms: C_19  and  C_20
REMARK                            x       y       z     vdW  Elec       q    Type
REMARK                         _______ _______ _______ _____ _____    ______ ____
ROOT
ATOM      1  N   UNL     1       2.915   4.596  19.194  0.00  0.00    +0.000 N 
ATOM      2  C   UNL     1       2.357   3.344  18.948  0.00  0.00    +0.000 A 
ATOM      3  N   UNL     1       1.208   3.222  19.563  0.00  0.00    +0.000 NA
ATOM      4  N   UNL     1       0.977   4.368  20.254  0.00  0.00    +0.000 NA
ATOM      5  C   UNL     1       1.977   5.207  20.044  0.00  0.00    +0.000 A 
ENDROOT
BRANCH   1  10
ATOM      6  C   UNL     1       7.683   7.185  17.280  0.00  0.00    +0.000 C 
ATOM      7  C   UNL     1       6.460   6.439  17.722  0.00  0.00    +0.000 A 
ATOM      8  C   UNL     1       5.275   6.496  16.988  0.00  0.00    +0.000 A 
ATOM      9  C   UNL     1       4.109   5.885  17.466  0.00  0.00    +0.000 A 
ATOM     10  C   UNL     1       4.117   5.170  18.672  0.00  0.00    +0.000 A 
ATOM     11  C   UNL     1       5.325   5.069  19.373  0.00  0.00    +0.000 A 
ATOM     12  C   UNL     1       6.477   5.715  18.916  0.00  0.00    +0.000 A 
ENDBRANCH   1  10
BRANCH   2  13
ATOM     13  S   UNL     1       3.073   1.997  18.114  0.00  0.00    +0.000 S 
ATOM     14  H   UNL     1       2.944   1.046  19.046  0.00  0.00    +0.000 HD
ENDBRANCH   2  13
BRANCH   5  15
ATOM     15  C   UNL     1       2.016   6.627  20.535  0.00  0.00    +0.000 C 
BRANCH  15  16
ATOM     16  S   UNL     1       1.863   7.831  19.181  0.00  0.00    +0.000 S 
BRANCH  16  17
ATOM     17  C   UNL     1       1.104   9.186  20.028  0.00  0.00    +0.000 A 
ATOM     18  N   UNL     1       1.043  10.325  19.324  0.00  0.00    +0.000 NA
ATOM     19  C   UNL     1       0.441  11.380  19.897  0.00  0.00    +0.000 A 
ATOM     20  C   UNL     1       0.385  12.643  19.095  0.00  0.00    +0.000 C 
ATOM     21  C   UNL     1      -0.113  11.307  21.156  0.00  0.00    +0.000 A 
ATOM     22  C   UNL     1      -0.015  10.097  21.812  0.00  0.00    +0.000 A 
ATOM     23  C   UNL     1      -0.592   9.934  23.189  0.00  0.00    +0.000 C 
ATOM     24  N   UNL     1       0.603   9.021  21.267  0.00  0.00    +0.000 NA
ENDBRANCH  16  17
ENDBRANCH  15  16
ENDBRANCH   5  15
TORSDOF 5
ENDMDL
MODEL 6
REMARK VINA RESULT:      -6.7      0.256      1.792
REMARK  Name = 
REMARK  8 active torsions:
REMARK  status: ('A' for Active; 'I' for Inactive)
REMARK    1  A    between atoms: C_1  and  C_2
REMARK    2  A    between atoms: C_5  and  N_6
REMARK    3  A    between atoms: C_7  and  S_8
REMARK    4  A    between atoms: C_11  and  C_12
REMARK    5  A    between atoms: C_12  and  S_13
REMARK    6  A    between atoms: S_13  and  C_14
REMARK    7  A    between atoms: C_16  and  C_17
REMARK    8  A    between atoms: C_19  and  C_20
REMARK                            x       y       z     vdW  Elec       q    Type
REMARK                         _______ _______ _______ _____ _____    ______ ____
ROOT
ATOM      1  N   UNL     1       3.564   6.082  17.653  0.00  0.00    +0.000 N 
ATOM      2  C   UNL     1       3.290   7.391  17.265  0.00  0.00    +0.000 A 
ATOM      3  N   UNL     1       4.074   7.753  16.280  0.00  0.00    +0.000 NA
ATOM      4  N   UNL     1       4.905   6.716  16.002  0.00  0.00    +0.000 NA
ATOM      5  C   UNL     1       4.616   5.704  16.801  0.00  0.00    +0.000 A 
ENDROOT
BRANCH   1  10
ATOM      6  C   UNL     1       1.168   2.590  21.548  0.00  0.00    +0.000 C 
ATOM      7  C   UNL     1       1.722   3.559  20.547  0.00  0.00    +0.000 A 
ATOM      8  C   UNL     1       1.272   3.568  19.226  0.00  0.00    +0.000 A 
ATOM      9  C   UNL     1       1.871   4.401  18.273  0.00  0.00    +0.000 A 
ATOM     10  C   UNL     1       2.908   5.272  18.635  0.00  0.00    +0.000 A 
ATOM     11  C   UNL     1       3.314   5.299  19.975  0.00  0.00    +0.000 A 
ATOM     12  C   UNL     1       2.743   4.436  20.915  0.00  0.00    +0.000 A 
ENDBRANCH   1  10
BRANCH   2  13
ATOM     13  S   UNL     1       2.218   8.531  18.020  0.00  0.00    +0.000 S 
ATOM     14  H   UNL     1       3.082   9.505  18.323  0.00  0.00    +0.000 HD
ENDBRANCH   2  13
BRANCH   5  15
ATOM     15  C   UNL     1       5.233   4.337  16.705  0.00  0.00    +0.000 C 
BRANCH  15  16
ATOM     16  S   UNL     1       7.031   4.408  16.445  0.00  0.00    +0.000 S 
BRANCH  16  17
ATOM     17  C   UNL     1       7.107   4.478  14.680  0.00  0.00    +0.000 A 
ATOM     18  N   UNL     1       6.302   3.614  14.047  0.00  0.00    +0.000 NA
ATOM     19  C   UNL     1       6.284   3.647  12.704  0.00  0.00    +0.000 A 
ATOM     20  C   UNL     1       5.379   2.672  12.016  0.00  0.00    +0.000 C 
ATOM     21  C   UNL     1       7.048   4.542  11.987  0.00  0.00    +0.000 A 
ATOM     22  C   UNL     1       7.845   5.403  12.713  0.00  0.00    +0.000 A 
ATOM     23  C   UNL     1       8.710   6.408  12.008  0.00  0.00    +0.000 C 
ATOM     24  N   UNL     1       7.898   5.380  14.067  0.00  0.00    +0.000 NA
ENDBRANCH  16  17
ENDBRANCH  15  16
ENDBRANCH   5  15
TORSDOF 5
ENDMDL
MODEL 7
REMARK VINA RESULT:      -6.7      2.082      3.440
REMARK  Name = 
REMARK  8 active torsions:
REMARK  status: ('A' for Active; 'I' for Inactive)
REMARK    1  A    between atoms: C_1  and  C_2
REMARK    2  A    between atoms: C_5  and  N_6
REMARK    3  A    between atoms: C_7  and  S_8
REMARK    4  A    between atoms: C_11  and  C_12
REMARK    5  A    between atoms: C_12  and  S_13
REMARK    6  A    between atoms: S_13  and  C_14
REMARK    7  A    between atoms: C_16  and  C_17
REMARK    8  A    between atoms: C_19  and  C_20
REMARK                            x       y       z     vdW  Elec       q    Type
REMARK                         _______ _______ _______ _____ _____    ______ ____
ROOT
ATOM      1  N   UNL     1       3.019   4.707  18.787  0.00  0.00    +0.000 N 
ATOM      2  C   UNL     1       2.760   3.606  19.601  0.00  0.00    +0.000 A 
ATOM      3  N   UNL     1       3.467   2.573  19.217  0.00  0.00    +0.000 NA
ATOM      4  N   UNL     1       4.192   2.940  18.130  0.00  0.00    +0.000 NA
ATOM      5  C   UNL     1       3.949   4.211  17.857  0.00  0.00    +0.000 A 
ENDROOT
BRANCH   1  10
ATOM      6  C   UNL     1       1.339  10.193  19.213  0.00  0.00    +0.000 C 
ATOM      7  C   UNL     1       1.687   8.738  19.102  0.00  0.00    +0.000 A 
ATOM      8  C   UNL     1       1.752   7.924  20.232  0.00  0.00    +0.000 A 
ATOM      9  C   UNL     1       2.183   6.595  20.132  0.00  0.00    +0.000 A 
ATOM     10  C   UNL     1       2.520   6.045  18.887  0.00  0.00    +0.000 A 
ATOM     11  C   UNL     1       2.397   6.852  17.750  0.00  0.00    +0.000 A 
ATOM     12  C   UNL     1       2.007   8.191  17.859  0.00  0.00    +0.000 A 
ENDBRANCH   1  10
BRANCH   2  13
ATOM     13  S   UNL     1       1.565   3.457  20.853  0.00  0.00    +0.000 S 
ATOM     14  H   UNL     1       2.256   3.927  21.898  0.00  0.00    +0.000 HD
ENDBRANCH   2  13
BRANCH   5  15
ATOM     15  C   UNL     1       4.664   5.010  16.804  0.00  0.00    +0.000 C 
BRANCH  15  16
ATOM     16  S   UNL     1       6.427   4.582  16.692  0.00  0.00    +0.000 S 
BRANCH  16  17
ATOM     17  C   UNL     1       6.641   4.515  14.938  0.00  0.00    +0.000 A 
ATOM     18  N   UNL     1       7.614   5.303  14.459  0.00  0.00    +0.000 NA
ATOM     19  C   UNL     1       7.853   5.266  13.137  0.00  0.00    +0.000 A 
ATOM     20  C   UNL     1       8.942   6.155  12.623  0.00  0.00    +0.000 C 
ATOM     21  C   UNL     1       7.143   4.441  12.292  0.00  0.00    +0.000 A 
ATOM     22  C   UNL     1       6.163   3.655  12.864  0.00  0.00    +0.000 A 
ATOM     23  C   UNL     1       5.343   2.730  12.012  0.00  0.00    +0.000 C 
ATOM     24  N   UNL     1       5.887   3.686  14.190  0.00  0.00    +0.000 NA
ENDBRANCH  16  17
ENDBRANCH  15  16
ENDBRANCH   5  15
TORSDOF 5
ENDMDL
MODEL 8
REMARK VINA RESULT:      -6.7      2.136      3.747
REMARK  Name = 
REMARK  8 active torsions:
REMARK  status: ('A' for Active; 'I' for Inactive)
REMARK    1  A    between atoms: C_1  and  C_2
REMARK    2  A    between atoms: C_5  and  N_6
REMARK    3  A    between atoms: C_7  and  S_8
REMARK    4  A    between atoms: C_11  and  C_12
REMARK    5  A    between atoms: C_12  and  S_13
REMARK    6  A    between atoms: S_13  and  C_14
REMARK    7  A    between atoms: C_16  and  C_17
REMARK    8  A    between atoms: C_19  and  C_20
REMARK                            x       y       z     vdW  Elec       q    Type
REMARK                         _______ _______ _______ _____ _____    ______ ____
ROOT
ATOM      1  N   UNL     1       2.945   4.325  18.655  0.00  0.00    +0.000 N 
ATOM      2  C   UNL     1       2.632   3.190  19.399  0.00  0.00    +0.000 A 
ATOM      3  N   UNL     1       3.210   2.131  18.889  0.00  0.00    +0.000 NA
ATOM      4  N   UNL     1       3.899   2.519  17.785  0.00  0.00    +0.000 NA
ATOM      5  C   UNL     1       3.764   3.825  17.628  0.00  0.00    +0.000 A 
ENDROOT
BRANCH   1  10
ATOM      6  C   UNL     1       1.178   9.727  19.553  0.00  0.00    +0.000 C 
ATOM      7  C   UNL     1       1.726   8.349  19.329  0.00  0.00    +0.000 A 
ATOM      8  C   UNL     1       2.168   7.944  18.069  0.00  0.00    +0.000 A 
ATOM      9  C   UNL     1       2.576   6.623  17.846  0.00  0.00    +0.000 A 
ATOM     10  C   UNL     1       2.587   5.690  18.892  0.00  0.00    +0.000 A 
ATOM     11  C   UNL     1       2.197   6.120  20.167  0.00  0.00    +0.000 A 
ATOM     12  C   UNL     1       1.750   7.428  20.378  0.00  0.00    +0.000 A 
ENDBRANCH   1  10
BRANCH   2  13
ATOM     13  S   UNL     1       1.507   3.048  20.716  0.00  0.00    +0.000 S 
ATOM     14  H   UNL     1       0.352   3.204  20.059  0.00  0.00    +0.000 HD
ENDBRANCH   2  13
BRANCH   5  15
ATOM     15  C   UNL     1       4.488   4.639  16.593  0.00  0.00    +0.000 C 
BRANCH  15  16
ATOM     16  S   UNL     1       6.288   4.399  16.660  0.00  0.00    +0.000 S 
BRANCH  16  17
ATOM     17  C   UNL     1       6.691   4.439  14.938  0.00  0.00    +0.000 A 
ATOM     18  N   UNL     1       5.933   3.650  14.165  0.00  0.00    +0.000 NA
ATOM     19  C   UNL     1       6.162   3.666  12.841  0.00  0.00    +0.000 A 
ATOM     20  C   UNL     1       5.305   2.777  11.995  0.00  0.00    +0.000 C 
ATOM     21  C   UNL     1       7.129   4.472  12.281  0.00  0.00    +0.000 A 
ATOM     22  C   UNL     1       7.863   5.260  13.144  0.00  0.00    +0.000 A 
ATOM     23  C   UNL     1       8.937   6.165  12.613  0.00  0.00    +0.000 C 
ATOM     24  N   UNL     1       7.666   5.250  14.484  0.00  0.00    +0.000 NA
ENDBRANCH  16  17
ENDBRANCH  15  16
ENDBRANCH   5  15
TORSDOF 5
ENDMDL
MODEL 9
REMARK VINA RESULT:      -6.7      7.245     10.838
REMARK  Name = 
REMARK  8 active torsions:
REMARK  status: ('A' for Active; 'I' for Inactive)
REMARK    1  A    between atoms: C_1  and  C_2
REMARK    2  A    between atoms: C_5  and  N_6
REMARK    3  A    between atoms: C_7  and  S_8
REMARK    4  A    between atoms: C_11  and  C_12
REMARK    5  A    between atoms: C_12  and  S_13
REMARK    6  A    between atoms: S_13  and  C_14
REMARK    7  A    between atoms: C_16  and  C_17
REMARK    8  A    between atoms: C_19  and  C_20
REMARK                            x       y       z     vdW  Elec       q    Type
REMARK                         _______ _______ _______ _____ _____    ______ ____
ROOT
ATOM      1  N   UNL     1       0.120  11.171  18.925  0.00  0.00    +0.000 N 
ATOM      2  C   UNL     1       0.482  12.477  19.246  0.00  0.00    +0.000 A 
ATOM      3  N   UNL     1      -0.528  13.292  19.071  0.00  0.00    +0.000 NA
ATOM      4  N   UNL     1      -1.577  12.566  18.606  0.00  0.00    +0.000 NA
ATOM      5  C   UNL     1      -1.219  11.296  18.517  0.00  0.00    +0.000 A 
ENDROOT
BRANCH   1  10
ATOM      6  C   UNL     1       2.924   6.156  19.247  0.00  0.00    +0.000 C 
ATOM      7  C   UNL     1       2.268   7.505  19.199  0.00  0.00    +0.000 A 
ATOM      8  C   UNL     1       1.633   8.039  20.320  0.00  0.00    +0.000 A 
ATOM      9  C   UNL     1       0.931   9.248  20.235  0.00  0.00    +0.000 A 
ATOM     10  C   UNL     1       0.886   9.966  19.032  0.00  0.00    +0.000 A 
ATOM     11  C   UNL     1       1.575   9.452  17.927  0.00  0.00    +0.000 A 
ATOM     12  C   UNL     1       2.239   8.224  18.003  0.00  0.00    +0.000 A 
ENDBRANCH   1  10
BRANCH   2  13
ATOM     13  S   UNL     1       2.059  13.082  19.656  0.00  0.00    +0.000 S 
ATOM     14  H   UNL     1       2.306  12.371  20.761  0.00  0.00    +0.000 HD
ENDBRANCH   2  13
BRANCH   5  15
ATOM     15  C   UNL     1      -2.149  10.170  18.165  0.00  0.00    +0.000 C 
BRANCH  15  16
ATOM     16  S   UNL     1      -3.012  10.452  16.591  0.00  0.00    +0.000 S 
BRANCH  16  17
ATOM     17  C   UNL     1      -4.583  11.021  17.171  0.00  0.00    +0.000 A 
ATOM     18  N   UNL     1      -5.171  10.223  18.073  0.00  0.00    +0.000 NA
ATOM     19  C   UNL     1      -6.349  10.620  18.584  0.00  0.00    +0.000 A 
ATOM     20  C   UNL     1      -6.990   9.714  19.588  0.00  0.00    +0.000 C 
ATOM     21  C   UNL     1      -6.937  11.811  18.216  0.00  0.00    +0.000 A 
ATOM     22  C   UNL     1      -6.264  12.579  17.288  0.00  0.00    +0.000 A 
ATOM     23  C   UNL     1      -6.838  13.890  16.832  0.00  0.00    +0.000 C 
ATOM     24  N   UNL     1      -5.085  12.194  16.742  0.00  0.00    +0.000 NA
ENDBRANCH  16  17
ENDBRANCH  15  16
ENDBRANCH   5  15
TORSDOF 5
ENDMDL
