MODEL 1
REMARK VINA RESULT:      -8.7      0.000      0.000
REMARK  Name = 
REMARK  5 active torsions:
REMARK  status: ('A' for Active; 'I' for Inactive)
REMARK    1  A    between atoms: C_1  and  C_2
REMARK    2  A    between atoms: C_3  and  C_4
REMARK    3  A    between atoms: C_4  and  C_6
REMARK    4  A    between atoms: C_12  and  C_13
REMARK    5  A    between atoms: C_18  and  N_19
REMARK                            x       y       z     vdW  Elec       q    Type
REMARK                         _______ _______ _______ _____ _____    ______ ____
ROOT
ATOM      1  C   UNL     1       1.110   2.784  20.057  0.00  0.00    +0.000 C 
ATOM      2  C   UNL     1       2.564   3.136  19.862  0.00  0.00    +0.000 C 
ATOM      3  C   UNL     1       3.122   4.156  19.161  0.00  0.00    +0.000 C 
ATOM      4  C   UNL     1       4.638   4.279  19.067  0.00  0.00    +0.000 C 
ATOM      5  N   UNL     1       5.325   3.165  19.689  0.00  0.00    +0.000 N 
ATOM      6  C   UNL     1       4.745   2.249  20.489  0.00  0.00    +0.000 C 
ATOM      7  O   UNL     1       5.406   1.437  21.127  0.00  0.00    +0.000 OA
ATOM      8  N   UNL     1       3.393   2.256  20.524  0.00  0.00    +0.000 N 
ATOM      9  H   UNL     1       6.334   3.202  19.776  0.00  0.00    +0.000 HD
ATOM     10  H   UNL     1       2.995   1.513  21.085  0.00  0.00    +0.000 HD
ENDROOT
BRANCH   4  11
ATOM     11  C   UNL     1       5.235   4.429  17.670  0.00  0.00    +0.000 A 
ATOM     12  C   UNL     1       4.635   3.793  16.568  0.00  0.00    +0.000 A 
ATOM     13  C   UNL     1       5.236   3.811  15.304  0.00  0.00    +0.000 A 
ATOM     14  C   UNL     1       6.461   4.448  15.110  0.00  0.00    +0.000 A 
ATOM     15  C   UNL     1       7.078   5.099  16.172  0.00  0.00    +0.000 A 
ATOM     16  C   UNL     1       6.463   5.087  17.432  0.00  0.00    +0.000 A 
BRANCH  16  17
ATOM     17  N   UNL     1       7.174   5.764  18.506  0.00  0.00    +0.000 N 
ATOM     18  O   UNL     1       7.469   6.951  18.329  0.00  0.00    +0.000 OA
ATOM     19  O   UNL     1       7.436   5.097  19.515  0.00  0.00    +0.000 OA
ENDBRANCH  16  17
ENDBRANCH   4  11
BRANCH   3  20
ATOM     20  C   UNL     1       2.238   5.126  18.409  0.00  0.00    +0.000 C 
ATOM     21  O   UNL     1       1.670   4.774  17.374  0.00  0.00    +0.000 OA
BRANCH  20  22
ATOM     22  C   UNL     1       2.092   6.565  18.792  0.00  0.00    +0.000 A 
ATOM     23  C   UNL     1       1.765   6.845  20.132  0.00  0.00    +0.000 A 
ATOM     24  C   UNL     1       1.567   8.157  20.569  0.00  0.00    +0.000 A 
ATOM     25  C   UNL     1       1.669   9.209  19.665  0.00  0.00    +0.000 A 
ATOM     26  C   UNL     1       2.023   8.952  18.343  0.00  0.00    +0.000 A 
ATOM     27  C   UNL     1       2.279   7.642  17.921  0.00  0.00    +0.000 A 
ENDBRANCH  20  22
ENDBRANCH   3  20
TORSDOF 4
ENDMDL
MODEL 2
REMARK VINA RESULT:      -8.3      0.450      1.230
REMARK  Name = 
REMARK  5 active torsions:
REMARK  status: ('A' for Active; 'I' for Inactive)
REMARK    1  A    between atoms: C_1  and  C_2
REMARK    2  A    between atoms: C_3  and  C_4
REMARK    3  A    between atoms: C_4  and  C_6
REMARK    4  A    between atoms: C_12  and  C_13
REMARK    5  A    between atoms: C_18  and  N_19
REMARK                            x       y       z     vdW  Elec       q    Type
REMARK                         _______ _______ _______ _____ _____    ______ ____
ROOT
ATOM      1  C   UNL     1       1.082   3.382  20.197  0.00  0.00    +0.000 C 
ATOM      2  C   UNL     1       2.566   3.540  19.977  0.00  0.00    +0.000 C 
ATOM      3  C   UNL     1       3.243   4.493  19.286  0.00  0.00    +0.000 C 
ATOM      4  C   UNL     1       4.760   4.413  19.160  0.00  0.00    +0.000 C 
ATOM      5  N   UNL     1       5.302   3.201  19.742  0.00  0.00    +0.000 N 
ATOM      6  C   UNL     1       4.620   2.352  20.534  0.00  0.00    +0.000 C 
ATOM      7  O   UNL     1       5.177   1.443  21.138  0.00  0.00    +0.000 OA
ATOM      8  N   UNL     1       3.282   2.540  20.600  0.00  0.00    +0.000 N 
ATOM      9  H   UNL     1       6.309   3.100  19.807  0.00  0.00    +0.000 HD
ATOM     10  H   UNL     1       2.798   1.843  21.153  0.00  0.00    +0.000 HD
ENDROOT
BRANCH   4  11
ATOM     11  C   UNL     1       5.345   4.516  17.754  0.00  0.00    +0.000 A 
ATOM     12  C   UNL     1       4.729   3.851  16.678  0.00  0.00    +0.000 A 
ATOM     13  C   UNL     1       5.318   3.827  15.408  0.00  0.00    +0.000 A 
ATOM     14  C   UNL     1       6.546   4.448  15.183  0.00  0.00    +0.000 A 
ATOM     15  C   UNL     1       7.178   5.126  16.219  0.00  0.00    +0.000 A 
ATOM     16  C   UNL     1       6.575   5.158  17.484  0.00  0.00    +0.000 A 
BRANCH  16  17
ATOM     17  N   UNL     1       7.301   5.861  18.531  0.00  0.00    +0.000 N 
ATOM     18  O   UNL     1       7.554   5.233  19.565  0.00  0.00    +0.000 OA
ATOM     19  O   UNL     1       7.607   7.040  18.309  0.00  0.00    +0.000 OA
ENDBRANCH  16  17
ENDBRANCH   4  11
BRANCH   3  20
ATOM     20  C   UNL     1       2.484   5.592  18.576  0.00  0.00    +0.000 C 
ATOM     21  O   UNL     1       2.289   5.526  17.362  0.00  0.00    +0.000 OA
BRANCH  20  22
ATOM     22  C   UNL     1       2.038   6.848  19.256  0.00  0.00    +0.000 A 
ATOM     23  C   UNL     1       1.919   8.003  18.460  0.00  0.00    +0.000 A 
ATOM     24  C   UNL     1       1.550   9.229  19.017  0.00  0.00    +0.000 A 
ATOM     25  C   UNL     1       1.317   9.325  20.385  0.00  0.00    +0.000 A 
ATOM     26  C   UNL     1       1.399   8.185  21.180  0.00  0.00    +0.000 A 
ATOM     27  C   UNL     1       1.711   6.946  20.610  0.00  0.00    +0.000 A 
ENDBRANCH  20  22
ENDBRANCH   3  20
TORSDOF 4
ENDMDL
MODEL 3
REMARK VINA RESULT:      -8.1      2.094      5.954
REMARK  Name = 
REMARK  5 active torsions:
REMARK  status: ('A' for Active; 'I' for Inactive)
REMARK    1  A    between atoms: C_1  and  C_2
REMARK    2  A    between atoms: C_3  and  C_4
REMARK    3  A    between atoms: C_4  and  C_6
REMARK    4  A    between atoms: C_12  and  C_13
REMARK    5  A    between atoms: C_18  and  N_19
REMARK                            x       y       z     vdW  Elec       q    Type
REMARK                         _______ _______ _______ _____ _____    ______ ____
ROOT
ATOM      1  C   UNL     1       7.939   7.733  16.957  0.00  0.00    +0.000 C 
ATOM      2  C   UNL     1       7.273   6.540  17.598  0.00  0.00    +0.000 C 
ATOM      3  C   UNL     1       6.305   5.723  17.110  0.00  0.00    +0.000 C 
ATOM      4  C   UNL     1       5.746   4.599  17.975  0.00  0.00    +0.000 C 
ATOM      5  N   UNL     1       6.280   4.619  19.323  0.00  0.00    +0.000 N 
ATOM      6  C   UNL     1       7.333   5.355  19.726  0.00  0.00    +0.000 C 
ATOM      7  O   UNL     1       7.849   5.197  20.827  0.00  0.00    +0.000 OA
ATOM      8  N   UNL     1       7.769   6.298  18.861  0.00  0.00    +0.000 N 
ATOM      9  H   UNL     1       6.055   3.852  19.947  0.00  0.00    +0.000 HD
ATOM     10  H   UNL     1       8.519   6.873  19.226  0.00  0.00    +0.000 HD
ENDROOT
BRANCH   4  11
ATOM     11  C   UNL     1       4.228   4.522  18.114  0.00  0.00    +0.000 A 
ATOM     12  C   UNL     1       3.431   5.649  17.843  0.00  0.00    +0.000 A 
ATOM     13  C   UNL     1       2.053   5.637  18.086  0.00  0.00    +0.000 A 
ATOM     14  C   UNL     1       1.436   4.508  18.624  0.00  0.00    +0.000 A 
ATOM     15  C   UNL     1       2.188   3.371  18.892  0.00  0.00    +0.000 A 
ATOM     16  C   UNL     1       3.566   3.386  18.633  0.00  0.00    +0.000 A 
BRANCH  16  17
ATOM     17  N   UNL     1       4.300   2.172  18.961  0.00  0.00    +0.000 N 
ATOM     18  O   UNL     1       4.963   2.177  20.005  0.00  0.00    +0.000 OA
ATOM     19  O   UNL     1       4.211   1.228  18.165  0.00  0.00    +0.000 OA
ENDBRANCH  16  17
ENDBRANCH   4  11
BRANCH   3  20
ATOM     20  C   UNL     1       5.727   5.975  15.736  0.00  0.00    +0.000 C 
ATOM     21  O   UNL     1       4.899   6.871  15.565  0.00  0.00    +0.000 OA
BRANCH  20  22
ATOM     22  C   UNL     1       6.023   5.107  14.552  0.00  0.00    +0.000 A 
ATOM     23  C   UNL     1       7.248   5.315  13.891  0.00  0.00    +0.000 A 
ATOM     24  C   UNL     1       7.588   4.581  12.753  0.00  0.00    +0.000 A 
ATOM     25  C   UNL     1       6.696   3.644  12.242  0.00  0.00    +0.000 A 
ATOM     26  C   UNL     1       5.494   3.404  12.903  0.00  0.00    +0.000 A 
ATOM     27  C   UNL     1       5.181   4.098  14.077  0.00  0.00    +0.000 A 
ENDBRANCH  20  22
ENDBRANCH   3  20
TORSDOF 4
ENDMDL
MODEL 4
REMARK VINA RESULT:      -8.0      2.652      5.789
REMARK  Name = 
REMARK  5 active torsions:
REMARK  status: ('A' for Active; 'I' for Inactive)
REMARK    1  A    between atoms: C_1  and  C_2
REMARK    2  A    between atoms: C_3  and  C_4
REMARK    3  A    between atoms: C_4  and  C_6
REMARK    4  A    between atoms: C_12  and  C_13
REMARK    5  A    between atoms: C_18  and  N_19
REMARK                            x       y       z     vdW  Elec       q    Type
REMARK                         _______ _______ _______ _____ _____    ______ ____
ROOT
ATOM      1  C   UNL     1       7.605   7.973  17.026  0.00  0.00    +0.000 C 
ATOM      2  C   UNL     1       7.136   6.638  17.548  0.00  0.00    +0.000 C 
ATOM      3  C   UNL     1       6.352   5.702  16.954  0.00  0.00    +0.000 C 
ATOM      4  C   UNL     1       5.966   4.436  17.711  0.00  0.00    +0.000 C 
ATOM      5  N   UNL     1       6.429   4.449  19.084  0.00  0.00    +0.000 N 
ATOM      6  C   UNL     1       7.314   5.326  19.594  0.00  0.00    +0.000 C 
ATOM      7  O   UNL     1       7.801   5.179  20.710  0.00  0.00    +0.000 OA
ATOM      8  N   UNL     1       7.611   6.393  18.819  0.00  0.00    +0.000 N 
ATOM      9  H   UNL     1       6.318   3.610  19.643  0.00  0.00    +0.000 HD
ATOM     10  H   UNL     1       8.230   7.062  19.263  0.00  0.00    +0.000 HD
ENDROOT
BRANCH   4  11
ATOM     11  C   UNL     1       4.482   4.083  17.758  0.00  0.00    +0.000 A 
ATOM     12  C   UNL     1       4.031   2.841  17.275  0.00  0.00    +0.000 A 
ATOM     13  C   UNL     1       2.664   2.549  17.192  0.00  0.00    +0.000 A 
ATOM     14  C   UNL     1       1.712   3.495  17.570  0.00  0.00    +0.000 A 
ATOM     15  C   UNL     1       2.120   4.728  18.064  0.00  0.00    +0.000 A 
ATOM     16  C   UNL     1       3.491   5.008  18.158  0.00  0.00    +0.000 A 
BRANCH  16  17
ATOM     17  N   UNL     1       3.850   6.326  18.659  0.00  0.00    +0.000 N 
ATOM     18  O   UNL     1       4.405   6.380  19.762  0.00  0.00    +0.000 OA
ATOM     19  O   UNL     1       3.567   7.296  17.944  0.00  0.00    +0.000 OA
ENDBRANCH  16  17
ENDBRANCH   4  11
BRANCH   3  20
ATOM     20  C   UNL     1       5.799   5.951  15.569  0.00  0.00    +0.000 C 
ATOM     21  O   UNL     1       4.978   6.850  15.380  0.00  0.00    +0.000 OA
BRANCH  20  22
ATOM     22  C   UNL     1       6.110   5.076  14.395  0.00  0.00    +0.000 A 
ATOM     23  C   UNL     1       7.332   5.299  13.731  0.00  0.00    +0.000 A 
ATOM     24  C   UNL     1       7.685   4.560  12.600  0.00  0.00    +0.000 A 
ATOM     25  C   UNL     1       6.810   3.601  12.100  0.00  0.00    +0.000 A 
ATOM     26  C   UNL     1       5.613   3.346  12.763  0.00  0.00    +0.000 A 
ATOM     27  C   UNL     1       5.288   4.047  13.930  0.00  0.00    +0.000 A 
ENDBRANCH  20  22
ENDBRANCH   3  20
TORSDOF 4
ENDMDL
MODEL 5
REMARK VINA RESULT:      -7.9      2.056      5.881
REMARK  Name = 
REMARK  5 active torsions:
REMARK  status: ('A' for Active; 'I' for Inactive)
REMARK    1  A    between atoms: C_1  and  C_2
REMARK    2  A    between atoms: C_3  and  C_4
REMARK    3  A    between atoms: C_4  and  C_6
REMARK    4  A    between atoms: C_12  and  C_13
REMARK    5  A    between atoms: C_18  and  N_19
REMARK                            x       y       z     vdW  Elec       q    Type
REMARK                         _______ _______ _______ _____ _____    ______ ____
ROOT
ATOM      1  C   UNL     1       7.998   7.744  17.039  0.00  0.00    +0.000 C 
ATOM      2  C   UNL     1       7.317   6.557  17.673  0.00  0.00    +0.000 C 
ATOM      3  C   UNL     1       6.328   5.764  17.186  0.00  0.00    +0.000 C 
ATOM      4  C   UNL     1       5.758   4.640  18.044  0.00  0.00    +0.000 C 
ATOM      5  N   UNL     1       6.307   4.634  19.385  0.00  0.00    +0.000 N 
ATOM      6  C   UNL     1       7.378   5.344  19.786  0.00  0.00    +0.000 C 
ATOM      7  O   UNL     1       7.902   5.164  20.879  0.00  0.00    +0.000 OA
ATOM      8  N   UNL     1       7.822   6.290  18.927  0.00  0.00    +0.000 N 
ATOM      9  H   UNL     1       6.074   3.863  20.003  0.00  0.00    +0.000 HD
ATOM     10  H   UNL     1       8.587   6.846  19.291  0.00  0.00    +0.000 HD
ENDROOT
BRANCH   4  11
ATOM     11  C   UNL     1       4.240   4.590  18.199  0.00  0.00    +0.000 A 
ATOM     12  C   UNL     1       3.465   5.745  17.989  0.00  0.00    +0.000 A 
ATOM     13  C   UNL     1       2.090   5.752  18.249  0.00  0.00    +0.000 A 
ATOM     14  C   UNL     1       1.454   4.614  18.743  0.00  0.00    +0.000 A 
ATOM     15  C   UNL     1       2.184   3.449  18.950  0.00  0.00    +0.000 A 
ATOM     16  C   UNL     1       3.559   3.446  18.674  0.00  0.00    +0.000 A 
BRANCH  16  17
ATOM     17  N   UNL     1       4.270   2.203  18.937  0.00  0.00    +0.000 N 
ATOM     18  O   UNL     1       4.153   1.298  18.104  0.00  0.00    +0.000 OA
ATOM     19  O   UNL     1       4.933   2.145  19.981  0.00  0.00    +0.000 OA
ENDBRANCH  16  17
ENDBRANCH   4  11
BRANCH   3  20
ATOM     20  C   UNL     1       5.740   6.044  15.821  0.00  0.00    +0.000 C 
ATOM     21  O   UNL     1       4.914   6.946  15.674  0.00  0.00    +0.000 OA
BRANCH  20  22
ATOM     22  C   UNL     1       6.022   5.197  14.620  0.00  0.00    +0.000 A 
ATOM     23  C   UNL     1       5.003   4.324  14.193  0.00  0.00    +0.000 A 
ATOM     24  C   UNL     1       5.194   3.467  13.108  0.00  0.00    +0.000 A 
ATOM     25  C   UNL     1       6.417   3.450  12.446  0.00  0.00    +0.000 A 
ATOM     26  C   UNL     1       7.423   4.330  12.835  0.00  0.00    +0.000 A 
ATOM     27  C   UNL     1       7.210   5.230  13.885  0.00  0.00    +0.000 A 
ENDBRANCH  20  22
ENDBRANCH   3  20
TORSDOF 4
ENDMDL
MODEL 6
REMARK VINA RESULT:      -7.8      2.093      5.361
REMARK  Name = 
REMARK  5 active torsions:
REMARK  status: ('A' for Active; 'I' for Inactive)
REMARK    1  A    between atoms: C_1  and  C_2
REMARK    2  A    between atoms: C_3  and  C_4
REMARK    3  A    between atoms: C_4  and  C_6
REMARK    4  A    between atoms: C_12  and  C_13
REMARK    5  A    between atoms: C_18  and  N_19
REMARK                            x       y       z     vdW  Elec       q    Type
REMARK                         _______ _______ _______ _____ _____    ______ ____
ROOT
ATOM      1  C   UNL     1       4.552   1.342  19.357  0.00  0.00    +0.000 C 
ATOM      2  C   UNL     1       3.510   2.275  18.792  0.00  0.00    +0.000 C 
ATOM      3  C   UNL     1       3.655   3.519  18.266  0.00  0.00    +0.000 C 
ATOM      4  C   UNL     1       2.431   4.299  17.800  0.00  0.00    +0.000 C 
ATOM      5  N   UNL     1       1.190   3.610  18.093  0.00  0.00    +0.000 N 
ATOM      6  C   UNL     1       1.093   2.326  18.488  0.00  0.00    +0.000 C 
ATOM      7  O   UNL     1       0.013   1.748  18.549  0.00  0.00    +0.000 OA
ATOM      8  N   UNL     1       2.249   1.721  18.844  0.00  0.00    +0.000 N 
ATOM      9  H   UNL     1       0.324   3.992  17.730  0.00  0.00    +0.000 HD
ATOM     10  H   UNL     1       2.127   0.779  19.195  0.00  0.00    +0.000 HD
ENDROOT
BRANCH   4  11
ATOM     11  C   UNL     1       2.272   5.720  18.332  0.00  0.00    +0.000 A 
ATOM     12  C   UNL     1       2.505   6.825  17.492  0.00  0.00    +0.000 A 
ATOM     13  C   UNL     1       2.489   8.132  17.992  0.00  0.00    +0.000 A 
ATOM     14  C   UNL     1       2.259   8.371  19.346  0.00  0.00    +0.000 A 
ATOM     15  C   UNL     1       2.012   7.307  20.204  0.00  0.00    +0.000 A 
ATOM     16  C   UNL     1       2.016   6.001  19.693  0.00  0.00    +0.000 A 
BRANCH  16  17
ATOM     17  N   UNL     1       1.775   4.930  20.650  0.00  0.00    +0.000 N 
ATOM     18  O   UNL     1       2.734   4.560  21.337  0.00  0.00    +0.000 OA
ATOM     19  O   UNL     1       0.629   4.466  20.698  0.00  0.00    +0.000 OA
ENDBRANCH  16  17
ENDBRANCH   4  11
BRANCH   3  20
ATOM     20  C   UNL     1       5.023   4.161  18.214  0.00  0.00    +0.000 C 
ATOM     21  O   UNL     1       5.559   4.565  19.248  0.00  0.00    +0.000 OA
BRANCH  20  22
ATOM     22  C   UNL     1       5.745   4.447  16.935  0.00  0.00    +0.000 A 
ATOM     23  C   UNL     1       5.078   4.132  15.735  0.00  0.00    +0.000 A 
ATOM     24  C   UNL     1       5.692   4.325  14.496  0.00  0.00    +0.000 A 
ATOM     25  C   UNL     1       6.992   4.814  14.437  0.00  0.00    +0.000 A 
ATOM     26  C   UNL     1       7.653   5.162  15.612  0.00  0.00    +0.000 A 
ATOM     27  C   UNL     1       7.015   5.023  16.850  0.00  0.00    +0.000 A 
ENDBRANCH  20  22
ENDBRANCH   3  20
TORSDOF 4
ENDMDL
MODEL 7
REMARK VINA RESULT:      -7.6      2.097      5.365
REMARK  Name = 
REMARK  5 active torsions:
REMARK  status: ('A' for Active; 'I' for Inactive)
REMARK    1  A    between atoms: C_1  and  C_2
REMARK    2  A    between atoms: C_3  and  C_4
REMARK    3  A    between atoms: C_4  and  C_6
REMARK    4  A    between atoms: C_12  and  C_13
REMARK    5  A    between atoms: C_18  and  N_19
REMARK                            x       y       z     vdW  Elec       q    Type
REMARK                         _______ _______ _______ _____ _____    ______ ____
ROOT
ATOM      1  C   UNL     1       4.571   1.397  19.357  0.00  0.00    +0.000 C 
ATOM      2  C   UNL     1       3.513   2.316  18.799  0.00  0.00    +0.000 C 
ATOM      3  C   UNL     1       3.636   3.565  18.280  0.00  0.00    +0.000 C 
ATOM      4  C   UNL     1       2.398   4.327  17.820  0.00  0.00    +0.000 C 
ATOM      5  N   UNL     1       1.169   3.616  18.112  0.00  0.00    +0.000 N 
ATOM      6  C   UNL     1       1.094   2.329  18.499  0.00  0.00    +0.000 C 
ATOM      7  O   UNL     1       0.025   1.732  18.559  0.00  0.00    +0.000 OA
ATOM      8  N   UNL     1       2.261   1.741  18.849  0.00  0.00    +0.000 N 
ATOM      9  H   UNL     1       0.296   3.985  17.752  0.00  0.00    +0.000 HD
ATOM     10  H   UNL     1       2.155   0.795  19.196  0.00  0.00    +0.000 HD
ENDROOT
BRANCH   4  11
ATOM     11  C   UNL     1       2.216   5.742  18.361  0.00  0.00    +0.000 A 
ATOM     12  C   UNL     1       2.418   6.855  17.524  0.00  0.00    +0.000 A 
ATOM     13  C   UNL     1       2.382   8.159  18.031  0.00  0.00    +0.000 A 
ATOM     14  C   UNL     1       2.162   8.388  19.388  0.00  0.00    +0.000 A 
ATOM     15  C   UNL     1       1.945   7.315  20.244  0.00  0.00    +0.000 A 
ATOM     16  C   UNL     1       1.970   6.012  19.727  0.00  0.00    +0.000 A 
BRANCH  16  17
ATOM     17  N   UNL     1       1.761   4.932  20.680  0.00  0.00    +0.000 N 
ATOM     18  O   UNL     1       0.629   4.440  20.740  0.00  0.00    +0.000 OA
ATOM     19  O   UNL     1       2.734   4.591  21.366  0.00  0.00    +0.000 OA
ENDBRANCH  16  17
ENDBRANCH   4  11
BRANCH   3  20
ATOM     20  C   UNL     1       4.993   4.230  18.230  0.00  0.00    +0.000 C 
ATOM     21  O   UNL     1       5.478   4.730  19.246  0.00  0.00    +0.000 OA
BRANCH  20  22
ATOM     22  C   UNL     1       5.762   4.425  16.961  0.00  0.00    +0.000 A 
ATOM     23  C   UNL     1       6.768   5.410  16.962  0.00  0.00    +0.000 A 
ATOM     24  C   UNL     1       7.506   5.689  15.810  0.00  0.00    +0.000 A 
ATOM     25  C   UNL     1       7.233   5.005  14.630  0.00  0.00    +0.000 A 
ATOM     26  C   UNL     1       6.264   4.005  14.621  0.00  0.00    +0.000 A 
ATOM     27  C   UNL     1       5.566   3.685  15.791  0.00  0.00    +0.000 A 
ENDBRANCH  20  22
ENDBRANCH   3  20
TORSDOF 4
ENDMDL
MODEL 8
REMARK VINA RESULT:      -7.5      1.539      1.978
REMARK  Name = 
REMARK  5 active torsions:
REMARK  status: ('A' for Active; 'I' for Inactive)
REMARK    1  A    between atoms: C_1  and  C_2
REMARK    2  A    between atoms: C_3  and  C_4
REMARK    3  A    between atoms: C_4  and  C_6
REMARK    4  A    between atoms: C_12  and  C_13
REMARK    5  A    between atoms: C_18  and  N_19
REMARK                            x       y       z     vdW  Elec       q    Type
REMARK                         _______ _______ _______ _____ _____    ______ ____
ROOT
ATOM      1  C   UNL     1       0.964   4.696  18.458  0.00  0.00    +0.000 C 
ATOM      2  C   UNL     1       2.389   4.228  18.292  0.00  0.00    +0.000 C 
ATOM      3  C   UNL     1       3.504   4.940  17.983  0.00  0.00    +0.000 C 
ATOM      4  C   UNL     1       4.842   4.229  17.818  0.00  0.00    +0.000 C 
ATOM      5  N   UNL     1       4.721   2.788  17.916  0.00  0.00    +0.000 N 
ATOM      6  C   UNL     1       3.631   2.132  18.356  0.00  0.00    +0.000 C 
ATOM      7  O   UNL     1       3.649   0.928  18.584  0.00  0.00    +0.000 OA
ATOM      8  N   UNL     1       2.507   2.871  18.502  0.00  0.00    +0.000 N 
ATOM      9  H   UNL     1       5.566   2.228  17.926  0.00  0.00    +0.000 HD
ATOM     10  H   UNL     1       1.694   2.330  18.773  0.00  0.00    +0.000 HD
ENDROOT
BRANCH   4  11
ATOM     11  C   UNL     1       5.622   4.511  16.537  0.00  0.00    +0.000 A 
ATOM     12  C   UNL     1       5.097   4.133  15.287  0.00  0.00    +0.000 A 
ATOM     13  C   UNL     1       5.849   4.266  14.114  0.00  0.00    +0.000 A 
ATOM     14  C   UNL     1       7.152   4.761  14.159  0.00  0.00    +0.000 A 
ATOM     15  C   UNL     1       7.700   5.157  15.373  0.00  0.00    +0.000 A 
ATOM     16  C   UNL     1       6.935   5.033  16.541  0.00  0.00    +0.000 A 
BRANCH  16  17
ATOM     17  N   UNL     1       7.577   5.441  17.783  0.00  0.00    +0.000 N 
ATOM     18  O   UNL     1       8.085   4.552  18.475  0.00  0.00    +0.000 OA
ATOM     19  O   UNL     1       7.561   6.648  18.055  0.00  0.00    +0.000 OA
ENDBRANCH  16  17
ENDBRANCH   4  11
BRANCH   3  20
ATOM     20  C   UNL     1       3.402   6.427  17.728  0.00  0.00    +0.000 C 
ATOM     21  O   UNL     1       4.107   6.958  16.869  0.00  0.00    +0.000 OA
BRANCH  20  22
ATOM     22  C   UNL     1       2.555   7.342  18.554  0.00  0.00    +0.000 A 
ATOM     23  C   UNL     1       1.948   8.428  17.894  0.00  0.00    +0.000 A 
ATOM     24  C   UNL     1       1.175   9.358  18.593  0.00  0.00    +0.000 A 
ATOM     25  C   UNL     1       1.016   9.230  19.969  0.00  0.00    +0.000 A 
ATOM     26  C   UNL     1       1.583   8.144  20.631  0.00  0.00    +0.000 A 
ATOM     27  C   UNL     1       2.308   7.181  19.919  0.00  0.00    +0.000 A 
ENDBRANCH  20  22
ENDBRANCH   3  20
TORSDOF 4
ENDMDL
MODEL 9
REMARK VINA RESULT:      -7.3      1.731      2.542
REMARK  Name = 
REMARK  5 active torsions:
REMARK  status: ('A' for Active; 'I' for Inactive)
REMARK    1  A    between atoms: C_1  and  C_2
REMARK    2  A    between atoms: C_3  and  C_4
REMARK    3  A    between atoms: C_4  and  C_6
REMARK    4  A    between atoms: C_12  and  C_13
REMARK    5  A    between atoms: C_18  and  N_19
REMARK                            x       y       z     vdW  Elec       q    Type
REMARK                         _______ _______ _______ _____ _____    ______ ____
ROOT
ATOM      1  C   UNL     1       0.954   4.150  20.406  0.00  0.00    +0.000 C 
ATOM      2  C   UNL     1       2.441   4.121  20.152  0.00  0.00    +0.000 C 
ATOM      3  C   UNL     1       3.219   4.993  19.461  0.00  0.00    +0.000 C 
ATOM      4  C   UNL     1       4.710   4.721  19.295  0.00  0.00    +0.000 C 
ATOM      5  N   UNL     1       5.104   3.437  19.840  0.00  0.00    +0.000 N 
ATOM      6  C   UNL     1       4.336   2.667  20.634  0.00  0.00    +0.000 C 
ATOM      7  O   UNL     1       4.785   1.680  21.208  0.00  0.00    +0.000 OA
ATOM      8  N   UNL     1       3.036   3.024  20.738  0.00  0.00    +0.000 N 
ATOM      9  H   UNL     1       6.090   3.206  19.877  0.00  0.00    +0.000 HD
ATOM     10  H   UNL     1       2.479   2.384  21.291  0.00  0.00    +0.000 HD
ENDROOT
BRANCH   4  11
ATOM     11  C   UNL     1       5.270   4.777  17.876  0.00  0.00    +0.000 A 
ATOM     12  C   UNL     1       6.276   5.703  17.544  0.00  0.00    +0.000 A 
ATOM     13  C   UNL     1       6.711   5.858  16.223  0.00  0.00    +0.000 A 
ATOM     14  C   UNL     1       6.143   5.106  15.195  0.00  0.00    +0.000 A 
ATOM     15  C   UNL     1       5.157   4.171  15.486  0.00  0.00    +0.000 A 
ATOM     16  C   UNL     1       4.735   4.013  16.814  0.00  0.00    +0.000 A 
BRANCH  16  17
ATOM     17  N   UNL     1       3.681   3.036  17.047  0.00  0.00    +0.000 N 
ATOM     18  O   UNL     1       3.998   1.987  17.617  0.00  0.00    +0.000 OA
ATOM     19  O   UNL     1       2.546   3.329  16.649  0.00  0.00    +0.000 OA
ENDBRANCH  16  17
ENDBRANCH   4  11
BRANCH   3  20
ATOM     20  C   UNL     1       2.592   6.194  18.790  0.00  0.00    +0.000 C 
ATOM     21  O   UNL     1       2.641   6.318  17.565  0.00  0.00    +0.000 OA
BRANCH  20  22
ATOM     22  C   UNL     1       1.995   7.336  19.551  0.00  0.00    +0.000 A 
ATOM     23  C   UNL     1       1.673   8.498  18.822  0.00  0.00    +0.000 A 
ATOM     24  C   UNL     1       1.152   9.627  19.457  0.00  0.00    +0.000 A 
ATOM     25  C   UNL     1       0.966   9.622  20.835  0.00  0.00    +0.000 A 
ATOM     26  C   UNL     1       1.248   8.471  21.565  0.00  0.00    +0.000 A 
ATOM     27  C   UNL     1       1.715   7.320  20.919  0.00  0.00    +0.000 A 
ENDBRANCH  20  22
ENDBRANCH   3  20
TORSDOF 4
ENDMDL
