MODEL 1
REMARK VINA RESULT:      -8.9      0.000      0.000
REMARK  Name = 
REMARK  9 active torsions:
REMARK  status: ('A' for Active; 'I' for Inactive)
REMARK    1  A    between atoms: C_1  and  C_2
REMARK    2  A    between atoms: C_2  and  C_3
REMARK    3  A    between atoms: C_2  and  N_4
REMARK    4  A    between atoms: C_5  and  C_7
REMARK    5  A    between atoms: C_9  and  C_10
REMARK    6  A    between atoms: C_16  and  C_18
REMARK    7  A    between atoms: C_18  and  C_19
REMARK    8  A    between atoms: C_19  and  C_20
REMARK    9  A    between atoms: C_20  and  C_21
REMARK                            x       y       z     vdW  Elec       q    Type
REMARK                         _______ _______ _______ _____ _____    ______ ____
ROOT
ATOM      1  C   UNL     1       4.123   3.979  18.900  0.00  0.00    +0.000 C 
ATOM      2  C   UNL     1       3.249   2.724  18.663  0.00  0.00    +0.000 C 
ATOM      3  C   UNL     1       2.250   2.464  19.784  0.00  0.00    +0.000 C 
ATOM      4  C   UNL     1       1.436   3.717  20.088  0.00  0.00    +0.000 C 
ATOM      5  C   UNL     1       2.363   4.891  20.374  0.00  0.00    +0.000 C 
ATOM      6  N   UNL     1       3.245   5.142  19.226  0.00  0.00    +0.000 N 
ATOM      7  C   UNL     1       3.392   6.398  18.641  0.00  0.00    +0.000 C 
ATOM      8  O   UNL     1       4.278   6.673  17.832  0.00  0.00    +0.000 OA
ENDROOT
BRANCH   1  11
ATOM      9  C   UNL     1       6.092   4.278  15.789  0.00  0.00    +0.000 A 
ATOM     10  C   UNL     1       4.828   4.016  16.361  0.00  0.00    +0.000 A 
ATOM     11  C   UNL     1       5.018   4.128  17.715  0.00  0.00    +0.000 A 
ATOM     12  O   UNL     1       6.335   4.386  17.953  0.00  0.00    +0.000 OA
ATOM     13  N   UNL     1       7.020   4.470  16.747  0.00  0.00    +0.000 NA
BRANCH   9  15
ATOM     14  N   UNL     1       5.712   3.435  13.572  0.00  0.00    +0.000 N 
ATOM     15  C   UNL     1       6.385   4.348  14.359  0.00  0.00    +0.000 C 
ATOM     16  O   UNL     1       7.176   5.169  13.896  0.00  0.00    +0.000 OA
ATOM     17  H   UNL     1       5.009   2.865  14.036  0.00  0.00    +0.000 HD
BRANCH  14  19
ATOM     18  C   UNL     1       6.813   2.262  11.732  0.00  0.00    +0.000 C 
ATOM     19  C   UNL     1       5.878   3.395  12.132  0.00  0.00    +0.000 C 
ATOM     20  C   UNL     1       4.531   3.266  11.428  0.00  0.00    +0.000 C 
ENDBRANCH  14  19
ENDBRANCH   9  15
ENDBRANCH   1  11
BRANCH   7  21
ATOM     21  C   UNL     1       2.407   7.497  19.017  0.00  0.00    +0.000 C 
BRANCH  21  22
ATOM     22  C   UNL     1       1.902   8.250  17.781  0.00  0.00    +0.000 C 
BRANCH  22  23
ATOM     23  C   UNL     1       1.981   9.771  17.978  0.00  0.00    +0.000 C 
BRANCH  23  24
ATOM     24  C   UNL     1       0.693  10.319  18.534  0.00  0.00    +0.000 A 
ATOM     25  C   UNL     1      -0.532  10.002  17.932  0.00  0.00    +0.000 A 
ATOM     26  C   UNL     1      -1.718  10.562  18.413  0.00  0.00    +0.000 A 
ATOM     27  C   UNL     1      -1.686  11.440  19.496  0.00  0.00    +0.000 A 
ATOM     28  C   UNL     1      -0.474  11.749  20.107  0.00  0.00    +0.000 A 
ATOM     29  C   UNL     1       0.712  11.191  19.629  0.00  0.00    +0.000 A 
ENDBRANCH  23  24
ENDBRANCH  22  23
ENDBRANCH  21  22
ENDBRANCH   7  21
TORSDOF 7
ENDMDL
MODEL 2
REMARK VINA RESULT:      -8.7      0.545      1.023
REMARK  Name = 
REMARK  9 active torsions:
REMARK  status: ('A' for Active; 'I' for Inactive)
REMARK    1  A    between atoms: C_1  and  C_2
REMARK    2  A    between atoms: C_2  and  C_3
REMARK    3  A    between atoms: C_2  and  N_4
REMARK    4  A    between atoms: C_5  and  C_7
REMARK    5  A    between atoms: C_9  and  C_10
REMARK    6  A    between atoms: C_16  and  C_18
REMARK    7  A    between atoms: C_18  and  C_19
REMARK    8  A    between atoms: C_19  and  C_20
REMARK    9  A    between atoms: C_20  and  C_21
REMARK                            x       y       z     vdW  Elec       q    Type
REMARK                         _______ _______ _______ _____ _____    ______ ____
ROOT
ATOM      1  C   UNL     1       4.617   4.006  18.971  0.00  0.00    +0.000 C 
ATOM      2  C   UNL     1       3.951   2.612  18.880  0.00  0.00    +0.000 C 
ATOM      3  C   UNL     1       3.055   2.294  20.070  0.00  0.00    +0.000 C 
ATOM      4  C   UNL     1       2.062   3.422  20.320  0.00  0.00    +0.000 C 
ATOM      5  C   UNL     1       2.795   4.749  20.463  0.00  0.00    +0.000 C 
ATOM      6  N   UNL     1       3.576   5.038  19.253  0.00  0.00    +0.000 N 
ATOM      7  C   UNL     1       3.491   6.247  18.564  0.00  0.00    +0.000 C 
ATOM      8  O   UNL     1       4.286   6.589  17.690  0.00  0.00    +0.000 OA
ENDROOT
BRANCH   1  11
ATOM      9  C   UNL     1       6.371   4.375  15.740  0.00  0.00    +0.000 A 
ATOM     10  C   UNL     1       5.170   4.021  16.394  0.00  0.00    +0.000 A 
ATOM     11  C   UNL     1       5.426   4.194  17.730  0.00  0.00    +0.000 A 
ATOM     12  O   UNL     1       6.727   4.575  17.881  0.00  0.00    +0.000 OA
ATOM     13  N   UNL     1       7.331   4.679  16.634  0.00  0.00    +0.000 NA
BRANCH   9  15
ATOM     14  N   UNL     1       5.879   3.476  13.567  0.00  0.00    +0.000 N 
ATOM     15  C   UNL     1       6.574   4.422  14.294  0.00  0.00    +0.000 C 
ATOM     16  O   UNL     1       7.313   5.254  13.767  0.00  0.00    +0.000 OA
ATOM     17  H   UNL     1       5.222   2.898  14.083  0.00  0.00    +0.000 HD
BRANCH  14  19
ATOM     18  C   UNL     1       6.859   2.264  11.685  0.00  0.00    +0.000 C 
ATOM     19  C   UNL     1       5.958   3.411  12.120  0.00  0.00    +0.000 C 
ATOM     20  C   UNL     1       4.570   3.281  11.500  0.00  0.00    +0.000 C 
ENDBRANCH  14  19
ENDBRANCH   9  15
ENDBRANCH   1  11
BRANCH   7  21
ATOM     21  C   UNL     1       2.356   7.203  18.907  0.00  0.00    +0.000 C 
BRANCH  21  22
ATOM     22  C   UNL     1       2.499   8.538  18.167  0.00  0.00    +0.000 C 
BRANCH  22  23
ATOM     23  C   UNL     1       1.166   8.981  17.546  0.00  0.00    +0.000 C 
BRANCH  23  24
ATOM     24  C   UNL     1       0.415   9.907  18.465  0.00  0.00    +0.000 A 
ATOM     25  C   UNL     1       0.979  10.314  19.681  0.00  0.00    +0.000 A 
ATOM     26  C   UNL     1       0.254  11.122  20.559  0.00  0.00    +0.000 A 
ATOM     27  C   UNL     1      -1.037  11.530  20.226  0.00  0.00    +0.000 A 
ATOM     28  C   UNL     1      -1.600  11.141  19.013  0.00  0.00    +0.000 A 
ATOM     29  C   UNL     1      -0.877  10.332  18.135  0.00  0.00    +0.000 A 
ENDBRANCH  23  24
ENDBRANCH  22  23
ENDBRANCH  21  22
ENDBRANCH   7  21
TORSDOF 7
ENDMDL
MODEL 3
REMARK VINA RESULT:      -8.7      1.019      1.502
REMARK  Name = 
REMARK  9 active torsions:
REMARK  status: ('A' for Active; 'I' for Inactive)
REMARK    1  A    between atoms: C_1  and  C_2
REMARK    2  A    between atoms: C_2  and  C_3
REMARK    3  A    between atoms: C_2  and  N_4
REMARK    4  A    between atoms: C_5  and  C_7
REMARK    5  A    between atoms: C_9  and  C_10
REMARK    6  A    between atoms: C_16  and  C_18
REMARK    7  A    between atoms: C_18  and  C_19
REMARK    8  A    between atoms: C_19  and  C_20
REMARK    9  A    between atoms: C_20  and  C_21
REMARK                            x       y       z     vdW  Elec       q    Type
REMARK                         _______ _______ _______ _____ _____    ______ ____
ROOT
ATOM      1  C   UNL     1       4.780   4.241  18.867  0.00  0.00    +0.000 C 
ATOM      2  C   UNL     1       4.168   2.819  18.866  0.00  0.00    +0.000 C 
ATOM      3  C   UNL     1       3.303   2.534  20.088  0.00  0.00    +0.000 C 
ATOM      4  C   UNL     1       2.269   3.635  20.290  0.00  0.00    +0.000 C 
ATOM      5  C   UNL     1       2.952   4.996  20.346  0.00  0.00    +0.000 C 
ATOM      6  N   UNL     1       3.703   5.246  19.109  0.00  0.00    +0.000 N 
ATOM      7  C   UNL     1       3.560   6.409  18.355  0.00  0.00    +0.000 C 
ATOM      8  O   UNL     1       4.328   6.732  17.450  0.00  0.00    +0.000 OA
ENDROOT
BRANCH   1  11
ATOM      9  C   UNL     1       6.474   4.485  15.593  0.00  0.00    +0.000 A 
ATOM     10  C   UNL     1       5.304   4.106  16.288  0.00  0.00    +0.000 A 
ATOM     11  C   UNL     1       5.563   4.389  17.605  0.00  0.00    +0.000 A 
ATOM     12  O   UNL     1       6.838   4.861  17.710  0.00  0.00    +0.000 OA
ATOM     13  N   UNL     1       7.422   4.912  16.450  0.00  0.00    +0.000 NA
BRANCH   9  15
ATOM     14  N   UNL     1       5.866   3.531  13.474  0.00  0.00    +0.000 N 
ATOM     15  C   UNL     1       6.659   4.442  14.145  0.00  0.00    +0.000 C 
ATOM     16  O   UNL     1       7.465   5.173  13.569  0.00  0.00    +0.000 OA
ATOM     17  H   UNL     1       5.166   3.044  14.026  0.00  0.00    +0.000 HD
BRANCH  14  19
ATOM     18  C   UNL     1       6.815   2.222  11.641  0.00  0.00    +0.000 C 
ATOM     19  C   UNL     1       5.917   3.388  12.031  0.00  0.00    +0.000 C 
ATOM     20  C   UNL     1       4.518   3.219  11.448  0.00  0.00    +0.000 C 
ENDBRANCH  14  19
ENDBRANCH   9  15
ENDBRANCH   1  11
BRANCH   7  21
ATOM     21  C   UNL     1       2.393   7.339  18.663  0.00  0.00    +0.000 C 
BRANCH  21  22
ATOM     22  C   UNL     1       2.403   8.576  17.759  0.00  0.00    +0.000 C 
BRANCH  22  23
ATOM     23  C   UNL     1       1.128   9.413  17.939  0.00  0.00    +0.000 C 
BRANCH  23  24
ATOM     24  C   UNL     1       1.423  10.719  18.629  0.00  0.00    +0.000 A 
ATOM     25  C   UNL     1       0.810  11.033  19.849  0.00  0.00    +0.000 A 
ATOM     26  C   UNL     1       1.038  12.270  20.453  0.00  0.00    +0.000 A 
ATOM     27  C   UNL     1       1.879  13.200  19.844  0.00  0.00    +0.000 A 
ATOM     28  C   UNL     1       2.503  12.890  18.638  0.00  0.00    +0.000 A 
ATOM     29  C   UNL     1       2.276  11.654  18.031  0.00  0.00    +0.000 A 
ENDBRANCH  23  24
ENDBRANCH  22  23
ENDBRANCH  21  22
ENDBRANCH   7  21
TORSDOF 7
ENDMDL
MODEL 4
REMARK VINA RESULT:      -8.5      0.902      1.385
REMARK  Name = 
REMARK  9 active torsions:
REMARK  status: ('A' for Active; 'I' for Inactive)
REMARK    1  A    between atoms: C_1  and  C_2
REMARK    2  A    between atoms: C_2  and  C_3
REMARK    3  A    between atoms: C_2  and  N_4
REMARK    4  A    between atoms: C_5  and  C_7
REMARK    5  A    between atoms: C_9  and  C_10
REMARK    6  A    between atoms: C_16  and  C_18
REMARK    7  A    between atoms: C_18  and  C_19
REMARK    8  A    between atoms: C_19  and  C_20
REMARK    9  A    between atoms: C_20  and  C_21
REMARK                            x       y       z     vdW  Elec       q    Type
REMARK                         _______ _______ _______ _____ _____    ______ ____
ROOT
ATOM      1  C   UNL     1       4.091   3.939  18.880  0.00  0.00    +0.000 C 
ATOM      2  C   UNL     1       3.217   2.687  18.620  0.00  0.00    +0.000 C 
ATOM      3  C   UNL     1       2.215   2.411  19.733  0.00  0.00    +0.000 C 
ATOM      4  C   UNL     1       1.401   3.659  20.054  0.00  0.00    +0.000 C 
ATOM      5  C   UNL     1       2.327   4.828  20.362  0.00  0.00    +0.000 C 
ATOM      6  N   UNL     1       3.213   5.096  19.221  0.00  0.00    +0.000 N 
ATOM      7  C   UNL     1       3.362   6.361  18.656  0.00  0.00    +0.000 C 
ATOM      8  O   UNL     1       4.251   6.649  17.854  0.00  0.00    +0.000 OA
ENDROOT
BRANCH   1  11
ATOM      9  C   UNL     1       6.073   4.277  15.780  0.00  0.00    +0.000 A 
ATOM     10  C   UNL     1       4.811   3.987  16.345  0.00  0.00    +0.000 A 
ATOM     11  C   UNL     1       4.990   4.106  17.700  0.00  0.00    +0.000 A 
ATOM     12  O   UNL     1       6.300   4.396  17.945  0.00  0.00    +0.000 OA
ATOM     13  N   UNL     1       6.990   4.493  16.743  0.00  0.00    +0.000 NA
BRANCH   9  15
ATOM     14  N   UNL     1       5.686   3.456  13.556  0.00  0.00    +0.000 N 
ATOM     15  C   UNL     1       6.374   4.351  14.352  0.00  0.00    +0.000 C 
ATOM     16  O   UNL     1       7.182   5.159  13.898  0.00  0.00    +0.000 OA
ATOM     17  H   UNL     1       4.971   2.896  14.013  0.00  0.00    +0.000 HD
BRANCH  14  19
ATOM     18  C   UNL     1       6.819   2.311  11.718  0.00  0.00    +0.000 C 
ATOM     19  C   UNL     1       5.857   3.422  12.116  0.00  0.00    +0.000 C 
ATOM     20  C   UNL     1       4.516   3.264  11.408  0.00  0.00    +0.000 C 
ENDBRANCH  14  19
ENDBRANCH   9  15
ENDBRANCH   1  11
BRANCH   7  21
ATOM     21  C   UNL     1       2.376   7.455  19.046  0.00  0.00    +0.000 C 
BRANCH  21  22
ATOM     22  C   UNL     1       2.281   8.541  17.969  0.00  0.00    +0.000 C 
BRANCH  22  23
ATOM     23  C   UNL     1       0.932   9.273  18.025  0.00  0.00    +0.000 C 
BRANCH  23  24
ATOM     24  C   UNL     1       1.119  10.749  18.261  0.00  0.00    +0.000 A 
ATOM     25  C   UNL     1       2.346  11.364  17.979  0.00  0.00    +0.000 A 
ATOM     26  C   UNL     1       2.534  12.719  18.258  0.00  0.00    +0.000 A 
ATOM     27  C   UNL     1       1.500  13.466  18.819  0.00  0.00    +0.000 A 
ATOM     28  C   UNL     1       0.273  12.865  19.090  0.00  0.00    +0.000 A 
ATOM     29  C   UNL     1       0.082  11.511  18.813  0.00  0.00    +0.000 A 
ENDBRANCH  23  24
ENDBRANCH  22  23
ENDBRANCH  21  22
ENDBRANCH   7  21
TORSDOF 7
ENDMDL
MODEL 5
REMARK VINA RESULT:      -8.3      1.398      1.754
REMARK  Name = 
REMARK  9 active torsions:
REMARK  status: ('A' for Active; 'I' for Inactive)
REMARK    1  A    between atoms: C_1  and  C_2
REMARK    2  A    between atoms: C_2  and  C_3
REMARK    3  A    between atoms: C_2  and  N_4
REMARK    4  A    between atoms: C_5  and  C_7
REMARK    5  A    between atoms: C_9  and  C_10
REMARK    6  A    between atoms: C_16  and  C_18
REMARK    7  A    between atoms: C_18  and  C_19
REMARK    8  A    between atoms: C_19  and  C_20
REMARK    9  A    between atoms: C_20  and  C_21
REMARK                            x       y       z     vdW  Elec       q    Type
REMARK                         _______ _______ _______ _____ _____    ______ ____
ROOT
ATOM      1  C   UNL     1       4.809   4.345  18.880  0.00  0.00    +0.000 C 
ATOM      2  C   UNL     1       4.417   2.849  18.956  0.00  0.00    +0.000 C 
ATOM      3  C   UNL     1       3.584   2.506  20.184  0.00  0.00    +0.000 C 
ATOM      4  C   UNL     1       2.394   3.449  20.314  0.00  0.00    +0.000 C 
ATOM      5  C   UNL     1       2.864   4.898  20.298  0.00  0.00    +0.000 C 
ATOM      6  N   UNL     1       3.590   5.188  19.054  0.00  0.00    +0.000 N 
ATOM      7  C   UNL     1       3.288   6.273  18.234  0.00  0.00    +0.000 C 
ATOM      8  O   UNL     1       4.014   6.657  17.317  0.00  0.00    +0.000 OA
ENDROOT
BRANCH   1  11
ATOM      9  C   UNL     1       6.494   4.671  15.609  0.00  0.00    +0.000 A 
ATOM     10  C   UNL     1       5.366   4.190  16.309  0.00  0.00    +0.000 A 
ATOM     11  C   UNL     1       5.582   4.539  17.618  0.00  0.00    +0.000 A 
ATOM     12  O   UNL     1       6.799   5.147  17.715  0.00  0.00    +0.000 OA
ATOM     13  N   UNL     1       7.384   5.223  16.457  0.00  0.00    +0.000 NA
BRANCH   9  15
ATOM     14  N   UNL     1       5.925   3.669  13.501  0.00  0.00    +0.000 N 
ATOM     15  C   UNL     1       6.695   4.605  14.163  0.00  0.00    +0.000 C 
ATOM     16  O   UNL     1       7.495   5.338  13.583  0.00  0.00    +0.000 OA
ATOM     17  H   UNL     1       5.226   3.181  14.055  0.00  0.00    +0.000 HD
BRANCH  14  19
ATOM     18  C   UNL     1       6.915   2.344  11.702  0.00  0.00    +0.000 C 
ATOM     19  C   UNL     1       5.993   3.501  12.062  0.00  0.00    +0.000 C 
ATOM     20  C   UNL     1       4.603   3.297  11.468  0.00  0.00    +0.000 C 
ENDBRANCH  14  19
ENDBRANCH   9  15
ENDBRANCH   1  11
BRANCH   7  21
ATOM     21  C   UNL     1       1.990   7.032  18.477  0.00  0.00    +0.000 C 
BRANCH  21  22
ATOM     22  C   UNL     1       2.106   7.980  19.676  0.00  0.00    +0.000 C 
BRANCH  22  23
ATOM     23  C   UNL     1       1.331   9.285  19.438  0.00  0.00    +0.000 C 
BRANCH  23  24
ATOM     24  C   UNL     1       0.622   9.737  20.687  0.00  0.00    +0.000 A 
ATOM     25  C   UNL     1       0.885   9.119  21.917  0.00  0.00    +0.000 A 
ATOM     26  C   UNL     1       0.181   9.499  23.060  0.00  0.00    +0.000 A 
ATOM     27  C   UNL     1      -0.789  10.498  22.983  0.00  0.00    +0.000 A 
ATOM     28  C   UNL     1      -1.046  11.126  21.767  0.00  0.00    +0.000 A 
ATOM     29  C   UNL     1      -0.344  10.748  20.622  0.00  0.00    +0.000 A 
ENDBRANCH  23  24
ENDBRANCH  22  23
ENDBRANCH  21  22
ENDBRANCH   7  21
TORSDOF 7
ENDMDL
MODEL 6
REMARK VINA RESULT:      -8.1      0.916      1.307
REMARK  Name = 
REMARK  9 active torsions:
REMARK  status: ('A' for Active; 'I' for Inactive)
REMARK    1  A    between atoms: C_1  and  C_2
REMARK    2  A    between atoms: C_2  and  C_3
REMARK    3  A    between atoms: C_2  and  N_4
REMARK    4  A    between atoms: C_5  and  C_7
REMARK    5  A    between atoms: C_9  and  C_10
REMARK    6  A    between atoms: C_16  and  C_18
REMARK    7  A    between atoms: C_18  and  C_19
REMARK    8  A    between atoms: C_19  and  C_20
REMARK    9  A    between atoms: C_20  and  C_21
REMARK                            x       y       z     vdW  Elec       q    Type
REMARK                         _______ _______ _______ _____ _____    ______ ____
ROOT
ATOM      1  C   UNL     1       4.798   4.763  18.738  0.00  0.00    +0.000 C 
ATOM      2  C   UNL     1       4.455   3.262  18.902  0.00  0.00    +0.000 C 
ATOM      3  C   UNL     1       3.645   2.963  20.158  0.00  0.00    +0.000 C 
ATOM      4  C   UNL     1       2.426   3.873  20.247  0.00  0.00    +0.000 C 
ATOM      5  C   UNL     1       2.849   5.333  20.143  0.00  0.00    +0.000 C 
ATOM      6  N   UNL     1       3.553   5.575  18.877  0.00  0.00    +0.000 N 
ATOM      7  C   UNL     1       3.208   6.601  17.999  0.00  0.00    +0.000 C 
ATOM      8  O   UNL     1       3.913   6.955  17.054  0.00  0.00    +0.000 OA
ENDROOT
BRANCH   1  11
ATOM      9  C   UNL     1       6.469   4.915  15.446  0.00  0.00    +0.000 A 
ATOM     10  C   UNL     1       5.425   4.350  16.211  0.00  0.00    +0.000 A 
ATOM     11  C   UNL     1       5.552   4.908  17.458  0.00  0.00    +0.000 A 
ATOM     12  O   UNL     1       6.646   5.722  17.464  0.00  0.00    +0.000 OA
ATOM     13  N   UNL     1       7.236   5.722  16.206  0.00  0.00    +0.000 NA
BRANCH   9  15
ATOM     14  N   UNL     1       5.872   3.762  13.426  0.00  0.00    +0.000 N 
ATOM     15  C   UNL     1       6.708   4.684  14.024  0.00  0.00    +0.000 C 
ATOM     16  O   UNL     1       7.593   5.277  13.408  0.00  0.00    +0.000 OA
ATOM     17  H   UNL     1       5.112   3.399  13.996  0.00  0.00    +0.000 HD
BRANCH  14  19
ATOM     18  C   UNL     1       6.862   2.229  11.800  0.00  0.00    +0.000 C 
ATOM     19  C   UNL     1       5.968   3.443  12.014  0.00  0.00    +0.000 C 
ATOM     20  C   UNL     1       4.587   3.218  11.407  0.00  0.00    +0.000 C 
ENDBRANCH  14  19
ENDBRANCH   9  15
ENDBRANCH   1  11
BRANCH   7  21
ATOM     21  C   UNL     1       1.889   7.331  18.214  0.00  0.00    +0.000 C 
BRANCH  21  22
ATOM     22  C   UNL     1       2.110   8.774  18.678  0.00  0.00    +0.000 C 
BRANCH  22  23
ATOM     23  C   UNL     1       1.205   9.127  19.868  0.00  0.00    +0.000 C 
BRANCH  23  24
ATOM     24  C   UNL     1       0.116  10.085  19.462  0.00  0.00    +0.000 A 
ATOM     25  C   UNL     1      -0.326  11.075  20.349  0.00  0.00    +0.000 A 
ATOM     26  C   UNL     1      -1.378  11.921  19.992  0.00  0.00    +0.000 A 
ATOM     27  C   UNL     1      -1.993  11.784  18.748  0.00  0.00    +0.000 A 
ATOM     28  C   UNL     1      -1.550  10.810  17.856  0.00  0.00    +0.000 A 
ATOM     29  C   UNL     1      -0.499   9.963  18.210  0.00  0.00    +0.000 A 
ENDBRANCH  23  24
ENDBRANCH  22  23
ENDBRANCH  21  22
ENDBRANCH   7  21
TORSDOF 7
ENDMDL
MODEL 7
REMARK VINA RESULT:      -7.9      1.535      1.947
REMARK  Name = 
REMARK  9 active torsions:
REMARK  status: ('A' for Active; 'I' for Inactive)
REMARK    1  A    between atoms: C_1  and  C_2
REMARK    2  A    between atoms: C_2  and  C_3
REMARK    3  A    between atoms: C_2  and  N_4
REMARK    4  A    between atoms: C_5  and  C_7
REMARK    5  A    between atoms: C_9  and  C_10
REMARK    6  A    between atoms: C_16  and  C_18
REMARK    7  A    between atoms: C_18  and  C_19
REMARK    8  A    between atoms: C_19  and  C_20
REMARK    9  A    between atoms: C_20  and  C_21
REMARK                            x       y       z     vdW  Elec       q    Type
REMARK                         _______ _______ _______ _____ _____    ______ ____
ROOT
ATOM      1  C   UNL     1       4.316   5.187  19.105  0.00  0.00    +0.000 C 
ATOM      2  C   UNL     1       3.816   3.726  19.213  0.00  0.00    +0.000 C 
ATOM      3  C   UNL     1       2.768   3.526  20.301  0.00  0.00    +0.000 C 
ATOM      4  C   UNL     1       1.640   4.541  20.162  0.00  0.00    +0.000 C 
ATOM      5  C   UNL     1       2.204   5.956  20.128  0.00  0.00    +0.000 C 
ATOM      6  N   UNL     1       3.144   6.107  19.011  0.00  0.00    +0.000 N 
ATOM      7  C   UNL     1       3.057   7.140  18.079  0.00  0.00    +0.000 C 
ATOM      8  O   UNL     1       3.950   7.411  17.277  0.00  0.00    +0.000 OA
ENDROOT
BRANCH   1  11
ATOM      9  C   UNL     1       6.560   5.123  16.171  0.00  0.00    +0.000 A 
ATOM     10  C   UNL     1       5.345   4.673  16.734  0.00  0.00    +0.000 A 
ATOM     11  C   UNL     1       5.299   5.238  17.984  0.00  0.00    +0.000 A 
ATOM     12  O   UNL     1       6.447   5.944  18.188  0.00  0.00    +0.000 OA
ATOM     13  N   UNL     1       7.252   5.866  17.057  0.00  0.00    +0.000 NA
BRANCH   9  15
ATOM     14  N   UNL     1       6.239   3.982  14.082  0.00  0.00    +0.000 N 
ATOM     15  C   UNL     1       7.028   4.847  14.815  0.00  0.00    +0.000 C 
ATOM     16  O   UNL     1       8.054   5.355  14.364  0.00  0.00    +0.000 OA
ATOM     17  H   UNL     1       5.363   3.692  14.509  0.00  0.00    +0.000 HD
BRANCH  14  19
ATOM     18  C   UNL     1       5.305   3.190  11.967  0.00  0.00    +0.000 C 
ATOM     19  C   UNL     1       6.558   3.629  12.712  0.00  0.00    +0.000 C 
ATOM     20  C   UNL     1       7.244   4.786  11.993  0.00  0.00    +0.000 C 
ENDBRANCH  14  19
ENDBRANCH   9  15
ENDBRANCH   1  11
BRANCH   7  21
ATOM     21  C   UNL     1       1.792   7.987  18.046  0.00  0.00    +0.000 C 
BRANCH  21  22
ATOM     22  C   UNL     1       1.714   8.935  19.247  0.00  0.00    +0.000 C 
BRANCH  22  23
ATOM     23  C   UNL     1       0.486   9.854  19.160  0.00  0.00    +0.000 C 
BRANCH  23  24
ATOM     24  C   UNL     1      -0.091  10.129  20.524  0.00  0.00    +0.000 A 
ATOM     25  C   UNL     1      -0.754  11.335  20.785  0.00  0.00    +0.000 A 
ATOM     26  C   UNL     1      -1.232  11.612  22.067  0.00  0.00    +0.000 A 
ATOM     27  C   UNL     1      -1.050  10.686  23.094  0.00  0.00    +0.000 A 
ATOM     28  C   UNL     1      -0.403   9.480  22.839  0.00  0.00    +0.000 A 
ATOM     29  C   UNL     1       0.076   9.201  21.559  0.00  0.00    +0.000 A 
ENDBRANCH  23  24
ENDBRANCH  22  23
ENDBRANCH  21  22
ENDBRANCH   7  21
TORSDOF 7
ENDMDL
MODEL 8
REMARK VINA RESULT:      -7.8      1.186      1.351
REMARK  Name = 
REMARK  9 active torsions:
REMARK  status: ('A' for Active; 'I' for Inactive)
REMARK    1  A    between atoms: C_1  and  C_2
REMARK    2  A    between atoms: C_2  and  C_3
REMARK    3  A    between atoms: C_2  and  N_4
REMARK    4  A    between atoms: C_5  and  C_7
REMARK    5  A    between atoms: C_9  and  C_10
REMARK    6  A    between atoms: C_16  and  C_18
REMARK    7  A    between atoms: C_18  and  C_19
REMARK    8  A    between atoms: C_19  and  C_20
REMARK    9  A    between atoms: C_20  and  C_21
REMARK                            x       y       z     vdW  Elec       q    Type
REMARK                         _______ _______ _______ _____ _____    ______ ____
ROOT
ATOM      1  C   UNL     1       4.514   4.272  18.929  0.00  0.00    +0.000 C 
ATOM      2  C   UNL     1       3.897   2.853  18.945  0.00  0.00    +0.000 C 
ATOM      3  C   UNL     1       2.983   2.607  20.140  0.00  0.00    +0.000 C 
ATOM      4  C   UNL     1       1.946   3.716  20.268  0.00  0.00    +0.000 C 
ATOM      5  C   UNL     1       2.631   5.076  20.310  0.00  0.00    +0.000 C 
ATOM      6  N   UNL     1       3.431   5.287  19.097  0.00  0.00    +0.000 N 
ATOM      7  C   UNL     1       3.323   6.428  18.304  0.00  0.00    +0.000 C 
ATOM      8  O   UNL     1       4.128   6.721  17.420  0.00  0.00    +0.000 OA
ENDROOT
BRANCH   1  11
ATOM      9  C   UNL     1       6.320   4.465  15.712  0.00  0.00    +0.000 A 
ATOM     10  C   UNL     1       5.087   4.222  16.357  0.00  0.00    +0.000 A 
ATOM     11  C   UNL     1       5.346   4.381  17.695  0.00  0.00    +0.000 A 
ATOM     12  O   UNL     1       6.673   4.648  17.855  0.00  0.00    +0.000 OA
ATOM     13  N   UNL     1       7.295   4.691  16.613  0.00  0.00    +0.000 NA
BRANCH   9  15
ATOM     14  N   UNL     1       5.795   3.574  13.543  0.00  0.00    +0.000 N 
ATOM     15  C   UNL     1       6.539   4.485  14.267  0.00  0.00    +0.000 C 
ATOM     16  O   UNL     1       7.331   5.265  13.740  0.00  0.00    +0.000 OA
ATOM     17  H   UNL     1       5.100   3.042  14.059  0.00  0.00    +0.000 HD
BRANCH  14  19
ATOM     18  C   UNL     1       6.904   2.438  11.685  0.00  0.00    +0.000 C 
ATOM     19  C   UNL     1       5.883   3.489  12.098  0.00  0.00    +0.000 C 
ATOM     20  C   UNL     1       4.519   3.198  11.481  0.00  0.00    +0.000 C 
ENDBRANCH  14  19
ENDBRANCH   9  15
ENDBRANCH   1  11
BRANCH   7  21
ATOM     21  C   UNL     1       2.149   7.369  18.537  0.00  0.00    +0.000 C 
BRANCH  21  22
ATOM     22  C   UNL     1       2.185   8.566  17.580  0.00  0.00    +0.000 C 
BRANCH  22  23
ATOM     23  C   UNL     1       1.823   9.873  18.301  0.00  0.00    +0.000 C 
BRANCH  23  24
ATOM     24  C   UNL     1       1.091   9.603  19.589  0.00  0.00    +0.000 A 
ATOM     25  C   UNL     1      -0.255   9.965  19.730  0.00  0.00    +0.000 A 
ATOM     26  C   UNL     1      -0.912   9.770  20.946  0.00  0.00    +0.000 A 
ATOM     27  C   UNL     1      -0.229   9.212  22.027  0.00  0.00    +0.000 A 
ATOM     28  C   UNL     1       1.105   8.838  21.890  0.00  0.00    +0.000 A 
ATOM     29  C   UNL     1       1.764   9.032  20.675  0.00  0.00    +0.000 A 
ENDBRANCH  23  24
ENDBRANCH  22  23
ENDBRANCH  21  22
ENDBRANCH   7  21
TORSDOF 7
ENDMDL
MODEL 9
REMARK VINA RESULT:      -7.5      1.236      1.390
REMARK  Name = 
REMARK  9 active torsions:
REMARK  status: ('A' for Active; 'I' for Inactive)
REMARK    1  A    between atoms: C_1  and  C_2
REMARK    2  A    between atoms: C_2  and  C_3
REMARK    3  A    between atoms: C_2  and  N_4
REMARK    4  A    between atoms: C_5  and  C_7
REMARK    5  A    between atoms: C_9  and  C_10
REMARK    6  A    between atoms: C_16  and  C_18
REMARK    7  A    between atoms: C_18  and  C_19
REMARK    8  A    between atoms: C_19  and  C_20
REMARK    9  A    between atoms: C_20  and  C_21
REMARK                            x       y       z     vdW  Elec       q    Type
REMARK                         _______ _______ _______ _____ _____    ______ ____
ROOT
ATOM      1  C   UNL     1       4.547   4.660  18.323  0.00  0.00    +0.000 C 
ATOM      2  C   UNL     1       3.565   3.464  18.386  0.00  0.00    +0.000 C 
ATOM      3  C   UNL     1       2.687   3.471  19.631  0.00  0.00    +0.000 C 
ATOM      4  C   UNL     1       2.004   4.822  19.807  0.00  0.00    +0.000 C 
ATOM      5  C   UNL     1       3.039   5.941  19.800  0.00  0.00    +0.000 C 
ATOM      6  N   UNL     1       3.797   5.931  18.542  0.00  0.00    +0.000 N 
ATOM      7  C   UNL     1       3.963   7.063  17.747  0.00  0.00    +0.000 C 
ATOM      8  O   UNL     1       4.767   7.130  16.817  0.00  0.00    +0.000 OA
ENDROOT
BRANCH   1  11
ATOM      9  C   UNL     1       6.165   4.270  15.024  0.00  0.00    +0.000 A 
ATOM     10  C   UNL     1       4.972   4.153  15.772  0.00  0.00    +0.000 A 
ATOM     11  C   UNL     1       5.307   4.543  17.044  0.00  0.00    +0.000 A 
ATOM     12  O   UNL     1       6.640   4.826  17.078  0.00  0.00    +0.000 OA
ATOM     13  N   UNL     1       7.190   4.645  15.815  0.00  0.00    +0.000 NA
BRANCH   9  15
ATOM     14  N   UNL     1       5.262   3.337  13.003  0.00  0.00    +0.000 N 
ATOM     15  C   UNL     1       6.301   4.034  13.589  0.00  0.00    +0.000 C 
ATOM     16  O   UNL     1       7.275   4.435  12.953  0.00  0.00    +0.000 OA
ATOM     17  H   UNL     1       4.460   3.134  13.594  0.00  0.00    +0.000 HD
BRANCH  14  19
ATOM     18  C   UNL     1       5.928   1.718  11.298  0.00  0.00    +0.000 C 
ATOM     19  C   UNL     1       5.240   3.046  11.582  0.00  0.00    +0.000 C 
ATOM     20  C   UNL     1       3.813   3.048  11.044  0.00  0.00    +0.000 C 
ENDBRANCH  14  19
ENDBRANCH   9  15
ENDBRANCH   1  11
BRANCH   7  21
ATOM     21  C   UNL     1       3.108   8.290  18.036  0.00  0.00    +0.000 C 
BRANCH  21  22
ATOM     22  C   UNL     1       1.628   8.032  17.733  0.00  0.00    +0.000 C 
BRANCH  22  23
ATOM     23  C   UNL     1       0.855   9.346  17.545  0.00  0.00    +0.000 C 
BRANCH  23  24
ATOM     24  C   UNL     1       0.869  10.174  18.803  0.00  0.00    +0.000 A 
ATOM     25  C   UNL     1       0.310   9.677  19.987  0.00  0.00    +0.000 A 
ATOM     26  C   UNL     1       0.269  10.472  21.134  0.00  0.00    +0.000 A 
ATOM     27  C   UNL     1       0.786  11.766  21.104  0.00  0.00    +0.000 A 
ATOM     28  C   UNL     1       1.355  12.263  19.934  0.00  0.00    +0.000 A 
ATOM     29  C   UNL     1       1.397  11.471  18.787  0.00  0.00    +0.000 A 
ENDBRANCH  23  24
ENDBRANCH  22  23
ENDBRANCH  21  22
ENDBRANCH   7  21
TORSDOF 7
ENDMDL
