MODEL 1
REMARK VINA RESULT:      -6.2      0.000      0.000
REMARK  Name = 
REMARK  5 active torsions:
REMARK  status: ('A' for Active; 'I' for Inactive)
REMARK    1  A    between atoms: C_2  and  O_3
REMARK    2  A    between atoms: C_2  and  C_4
REMARK    3  A    between atoms: C_4  and  C_5
REMARK    4  A    between atoms: C_5  and  C_6
REMARK    5  A    between atoms: N_8  and  C_9
REMARK                            x       y       z     vdW  Elec       q    Type
REMARK                         _______ _______ _______ _____ _____    ______ ____
ROOT
ATOM      1  C   UNL     1       4.361   4.605  17.067  0.00  0.00    +0.000 C 
ATOM      2  O   UNL     1       4.773   3.449  17.115  0.00  0.00    +0.000 OA
ATOM      3  N   UNL     1       3.291   5.131  17.766  0.00  0.00    +0.000 N 
ATOM      4  H   UNL     1       2.916   6.020  17.432  0.00  0.00    +0.000 HD
ENDROOT
BRANCH   3   5
ATOM      5  C   UNL     1       2.544   4.482  18.772  0.00  0.00    +0.000 A 
ATOM      6  C   UNL     1       1.533   3.559  18.497  0.00  0.00    +0.000 A 
ATOM      7  C   UNL     1       0.820   2.954  19.535  0.00  0.00    +0.000 A 
ATOM      8  C   UNL     1       1.117   3.264  20.859  0.00  0.00    +0.000 A 
ATOM      9  C   UNL     1       2.134   4.171  21.146  0.00  0.00    +0.000 A 
ATOM     10  C   UNL     1       2.851   4.773  20.107  0.00  0.00    +0.000 A 
ENDBRANCH   3   5
BRANCH   1  11
ATOM     11  C   UNL     1       4.993   5.584  16.099  0.00  0.00    +0.000 C 
BRANCH  11  12
ATOM     12  C   UNL     1       5.643   4.839  14.941  0.00  0.00    +0.000 C 
BRANCH  12  14
ATOM     13  O   UNL     1       7.817   5.497  14.122  0.00  0.00    +0.000 OA
ATOM     14  C   UNL     1       7.144   4.960  14.991  0.00  0.00    +0.000 C 
BRANCH  14  15
ATOM     15  O   UNL     1       7.689   4.422  16.101  0.00  0.00    +0.000 OA
ATOM     16  H   UNL     1       8.658   4.526  16.165  0.00  0.00    +0.000 HD
ENDBRANCH  14  15
ENDBRANCH  12  14
ENDBRANCH  11  12
ENDBRANCH   1  11
TORSDOF 5
ENDMDL
MODEL 2
REMARK VINA RESULT:      -6.2      1.860      2.168
REMARK  Name = 
REMARK  5 active torsions:
REMARK  status: ('A' for Active; 'I' for Inactive)
REMARK    1  A    between atoms: C_2  and  O_3
REMARK    2  A    between atoms: C_2  and  C_4
REMARK    3  A    between atoms: C_4  and  C_5
REMARK    4  A    between atoms: C_5  and  C_6
REMARK    5  A    between atoms: N_8  and  C_9
REMARK                            x       y       z     vdW  Elec       q    Type
REMARK                         _______ _______ _______ _____ _____    ______ ____
ROOT
ATOM      1  C   UNL     1       5.940   4.328  18.188  0.00  0.00    +0.000 C 
ATOM      2  O   UNL     1       5.853   4.695  19.357  0.00  0.00    +0.000 OA
ATOM      3  N   UNL     1       4.994   3.620  17.471  0.00  0.00    +0.000 N 
ATOM      4  H   UNL     1       5.310   3.169  16.611  0.00  0.00    +0.000 HD
ENDROOT
BRANCH   3   5
ATOM      5  C   UNL     1       3.688   3.295  17.896  0.00  0.00    +0.000 A 
ATOM      6  C   UNL     1       3.365   2.087  18.517  0.00  0.00    +0.000 A 
ATOM      7  C   UNL     1       2.051   1.817  18.908  0.00  0.00    +0.000 A 
ATOM      8  C   UNL     1       1.049   2.757  18.686  0.00  0.00    +0.000 A 
ATOM      9  C   UNL     1       1.362   3.972  18.083  0.00  0.00    +0.000 A 
ATOM     10  C   UNL     1       2.678   4.244  17.695  0.00  0.00    +0.000 A 
ENDBRANCH   3   5
BRANCH   1  11
ATOM     11  C   UNL     1       7.224   4.570  17.422  0.00  0.00    +0.000 C 
BRANCH  11  12
ATOM     12  C   UNL     1       6.998   5.599  16.322  0.00  0.00    +0.000 C 
BRANCH  12  14
ATOM     13  O   UNL     1       7.769   5.444  14.039  0.00  0.00    +0.000 OA
ATOM     14  C   UNL     1       7.116   4.969  14.958  0.00  0.00    +0.000 C 
BRANCH  14  15
ATOM     15  O   UNL     1       6.431   3.814  14.839  0.00  0.00    +0.000 OA
ATOM     16  H   UNL     1       6.458   3.418  13.946  0.00  0.00    +0.000 HD
ENDBRANCH  14  15
ENDBRANCH  12  14
ENDBRANCH  11  12
ENDBRANCH   1  11
TORSDOF 5
ENDMDL
MODEL 3
REMARK VINA RESULT:      -6.2      2.572      2.887
REMARK  Name = 
REMARK  5 active torsions:
REMARK  status: ('A' for Active; 'I' for Inactive)
REMARK    1  A    between atoms: C_2  and  O_3
REMARK    2  A    between atoms: C_2  and  C_4
REMARK    3  A    between atoms: C_4  and  C_5
REMARK    4  A    between atoms: C_5  and  C_6
REMARK    5  A    between atoms: N_8  and  C_9
REMARK                            x       y       z     vdW  Elec       q    Type
REMARK                         _______ _______ _______ _____ _____    ______ ____
ROOT
ATOM      1  C   UNL     1       6.059   4.467  18.321  0.00  0.00    +0.000 C 
ATOM      2  O   UNL     1       5.940   4.736  19.513  0.00  0.00    +0.000 OA
ATOM      3  N   UNL     1       5.145   3.800  17.527  0.00  0.00    +0.000 N 
ATOM      4  H   UNL     1       5.490   3.427  16.642  0.00  0.00    +0.000 HD
ENDROOT
BRANCH   3   5
ATOM      5  C   UNL     1       3.838   3.415  17.894  0.00  0.00    +0.000 A 
ATOM      6  C   UNL     1       3.541   2.186  18.487  0.00  0.00    +0.000 A 
ATOM      7  C   UNL     1       2.225   1.856  18.821  0.00  0.00    +0.000 A 
ATOM      8  C   UNL     1       1.194   2.757  18.569  0.00  0.00    +0.000 A 
ATOM      9  C   UNL     1       1.480   3.992  17.993  0.00  0.00    +0.000 A 
ATOM     10  C   UNL     1       2.798   4.324  17.663  0.00  0.00    +0.000 A 
ENDBRANCH   3   5
BRANCH   1  11
ATOM     11  C   UNL     1       7.354   4.796  17.606  0.00  0.00    +0.000 C 
BRANCH  11  12
ATOM     12  C   UNL     1       7.228   6.121  16.865  0.00  0.00    +0.000 C 
BRANCH  12  14
ATOM     13  O   UNL     1       7.630   8.443  17.390  0.00  0.00    +0.000 OA
ATOM     14  C   UNL     1       7.709   7.267  17.717  0.00  0.00    +0.000 C 
BRANCH  14  15
ATOM     15  O   UNL     1       8.236   6.876  18.895  0.00  0.00    +0.000 OA
ATOM     16  H   UNL     1       9.191   7.060  18.991  0.00  0.00    +0.000 HD
ENDBRANCH  14  15
ENDBRANCH  12  14
ENDBRANCH  11  12
ENDBRANCH   1  11
TORSDOF 5
ENDMDL
MODEL 4
REMARK VINA RESULT:      -6.2      1.362      1.873
REMARK  Name = 
REMARK  5 active torsions:
REMARK  status: ('A' for Active; 'I' for Inactive)
REMARK    1  A    between atoms: C_2  and  O_3
REMARK    2  A    between atoms: C_2  and  C_4
REMARK    3  A    between atoms: C_4  and  C_5
REMARK    4  A    between atoms: C_5  and  C_6
REMARK    5  A    between atoms: N_8  and  C_9
REMARK                            x       y       z     vdW  Elec       q    Type
REMARK                         _______ _______ _______ _____ _____    ______ ____
ROOT
ATOM      1  C   UNL     1       4.210   4.858  17.163  0.00  0.00    +0.000 C 
ATOM      2  O   UNL     1       4.255   5.918  17.780  0.00  0.00    +0.000 OA
ATOM      3  N   UNL     1       3.669   3.665  17.604  0.00  0.00    +0.000 N 
ATOM      4  H   UNL     1       3.935   2.822  17.095  0.00  0.00    +0.000 HD
ENDROOT
BRANCH   3   5
ATOM      5  C   UNL     1       2.940   3.464  18.796  0.00  0.00    +0.000 A 
ATOM      6  C   UNL     1       3.510   2.948  19.962  0.00  0.00    +0.000 A 
ATOM      7  C   UNL     1       2.735   2.763  21.110  0.00  0.00    +0.000 A 
ATOM      8  C   UNL     1       1.384   3.097  21.103  0.00  0.00    +0.000 A 
ATOM      9  C   UNL     1       0.809   3.628  19.951  0.00  0.00    +0.000 A 
ATOM     10  C   UNL     1       1.585   3.818  18.803  0.00  0.00    +0.000 A 
ENDBRANCH   3   5
BRANCH   1  11
ATOM     11  C   UNL     1       4.876   4.755  15.805  0.00  0.00    +0.000 C 
BRANCH  11  12
ATOM     12  C   UNL     1       6.109   3.864  15.887  0.00  0.00    +0.000 C 
BRANCH  12  14
ATOM     13  O   UNL     1       8.097   4.234  17.207  0.00  0.00    +0.000 OA
ATOM     14  C   UNL     1       7.309   4.641  16.364  0.00  0.00    +0.000 C 
BRANCH  14  15
ATOM     15  O   UNL     1       7.444   5.841  15.765  0.00  0.00    +0.000 OA
ATOM     16  H   UNL     1       7.880   5.810  14.891  0.00  0.00    +0.000 HD
ENDBRANCH  14  15
ENDBRANCH  12  14
ENDBRANCH  11  12
ENDBRANCH   1  11
TORSDOF 5
ENDMDL
MODEL 5
REMARK VINA RESULT:      -6.1      0.956      1.756
REMARK  Name = 
REMARK  5 active torsions:
REMARK  status: ('A' for Active; 'I' for Inactive)
REMARK    1  A    between atoms: C_2  and  O_3
REMARK    2  A    between atoms: C_2  and  C_4
REMARK    3  A    between atoms: C_4  and  C_5
REMARK    4  A    between atoms: C_5  and  C_6
REMARK    5  A    between atoms: N_8  and  C_9
REMARK                            x       y       z     vdW  Elec       q    Type
REMARK                         _______ _______ _______ _____ _____    ______ ____
ROOT
ATOM      1  C   UNL     1       4.597   5.618  17.612  0.00  0.00    +0.000 C 
ATOM      2  O   UNL     1       5.270   5.510  18.633  0.00  0.00    +0.000 OA
ATOM      3  N   UNL     1       3.313   5.145  17.414  0.00  0.00    +0.000 N 
ATOM      4  H   UNL     1       2.990   5.080  16.448  0.00  0.00    +0.000 HD
ENDROOT
BRANCH   3   5
ATOM      5  C   UNL     1       2.473   4.565  18.388  0.00  0.00    +0.000 A 
ATOM      6  C   UNL     1       2.182   5.178  19.608  0.00  0.00    +0.000 A 
ATOM      7  C   UNL     1       1.349   4.551  20.539  0.00  0.00    +0.000 A 
ATOM      8  C   UNL     1       0.797   3.305  20.254  0.00  0.00    +0.000 A 
ATOM      9  C   UNL     1       1.066   2.692  19.034  0.00  0.00    +0.000 A 
ATOM     10  C   UNL     1       1.896   3.322  18.100  0.00  0.00    +0.000 A 
ENDBRANCH   3   5
BRANCH   1  11
ATOM     11  C   UNL     1       5.207   6.247  16.376  0.00  0.00    +0.000 C 
BRANCH  11  12
ATOM     12  C   UNL     1       5.634   5.168  15.389  0.00  0.00    +0.000 C 
BRANCH  12  14
ATOM     13  O   UNL     1       7.742   4.454  16.325  0.00  0.00    +0.000 OA
ATOM     14  C   UNL     1       7.129   4.979  15.405  0.00  0.00    +0.000 C 
BRANCH  14  15
ATOM     15  O   UNL     1       7.740   5.439  14.296  0.00  0.00    +0.000 OA
ATOM     16  H   UNL     1       7.217   6.087  13.785  0.00  0.00    +0.000 HD
ENDBRANCH  14  15
ENDBRANCH  12  14
ENDBRANCH  11  12
ENDBRANCH   1  11
TORSDOF 5
ENDMDL
MODEL 6
REMARK VINA RESULT:      -6.0      3.246      5.783
REMARK  Name = 
REMARK  5 active torsions:
REMARK  status: ('A' for Active; 'I' for Inactive)
REMARK    1  A    between atoms: C_2  and  O_3
REMARK    2  A    between atoms: C_2  and  C_4
REMARK    3  A    between atoms: C_4  and  C_5
REMARK    4  A    between atoms: C_5  and  C_6
REMARK    5  A    between atoms: N_8  and  C_9
REMARK                            x       y       z     vdW  Elec       q    Type
REMARK                         _______ _______ _______ _____ _____    ______ ____
ROOT
ATOM      1  C   UNL     1       4.500   3.742  19.428  0.00  0.00    +0.000 C 
ATOM      2  O   UNL     1       3.788   4.656  19.836  0.00  0.00    +0.000 OA
ATOM      3  N   UNL     1       5.657   3.865  18.681  0.00  0.00    +0.000 N 
ATOM      4  H   UNL     1       5.988   3.026  18.204  0.00  0.00    +0.000 HD
ENDROOT
BRANCH   3   5
ATOM      5  C   UNL     1       6.321   5.066  18.355  0.00  0.00    +0.000 A 
ATOM      6  C   UNL     1       7.455   5.520  19.032  0.00  0.00    +0.000 A 
ATOM      7  C   UNL     1       8.066   6.724  18.669  0.00  0.00    +0.000 A 
ATOM      8  C   UNL     1       7.549   7.482  17.622  0.00  0.00    +0.000 A 
ATOM      9  C   UNL     1       6.429   7.031  16.929  0.00  0.00    +0.000 A 
ATOM     10  C   UNL     1       5.820   5.824  17.289  0.00  0.00    +0.000 A 
ENDBRANCH   3   5
BRANCH   1  11
ATOM     11  C   UNL     1       4.078   2.305  19.659  0.00  0.00    +0.000 C 
BRANCH  11  12
ATOM     12  C   UNL     1       3.618   1.673  18.353  0.00  0.00    +0.000 C 
BRANCH  12  14
ATOM     13  O   UNL     1       2.164   3.061  17.015  0.00  0.00    +0.000 OA
ATOM     14  C   UNL     1       2.293   2.240  17.913  0.00  0.00    +0.000 C 
BRANCH  14  15
ATOM     15  O   UNL     1       1.243   1.751  18.604  0.00  0.00    +0.000 OA
ATOM     16  H   UNL     1       0.898   2.352  19.293  0.00  0.00    +0.000 HD
ENDBRANCH  14  15
ENDBRANCH  12  14
ENDBRANCH  11  12
ENDBRANCH   1  11
TORSDOF 5
ENDMDL
MODEL 7
REMARK VINA RESULT:      -6.0      0.791      1.508
REMARK  Name = 
REMARK  5 active torsions:
REMARK  status: ('A' for Active; 'I' for Inactive)
REMARK    1  A    between atoms: C_2  and  O_3
REMARK    2  A    between atoms: C_2  and  C_4
REMARK    3  A    between atoms: C_4  and  C_5
REMARK    4  A    between atoms: C_5  and  C_6
REMARK    5  A    between atoms: N_8  and  C_9
REMARK                            x       y       z     vdW  Elec       q    Type
REMARK                         _______ _______ _______ _____ _____    ______ ____
ROOT
ATOM      1  C   UNL     1       4.416   4.733  16.960  0.00  0.00    +0.000 C 
ATOM      2  O   UNL     1       4.759   3.554  16.958  0.00  0.00    +0.000 OA
ATOM      3  N   UNL     1       3.343   5.281  17.638  0.00  0.00    +0.000 N 
ATOM      4  H   UNL     1       3.035   6.207  17.341  0.00  0.00    +0.000 HD
ENDROOT
BRANCH   3   5
ATOM      5  C   UNL     1       2.512   4.621  18.569  0.00  0.00    +0.000 A 
ATOM      6  C   UNL     1       2.483   4.940  19.928  0.00  0.00    +0.000 A 
ATOM      7  C   UNL     1       1.646   4.244  20.804  0.00  0.00    +0.000 A 
ATOM      8  C   UNL     1       0.826   3.225  20.326  0.00  0.00    +0.000 A 
ATOM      9  C   UNL     1       0.835   2.909  18.970  0.00  0.00    +0.000 A 
ATOM     10  C   UNL     1       1.670   3.609  18.092  0.00  0.00    +0.000 A 
ENDBRANCH   3   5
BRANCH   1  11
ATOM     11  C   UNL     1       5.148   5.727  16.082  0.00  0.00    +0.000 C 
BRANCH  11  12
ATOM     12  C   UNL     1       6.634   5.396  16.034  0.00  0.00    +0.000 C 
BRANCH  12  14
ATOM     13  O   UNL     1       7.778   5.447  13.908  0.00  0.00    +0.000 OA
ATOM     14  C   UNL     1       7.028   4.865  14.680  0.00  0.00    +0.000 C 
BRANCH  14  15
ATOM     15  O   UNL     1       6.478   3.669  14.392  0.00  0.00    +0.000 OA
ATOM     16  H   UNL     1       5.501   3.654  14.429  0.00  0.00    +0.000 HD
ENDBRANCH  14  15
ENDBRANCH  12  14
ENDBRANCH  11  12
ENDBRANCH   1  11
TORSDOF 5
ENDMDL
MODEL 8
REMARK VINA RESULT:      -6.0      3.036      5.933
REMARK  Name = 
REMARK  5 active torsions:
REMARK  status: ('A' for Active; 'I' for Inactive)
REMARK    1  A    between atoms: C_2  and  O_3
REMARK    2  A    between atoms: C_2  and  C_4
REMARK    3  A    between atoms: C_4  and  C_5
REMARK    4  A    between atoms: C_5  and  C_6
REMARK    5  A    between atoms: N_8  and  C_9
REMARK                            x       y       z     vdW  Elec       q    Type
REMARK                         _______ _______ _______ _____ _____    ______ ____
ROOT
ATOM      1  C   UNL     1       1.728   4.314  18.507  0.00  0.00    +0.000 C 
ATOM      2  O   UNL     1       1.131   3.977  17.488  0.00  0.00    +0.000 OA
ATOM      3  N   UNL     1       3.050   4.706  18.600  0.00  0.00    +0.000 N 
ATOM      4  H   UNL     1       3.466   4.704  19.532  0.00  0.00    +0.000 HD
ENDROOT
BRANCH   3   5
ATOM      5  C   UNL     1       3.938   4.926  17.526  0.00  0.00    +0.000 A 
ATOM      6  C   UNL     1       4.499   3.892  16.774  0.00  0.00    +0.000 A 
ATOM      7  C   UNL     1       5.381   4.171  15.726  0.00  0.00    +0.000 A 
ATOM      8  C   UNL     1       5.703   5.490  15.418  0.00  0.00    +0.000 A 
ATOM      9  C   UNL     1       5.136   6.530  16.149  0.00  0.00    +0.000 A 
ATOM     10  C   UNL     1       4.251   6.251  17.196  0.00  0.00    +0.000 A 
ENDBRANCH   3   5
BRANCH   1  11
ATOM     11  C   UNL     1       1.025   4.232  19.847  0.00  0.00    +0.000 C 
BRANCH  11  12
ATOM     12  C   UNL     1       2.038   4.300  20.981  0.00  0.00    +0.000 C 
BRANCH  12  14
ATOM     13  O   UNL     1       1.730   2.297  22.296  0.00  0.00    +0.000 OA
ATOM     14  C   UNL     1       2.392   2.921  21.476  0.00  0.00    +0.000 C 
BRANCH  14  15
ATOM     15  O   UNL     1       3.516   2.423  20.923  0.00  0.00    +0.000 OA
ATOM     16  H   UNL     1       3.404   1.550  20.498  0.00  0.00    +0.000 HD
ENDBRANCH  14  15
ENDBRANCH  12  14
ENDBRANCH  11  12
ENDBRANCH   1  11
TORSDOF 5
ENDMDL
MODEL 9
REMARK VINA RESULT:      -6.0      1.674      1.806
REMARK  Name = 
REMARK  5 active torsions:
REMARK  status: ('A' for Active; 'I' for Inactive)
REMARK    1  A    between atoms: C_2  and  O_3
REMARK    2  A    between atoms: C_2  and  C_4
REMARK    3  A    between atoms: C_4  and  C_5
REMARK    4  A    between atoms: C_5  and  C_6
REMARK    5  A    between atoms: N_8  and  C_9
REMARK                            x       y       z     vdW  Elec       q    Type
REMARK                         _______ _______ _______ _____ _____    ______ ____
ROOT
ATOM      1  C   UNL     1       4.460   4.098  17.029  0.00  0.00    +0.000 C 
ATOM      2  O   UNL     1       3.965   5.220  17.094  0.00  0.00    +0.000 OA
ATOM      3  N   UNL     1       4.180   3.020  17.848  0.00  0.00    +0.000 N 
ATOM      4  H   UNL     1       4.847   2.249  17.839  0.00  0.00    +0.000 HD
ENDROOT
BRANCH   3   5
ATOM      5  C   UNL     1       3.171   2.956  18.834  0.00  0.00    +0.000 A 
ATOM      6  C   UNL     1       1.808   2.980  18.534  0.00  0.00    +0.000 A 
ATOM      7  C   UNL     1       0.854   2.923  19.554  0.00  0.00    +0.000 A 
ATOM      8  C   UNL     1       1.258   2.835  20.884  0.00  0.00    +0.000 A 
ATOM      9  C   UNL     1       2.615   2.794  21.193  0.00  0.00    +0.000 A 
ATOM     10  C   UNL     1       3.569   2.846  20.172  0.00  0.00    +0.000 A 
ENDBRANCH   3   5
BRANCH   1  11
ATOM     11  C   UNL     1       5.562   3.824  16.025  0.00  0.00    +0.000 C 
BRANCH  11  12
ATOM     12  C   UNL     1       6.492   5.025  15.919  0.00  0.00    +0.000 C 
BRANCH  12  14
ATOM     13  O   UNL     1       7.347   6.130  17.888  0.00  0.00    +0.000 OA
ATOM     14  C   UNL     1       7.352   5.155  17.150  0.00  0.00    +0.000 C 
BRANCH  14  15
ATOM     15  O   UNL     1       8.136   4.081  17.373  0.00  0.00    +0.000 OA
ATOM     16  H   UNL     1       8.945   4.051  16.826  0.00  0.00    +0.000 HD
ENDBRANCH  14  15
ENDBRANCH  12  14
ENDBRANCH  11  12
ENDBRANCH   1  11
TORSDOF 5
ENDMDL
