MODEL 1
REMARK VINA RESULT:      -7.4      0.000      0.000
REMARK  Name = 
REMARK  3 active torsions:
REMARK  status: ('A' for Active; 'I' for Inactive)
REMARK    1  A    between atoms: C_1  and  C_2
REMARK    2  A    between atoms: C_8  and  C_10
REMARK    3  A    between atoms: C_11  and  C_12
REMARK                            x       y       z     vdW  Elec       q    Type
REMARK                         _______ _______ _______ _____ _____    ______ ____
ROOT
ATOM      1  C   UNL     1      -0.039   9.361  23.437  0.00  0.00    +0.000 C 
ATOM      2  C   UNL     1      -0.440  10.467  22.492  0.00  0.00    +0.000 C 
ATOM      3  O   UNL     1      -1.321  11.274  22.793  0.00  0.00    +0.000 OA
ATOM      4  N   UNL     1       0.214  10.515  21.273  0.00  0.00    +0.000 N 
ATOM      5  C   UNL     1      -0.052  11.576  20.332  0.00  0.00    +0.000 C 
ATOM      6  C   UNL     1       0.942  11.325  19.217  0.00  0.00    +0.000 C 
ATOM      7  N   UNL     1       1.195   9.904  19.294  0.00  0.00    +0.000 N 
ATOM      8  C   UNL     1       1.799   9.241  18.229  0.00  0.00    +0.000 C 
ATOM      9  O   UNL     1       2.216   9.832  17.237  0.00  0.00    +0.000 OA
ATOM     10  C   UNL     1       0.877   9.455  20.605  0.00  0.00    +0.000 C 
ATOM     11  O   UNL     1       1.148   8.373  21.096  0.00  0.00    +0.000 OA
ENDROOT
BRANCH   8  12
ATOM     12  C   UNL     1       1.887   7.762  18.334  0.00  0.00    +0.000 C 
ATOM     13  C   UNL     1       3.030   7.091  18.120  0.00  0.00    +0.000 C 
BRANCH  13  14
ATOM     14  C   UNL     1       3.107   5.623  18.203  0.00  0.00    +0.000 A 
ATOM     15  C   UNL     1       4.252   4.958  18.678  0.00  0.00    +0.000 A 
ATOM     16  C   UNL     1       4.297   3.564  18.741  0.00  0.00    +0.000 A 
ATOM     17  C   UNL     1       3.189   2.829  18.347  0.00  0.00    +0.000 A 
ATOM     18  F   UNL     1       3.228   1.491  18.406  0.00  0.00    +0.000 F 
ATOM     19  C   UNL     1       2.036   3.462  17.895  0.00  0.00    +0.000 A 
ATOM     20  C   UNL     1       1.994   4.857  17.826  0.00  0.00    +0.000 A 
ENDBRANCH  13  14
ENDBRANCH   8  12
TORSDOF 2
ENDMDL
MODEL 2
REMARK VINA RESULT:      -7.3      0.408      1.115
REMARK  Name = 
REMARK  3 active torsions:
REMARK  status: ('A' for Active; 'I' for Inactive)
REMARK    1  A    between atoms: C_1  and  C_2
REMARK    2  A    between atoms: C_8  and  C_10
REMARK    3  A    between atoms: C_11  and  C_12
REMARK                            x       y       z     vdW  Elec       q    Type
REMARK                         _______ _______ _______ _____ _____    ______ ____
ROOT
ATOM      1  C   UNL     1      -0.057   9.254  23.439  0.00  0.00    +0.000 C 
ATOM      2  C   UNL     1      -0.420  10.453  22.598  0.00  0.00    +0.000 C 
ATOM      3  O   UNL     1      -1.276  11.256  22.972  0.00  0.00    +0.000 OA
ATOM      4  N   UNL     1       0.238  10.590  21.388  0.00  0.00    +0.000 N 
ATOM      5  C   UNL     1       0.008  11.739  20.547  0.00  0.00    +0.000 C 
ATOM      6  C   UNL     1       0.995  11.559  19.414  0.00  0.00    +0.000 C 
ATOM      7  N   UNL     1       1.204  10.130  19.362  0.00  0.00    +0.000 N 
ATOM      8  C   UNL     1       1.788   9.547  18.241  0.00  0.00    +0.000 C 
ATOM      9  O   UNL     1       2.226  10.212  17.306  0.00  0.00    +0.000 OA
ATOM     10  C   UNL     1       0.869   9.574  20.627  0.00  0.00    +0.000 C 
ATOM     11  O   UNL     1       1.104   8.444  21.018  0.00  0.00    +0.000 OA
ENDROOT
BRANCH   8  12
ATOM     12  C   UNL     1       1.829   8.062  18.211  0.00  0.00    +0.000 C 
ATOM     13  C   UNL     1       2.973   7.376  18.054  0.00  0.00    +0.000 C 
BRANCH  13  14
ATOM     14  C   UNL     1       3.006   5.904  18.002  0.00  0.00    +0.000 A 
ATOM     15  C   UNL     1       1.832   5.128  18.002  0.00  0.00    +0.000 A 
ATOM     16  C   UNL     1       1.895   3.735  17.956  0.00  0.00    +0.000 A 
ATOM     17  C   UNL     1       3.132   3.110  17.890  0.00  0.00    +0.000 A 
ATOM     18  F   UNL     1       3.196   1.773  17.845  0.00  0.00    +0.000 F 
ATOM     19  C   UNL     1       4.306   3.855  17.865  0.00  0.00    +0.000 A 
ATOM     20  C   UNL     1       4.244   5.250  17.918  0.00  0.00    +0.000 A 
ENDBRANCH  13  14
ENDBRANCH   8  12
TORSDOF 2
ENDMDL
MODEL 3
REMARK VINA RESULT:      -7.2      3.905      7.262
REMARK  Name = 
REMARK  3 active torsions:
REMARK  status: ('A' for Active; 'I' for Inactive)
REMARK    1  A    between atoms: C_1  and  C_2
REMARK    2  A    between atoms: C_8  and  C_10
REMARK    3  A    between atoms: C_11  and  C_12
REMARK                            x       y       z     vdW  Elec       q    Type
REMARK                         _______ _______ _______ _____ _____    ______ ____
ROOT
ATOM      1  C   UNL     1       1.930   2.803  21.381  0.00  0.00    +0.000 C 
ATOM      2  C   UNL     1       3.108   3.010  20.460  0.00  0.00    +0.000 C 
ATOM      3  O   UNL     1       4.052   2.218  20.446  0.00  0.00    +0.000 OA
ATOM      4  N   UNL     1       3.081   4.136  19.655  0.00  0.00    +0.000 N 
ATOM      5  C   UNL     1       4.129   4.383  18.694  0.00  0.00    +0.000 C 
ATOM      6  C   UNL     1       3.657   5.618  17.957  0.00  0.00    +0.000 C 
ATOM      7  N   UNL     1       2.806   6.286  18.915  0.00  0.00    +0.000 N 
ATOM      8  C   UNL     1       2.451   7.620  18.726  0.00  0.00    +0.000 C 
ATOM      9  O   UNL     1       2.762   8.248  17.718  0.00  0.00    +0.000 OA
ATOM     10  C   UNL     1       2.350   5.331  19.864  0.00  0.00    +0.000 C 
ATOM     11  O   UNL     1       1.467   5.482  20.692  0.00  0.00    +0.000 OA
ENDROOT
BRANCH   8  12
ATOM     12  C   UNL     1       1.698   8.267  19.831  0.00  0.00    +0.000 C 
ATOM     13  C   UNL     1       0.828   9.268  19.620  0.00  0.00    +0.000 C 
BRANCH  13  14
ATOM     14  C   UNL     1       0.100   9.923  20.721  0.00  0.00    +0.000 A 
ATOM     15  C   UNL     1       0.104   9.409  22.031  0.00  0.00    +0.000 A 
ATOM     16  C   UNL     1      -0.598  10.050  23.053  0.00  0.00    +0.000 A 
ATOM     17  C   UNL     1      -1.292  11.218  22.774  0.00  0.00    +0.000 A 
ATOM     18  F   UNL     1      -1.967  11.836  23.753  0.00  0.00    +0.000 F 
ATOM     19  C   UNL     1      -1.293  11.759  21.494  0.00  0.00    +0.000 A 
ATOM     20  C   UNL     1      -0.595  11.114  20.468  0.00  0.00    +0.000 A 
ENDBRANCH  13  14
ENDBRANCH   8  12
TORSDOF 2
ENDMDL
MODEL 4
REMARK VINA RESULT:      -7.1      4.127      7.082
REMARK  Name = 
REMARK  3 active torsions:
REMARK  status: ('A' for Active; 'I' for Inactive)
REMARK    1  A    between atoms: C_1  and  C_2
REMARK    2  A    between atoms: C_8  and  C_10
REMARK    3  A    between atoms: C_11  and  C_12
REMARK                            x       y       z     vdW  Elec       q    Type
REMARK                         _______ _______ _______ _____ _____    ______ ____
ROOT
ATOM      1  C   UNL     1       1.372   3.036  21.420  0.00  0.00    +0.000 C 
ATOM      2  C   UNL     1       2.818   2.922  21.003  0.00  0.00    +0.000 C 
ATOM      3  O   UNL     1       3.585   2.145  21.573  0.00  0.00    +0.000 OA
ATOM      4  N   UNL     1       3.237   3.744  19.971  0.00  0.00    +0.000 N 
ATOM      5  C   UNL     1       4.583   3.658  19.458  0.00  0.00    +0.000 C 
ATOM      6  C   UNL     1       4.582   4.614  18.284  0.00  0.00    +0.000 C 
ATOM      7  N   UNL     1       3.545   5.565  18.615  0.00  0.00    +0.000 N 
ATOM      8  C   UNL     1       3.469   6.781  17.942  0.00  0.00    +0.000 C 
ATOM      9  O   UNL     1       4.204   7.059  16.998  0.00  0.00    +0.000 OA
ATOM     10  C   UNL     1       2.651   4.960  19.541  0.00  0.00    +0.000 C 
ATOM     11  O   UNL     1       1.561   5.379  19.889  0.00  0.00    +0.000 OA
ENDROOT
BRANCH   8  12
ATOM     12  C   UNL     1       2.466   7.755  18.445  0.00  0.00    +0.000 C 
ATOM     13  C   UNL     1       1.901   8.682  17.654  0.00  0.00    +0.000 C 
BRANCH  13  14
ATOM     14  C   UNL     1       0.924   9.660  18.163  0.00  0.00    +0.000 A 
ATOM     15  C   UNL     1      -0.439   9.606  17.819  0.00  0.00    +0.000 A 
ATOM     16  C   UNL     1      -1.340  10.550  18.315  0.00  0.00    +0.000 A 
ATOM     17  C   UNL     1      -0.886  11.541  19.172  0.00  0.00    +0.000 A 
ATOM     18  F   UNL     1      -1.748  12.448  19.650  0.00  0.00    +0.000 F 
ATOM     19  C   UNL     1       0.452  11.603  19.546  0.00  0.00    +0.000 A 
ATOM     20  C   UNL     1       1.356  10.661  19.045  0.00  0.00    +0.000 A 
ENDBRANCH  13  14
ENDBRANCH   8  12
TORSDOF 2
ENDMDL
MODEL 5
REMARK VINA RESULT:      -7.1      3.925      7.324
REMARK  Name = 
REMARK  3 active torsions:
REMARK  status: ('A' for Active; 'I' for Inactive)
REMARK    1  A    between atoms: C_1  and  C_2
REMARK    2  A    between atoms: C_8  and  C_10
REMARK    3  A    between atoms: C_11  and  C_12
REMARK                            x       y       z     vdW  Elec       q    Type
REMARK                         _______ _______ _______ _____ _____    ______ ____
ROOT
ATOM      1  C   UNL     1       1.519   1.924  19.368  0.00  0.00    +0.000 C 
ATOM      2  C   UNL     1       2.850   2.103  18.680  0.00  0.00    +0.000 C 
ATOM      3  O   UNL     1       3.653   1.172  18.596  0.00  0.00    +0.000 OA
ATOM      4  N   UNL     1       3.128   3.361  18.172  0.00  0.00    +0.000 N 
ATOM      5  C   UNL     1       4.345   3.610  17.439  0.00  0.00    +0.000 C 
ATOM      6  C   UNL     1       4.194   5.040  16.967  0.00  0.00    +0.000 C 
ATOM      7  N   UNL     1       3.306   5.633  17.941  0.00  0.00    +0.000 N 
ATOM      8  C   UNL     1       3.193   7.017  18.035  0.00  0.00    +0.000 C 
ATOM      9  O   UNL     1       3.758   7.779  17.255  0.00  0.00    +0.000 OA
ATOM     10  C   UNL     1       2.560   4.597  18.568  0.00  0.00    +0.000 C 
ATOM     11  O   UNL     1       1.586   4.727  19.289  0.00  0.00    +0.000 OA
ENDROOT
BRANCH   8  12
ATOM     12  C   UNL     1       2.374   7.540  19.159  0.00  0.00    +0.000 C 
ATOM     13  C   UNL     1       1.736   8.721  19.097  0.00  0.00    +0.000 C 
BRANCH  13  14
ATOM     14  C   UNL     1       0.944   9.246  20.222  0.00  0.00    +0.000 A 
ATOM     15  C   UNL     1       0.098  10.362  20.087  0.00  0.00    +0.000 A 
ATOM     16  C   UNL     1      -0.638  10.838  21.173  0.00  0.00    +0.000 A 
ATOM     17  C   UNL     1      -0.547  10.189  22.395  0.00  0.00    +0.000 A 
ATOM     18  F   UNL     1      -1.253  10.643  23.439  0.00  0.00    +0.000 F 
ATOM     19  C   UNL     1       0.263   9.070  22.550  0.00  0.00    +0.000 A 
ATOM     20  C   UNL     1       1.005   8.596  21.464  0.00  0.00    +0.000 A 
ENDBRANCH  13  14
ENDBRANCH   8  12
TORSDOF 2
ENDMDL
MODEL 6
REMARK VINA RESULT:      -6.9      4.351      7.625
REMARK  Name = 
REMARK  3 active torsions:
REMARK  status: ('A' for Active; 'I' for Inactive)
REMARK    1  A    between atoms: C_1  and  C_2
REMARK    2  A    between atoms: C_8  and  C_10
REMARK    3  A    between atoms: C_11  and  C_12
REMARK                            x       y       z     vdW  Elec       q    Type
REMARK                         _______ _______ _______ _____ _____    ______ ____
ROOT
ATOM      1  C   UNL     1       7.624   5.591  19.090  0.00  0.00    +0.000 C 
ATOM      2  C   UNL     1       7.247   4.823  17.847  0.00  0.00    +0.000 C 
ATOM      3  O   UNL     1       8.093   4.524  17.002  0.00  0.00    +0.000 OA
ATOM      4  N   UNL     1       5.911   4.494  17.697  0.00  0.00    +0.000 N 
ATOM      5  C   UNL     1       5.466   3.702  16.575  0.00  0.00    +0.000 C 
ATOM      6  C   UNL     1       3.996   3.473  16.858  0.00  0.00    +0.000 C 
ATOM      7  N   UNL     1       3.623   4.603  17.678  0.00  0.00    +0.000 N 
ATOM      8  C   UNL     1       2.280   4.920  17.863  0.00  0.00    +0.000 C 
ATOM      9  O   UNL     1       1.371   4.221  17.425  0.00  0.00    +0.000 OA
ATOM     10  C   UNL     1       4.793   5.125  18.295  0.00  0.00    +0.000 C 
ATOM     11  O   UNL     1       4.844   5.942  19.199  0.00  0.00    +0.000 OA
ENDROOT
BRANCH   8  12
ATOM     12  C   UNL     1       1.992   6.180  18.597  0.00  0.00    +0.000 C 
ATOM     13  C   UNL     1       1.900   7.369  17.979  0.00  0.00    +0.000 C 
BRANCH  13  14
ATOM     14  C   UNL     1       1.637   8.618  18.714  0.00  0.00    +0.000 A 
ATOM     15  C   UNL     1       1.317   8.629  20.084  0.00  0.00    +0.000 A 
ATOM     16  C   UNL     1       1.070   9.829  20.752  0.00  0.00    +0.000 A 
ATOM     17  C   UNL     1       1.160  11.026  20.058  0.00  0.00    +0.000 A 
ATOM     18  F   UNL     1       0.923  12.180  20.697  0.00  0.00    +0.000 F 
ATOM     19  C   UNL     1       1.496  11.045  18.709  0.00  0.00    +0.000 A 
ATOM     20  C   UNL     1       1.738   9.843  18.038  0.00  0.00    +0.000 A 
ENDBRANCH  13  14
ENDBRANCH   8  12
TORSDOF 2
ENDMDL
MODEL 7
REMARK VINA RESULT:      -6.9      4.079      7.303
REMARK  Name = 
REMARK  3 active torsions:
REMARK  status: ('A' for Active; 'I' for Inactive)
REMARK    1  A    between atoms: C_1  and  C_2
REMARK    2  A    between atoms: C_8  and  C_10
REMARK    3  A    between atoms: C_11  and  C_12
REMARK                            x       y       z     vdW  Elec       q    Type
REMARK                         _______ _______ _______ _____ _____    ______ ____
ROOT
ATOM      1  C   UNL     1       1.158   2.245  18.728  0.00  0.00    +0.000 C 
ATOM      2  C   UNL     1       2.618   2.175  18.352  0.00  0.00    +0.000 C 
ATOM      3  O   UNL     1       3.270   1.143  18.518  0.00  0.00    +0.000 OA
ATOM      4  N   UNL     1       3.186   3.327  17.836  0.00  0.00    +0.000 N 
ATOM      5  C   UNL     1       4.557   3.338  17.385  0.00  0.00    +0.000 C 
ATOM      6  C   UNL     1       4.729   4.721  16.793  0.00  0.00    +0.000 C 
ATOM      7  N   UNL     1       3.752   5.521  17.496  0.00  0.00    +0.000 N 
ATOM      8  C   UNL     1       3.833   6.911  17.465  0.00  0.00    +0.000 C 
ATOM      9  O   UNL     1       4.662   7.508  16.784  0.00  0.00    +0.000 OA
ATOM     10  C   UNL     1       2.741   4.662  18.005  0.00  0.00    +0.000 C 
ATOM     11  O   UNL     1       1.665   4.992  18.473  0.00  0.00    +0.000 OA
ENDROOT
BRANCH   8  12
ATOM     12  C   UNL     1       2.878   7.648  18.333  0.00  0.00    +0.000 C 
ATOM     13  C   UNL     1       2.003   8.542  17.844  0.00  0.00    +0.000 C 
BRANCH  13  14
ATOM     14  C   UNL     1       1.074   9.287  18.711  0.00  0.00    +0.000 A 
ATOM     15  C   UNL     1       1.155   9.236  20.114  0.00  0.00    +0.000 A 
ATOM     16  C   UNL     1       0.258   9.952  20.910  0.00  0.00    +0.000 A 
ATOM     17  C   UNL     1      -0.712  10.737  20.305  0.00  0.00    +0.000 A 
ATOM     18  F   UNL     1      -1.575  11.425  21.065  0.00  0.00    +0.000 F 
ATOM     19  C   UNL     1      -0.799  10.823  18.920  0.00  0.00    +0.000 A 
ATOM     20  C   UNL     1       0.095  10.102  18.123  0.00  0.00    +0.000 A 
ENDBRANCH  13  14
ENDBRANCH   8  12
TORSDOF 2
ENDMDL
MODEL 8
REMARK VINA RESULT:      -6.9      4.086      7.344
REMARK  Name = 
REMARK  3 active torsions:
REMARK  status: ('A' for Active; 'I' for Inactive)
REMARK    1  A    between atoms: C_1  and  C_2
REMARK    2  A    between atoms: C_8  and  C_10
REMARK    3  A    between atoms: C_11  and  C_12
REMARK                            x       y       z     vdW  Elec       q    Type
REMARK                         _______ _______ _______ _____ _____    ______ ____
ROOT
ATOM      1  C   UNL     1       1.238   2.233  18.732  0.00  0.00    +0.000 C 
ATOM      2  C   UNL     1       2.690   2.150  18.327  0.00  0.00    +0.000 C 
ATOM      3  O   UNL     1       3.338   1.115  18.490  0.00  0.00    +0.000 OA
ATOM      4  N   UNL     1       3.255   3.294  17.788  0.00  0.00    +0.000 N 
ATOM      5  C   UNL     1       4.616   3.291  17.310  0.00  0.00    +0.000 C 
ATOM      6  C   UNL     1       4.785   4.667  16.701  0.00  0.00    +0.000 C 
ATOM      7  N   UNL     1       3.827   5.480  17.415  0.00  0.00    +0.000 N 
ATOM      8  C   UNL     1       3.916   6.869  17.370  0.00  0.00    +0.000 C 
ATOM      9  O   UNL     1       4.735   7.454  16.667  0.00  0.00    +0.000 OA
ATOM     10  C   UNL     1       2.821   4.632  17.953  0.00  0.00    +0.000 C 
ATOM     11  O   UNL     1       1.756   4.974  18.440  0.00  0.00    +0.000 OA
ENDROOT
BRANCH   8  12
ATOM     12  C   UNL     1       2.983   7.621  18.249  0.00  0.00    +0.000 C 
ATOM     13  C   UNL     1       2.058   8.465  17.763  0.00  0.00    +0.000 C 
BRANCH  13  14
ATOM     14  C   UNL     1       1.151   9.226  18.640  0.00  0.00    +0.000 A 
ATOM     15  C   UNL     1       0.250  10.182  18.137  0.00  0.00    +0.000 A 
ATOM     16  C   UNL     1      -0.595  10.889  18.993  0.00  0.00    +0.000 A 
ATOM     17  C   UNL     1      -0.556  10.631  20.355  0.00  0.00    +0.000 A 
ATOM     18  F   UNL     1      -1.366  11.309  21.180  0.00  0.00    +0.000 F 
ATOM     19  C   UNL     1       0.309   9.676  20.876  0.00  0.00    +0.000 A 
ATOM     20  C   UNL     1       1.159   8.970  20.019  0.00  0.00    +0.000 A 
ENDBRANCH  13  14
ENDBRANCH   8  12
TORSDOF 2
ENDMDL
MODEL 9
REMARK VINA RESULT:      -6.8      3.773      7.226
REMARK  Name = 
REMARK  3 active torsions:
REMARK  status: ('A' for Active; 'I' for Inactive)
REMARK    1  A    between atoms: C_1  and  C_2
REMARK    2  A    between atoms: C_8  and  C_10
REMARK    3  A    between atoms: C_11  and  C_12
REMARK                            x       y       z     vdW  Elec       q    Type
REMARK                         _______ _______ _______ _____ _____    ______ ____
ROOT
ATOM      1  C   UNL     1       2.840   3.180  20.792  0.00  0.00    +0.000 C 
ATOM      2  C   UNL     1       3.939   3.590  19.843  0.00  0.00    +0.000 C 
ATOM      3  O   UNL     1       4.999   2.964  19.788  0.00  0.00    +0.000 OA
ATOM      4  N   UNL     1       3.703   4.706  19.059  0.00  0.00    +0.000 N 
ATOM      5  C   UNL     1       4.667   5.134  18.074  0.00  0.00    +0.000 C 
ATOM      6  C   UNL     1       3.976   6.285  17.372  0.00  0.00    +0.000 C 
ATOM      7  N   UNL     1       3.056   6.791  18.365  0.00  0.00    +0.000 N 
ATOM      8  C   UNL     1       2.482   8.050  18.210  0.00  0.00    +0.000 C 
ATOM      9  O   UNL     1       2.655   8.734  17.205  0.00  0.00    +0.000 OA
ATOM     10  C   UNL     1       2.792   5.761  19.309  0.00  0.00    +0.000 C 
ATOM     11  O   UNL     1       1.922   5.754  20.163  0.00  0.00    +0.000 OA
ENDROOT
BRANCH   8  12
ATOM     12  C   UNL     1       1.666   8.550  19.347  0.00  0.00    +0.000 C 
ATOM     13  C   UNL     1       0.987   9.708  19.292  0.00  0.00    +0.000 C 
BRANCH  13  14
ATOM     14  C   UNL     1       0.198  10.211  20.429  0.00  0.00    +0.000 A 
ATOM     15  C   UNL     1      -0.567  11.389  20.349  0.00  0.00    +0.000 A 
ATOM     16  C   UNL     1      -1.302  11.842  21.445  0.00  0.00    +0.000 A 
ATOM     17  C   UNL     1      -1.291  11.109  22.623  0.00  0.00    +0.000 A 
ATOM     18  F   UNL     1      -1.995  11.541  23.677  0.00  0.00    +0.000 F 
ATOM     19  C   UNL     1      -0.562   9.930  22.722  0.00  0.00    +0.000 A 
ATOM     20  C   UNL     1       0.179   9.478  21.625  0.00  0.00    +0.000 A 
ENDBRANCH  13  14
ENDBRANCH   8  12
TORSDOF 2
ENDMDL
