MODEL 1
REMARK VINA RESULT:      -8.0      0.000      0.000
REMARK  Name = 
REMARK  9 active torsions:
REMARK  status: ('A' for Active; 'I' for Inactive)
REMARK    1  A    between atoms: C_1  and  O_2
REMARK    2  A    between atoms: O_2  and  C_3
REMARK    3  A    between atoms: C_3  and  C_5
REMARK    4  A    between atoms: C_8  and  C_9
REMARK    5  A    between atoms: C_9  and  S_10
REMARK    6  A    between atoms: S_10  and  C_11
REMARK    7  A    between atoms: C_14  and  C_15
REMARK    8  A    between atoms: N_21  and  C_22
REMARK    9  A    between atoms: C_22  and  C_23
REMARK                            x       y       z     vdW  Elec       q    Type
REMARK                         _______ _______ _______ _____ _____    ______ ____
ROOT
ATOM      1  C   UNL     1       4.418   5.671  17.113  0.00  0.00    +0.000 A 
ATOM      2  N   UNL     1       5.101   6.788  17.087  0.00  0.00    +0.000 NA
ATOM      3  N   UNL     1       4.361   7.748  17.743  0.00  0.00    +0.000 NA
ATOM      4  C   UNL     1       3.240   7.200  18.192  0.00  0.00    +0.000 A 
ATOM      5  N   UNL     1       3.214   5.885  17.746  0.00  0.00    +0.000 N 
ENDROOT
BRANCH   4   6
ATOM      6  C   UNL     1       2.217   7.915  18.975  0.00  0.00    +0.000 A 
ATOM      7  C   UNL     1       1.573   9.021  18.413  0.00  0.00    +0.000 A 
ATOM      8  C   UNL     1       0.624   9.705  19.165  0.00  0.00    +0.000 A 
ATOM      9  N   UNL     1       0.273   9.364  20.421  0.00  0.00    +0.000 NA
ATOM     10  C   UNL     1       0.914   8.309  20.956  0.00  0.00    +0.000 A 
ATOM     11  C   UNL     1       1.891   7.579  20.291  0.00  0.00    +0.000 A 
ENDBRANCH   4   6
BRANCH   1  12
ATOM     12  S   UNL     1       4.928   4.139  16.476  0.00  0.00    +0.000 S 
BRANCH  12  13
ATOM     13  C   UNL     1       6.606   4.492  15.859  0.00  0.00    +0.000 C 
BRANCH  13  17
ATOM     14  C   UNL     1       6.037   3.399  12.456  0.00  0.00    +0.000 A 
ATOM     15  C   UNL     1       7.043   4.303  12.160  0.00  0.00    +0.000 A 
ATOM     16  C   UNL     1       7.461   4.878  13.389  0.00  0.00    +0.000 A 
ATOM     17  C   UNL     1       6.683   4.304  14.379  0.00  0.00    +0.000 A 
ATOM     18  O   UNL     1       5.816   3.408  13.814  0.00  0.00    +0.000 OA
BRANCH  14  19
ATOM     19  C   UNL     1       5.271   2.538  11.580  0.00  0.00    +0.000 C 
ATOM     20  O   UNL     1       5.711   1.561  10.982  0.00  0.00    +0.000 OA
BRANCH  19  22
ATOM     21  C   UNL     1       3.623   3.673  10.324  0.00  0.00    +0.000 C 
ATOM     22  O   UNL     1       3.971   2.964  11.511  0.00  0.00    +0.000 OA
ENDBRANCH  19  22
ENDBRANCH  14  19
ENDBRANCH  13  17
ENDBRANCH  12  13
ENDBRANCH   1  12
BRANCH   5  23
ATOM     23  C   UNL     1       2.122   4.933  17.873  0.00  0.00    +0.000 C 
BRANCH  23  24
ATOM     24  C   UNL     1       2.200   4.062  19.106  0.00  0.00    +0.000 A 
ATOM     25  C   UNL     1       3.419   3.532  19.560  0.00  0.00    +0.000 A 
ATOM     26  C   UNL     1       3.485   2.834  20.767  0.00  0.00    +0.000 A 
ATOM     27  C   UNL     1       2.340   2.663  21.540  0.00  0.00    +0.000 A 
ATOM     28  C   UNL     1       1.120   3.166  21.096  0.00  0.00    +0.000 A 
ATOM     29  C   UNL     1       1.049   3.862  19.888  0.00  0.00    +0.000 A 
ENDBRANCH  23  24
ENDBRANCH   5  23
TORSDOF 8
ENDMDL
MODEL 2
REMARK VINA RESULT:      -8.0      0.967      1.549
REMARK  Name = 
REMARK  9 active torsions:
REMARK  status: ('A' for Active; 'I' for Inactive)
REMARK    1  A    between atoms: C_1  and  O_2
REMARK    2  A    between atoms: O_2  and  C_3
REMARK    3  A    between atoms: C_3  and  C_5
REMARK    4  A    between atoms: C_8  and  C_9
REMARK    5  A    between atoms: C_9  and  S_10
REMARK    6  A    between atoms: S_10  and  C_11
REMARK    7  A    between atoms: C_14  and  C_15
REMARK    8  A    between atoms: N_21  and  C_22
REMARK    9  A    between atoms: C_22  and  C_23
REMARK                            x       y       z     vdW  Elec       q    Type
REMARK                         _______ _______ _______ _____ _____    ______ ____
ROOT
ATOM      1  C   UNL     1       4.109   5.637  17.323  0.00  0.00    +0.000 A 
ATOM      2  N   UNL     1       4.885   6.677  17.157  0.00  0.00    +0.000 NA
ATOM      3  N   UNL     1       4.192   7.791  17.583  0.00  0.00    +0.000 NA
ATOM      4  C   UNL     1       3.004   7.415  18.035  0.00  0.00    +0.000 A 
ATOM      5  N   UNL     1       2.891   6.048  17.819  0.00  0.00    +0.000 N 
ENDROOT
BRANCH   4   6
ATOM      6  C   UNL     1       2.001   8.331  18.607  0.00  0.00    +0.000 A 
ATOM      7  C   UNL     1       1.731   8.282  19.977  0.00  0.00    +0.000 A 
ATOM      8  C   UNL     1       0.768   9.133  20.507  0.00  0.00    +0.000 A 
ATOM      9  N   UNL     1       0.068  10.024  19.776  0.00  0.00    +0.000 NA
ATOM     10  C   UNL     1       0.325  10.047  18.455  0.00  0.00    +0.000 A 
ATOM     11  C   UNL     1       1.252   9.221  17.833  0.00  0.00    +0.000 A 
ENDBRANCH   4   6
BRANCH   1  12
ATOM     12  S   UNL     1       4.522   3.983  16.997  0.00  0.00    +0.000 S 
BRANCH  12  13
ATOM     13  C   UNL     1       6.307   4.072  16.639  0.00  0.00    +0.000 C 
BRANCH  13  17
ATOM     14  C   UNL     1       6.219   3.710  13.039  0.00  0.00    +0.000 A 
ATOM     15  C   UNL     1       7.126   4.755  13.066  0.00  0.00    +0.000 A 
ATOM     16  C   UNL     1       7.344   5.082  14.430  0.00  0.00    +0.000 A 
ATOM     17  C   UNL     1       6.553   4.226  15.174  0.00  0.00    +0.000 A 
ATOM     18  O   UNL     1       5.866   3.394  14.332  0.00  0.00    +0.000 OA
BRANCH  14  19
ATOM     19  C   UNL     1       5.658   2.991  11.915  0.00  0.00    +0.000 C 
ATOM     20  O   UNL     1       4.504   3.093  11.511  0.00  0.00    +0.000 OA
BRANCH  19  22
ATOM     21  C   UNL     1       6.202   0.816  11.168  0.00  0.00    +0.000 C 
ATOM     22  O   UNL     1       6.602   2.172  11.354  0.00  0.00    +0.000 OA
ENDBRANCH  19  22
ENDBRANCH  14  19
ENDBRANCH  13  17
ENDBRANCH  12  13
ENDBRANCH   1  12
BRANCH   5  23
ATOM     23  C   UNL     1       1.716   5.216  18.027  0.00  0.00    +0.000 C 
BRANCH  23  24
ATOM     24  C   UNL     1       1.804   4.309  19.233  0.00  0.00    +0.000 A 
ATOM     25  C   UNL     1       2.252   4.778  20.479  0.00  0.00    +0.000 A 
ATOM     26  C   UNL     1       2.209   3.956  21.605  0.00  0.00    +0.000 A 
ATOM     27  C   UNL     1       1.710   2.660  21.507  0.00  0.00    +0.000 A 
ATOM     28  C   UNL     1       1.277   2.173  20.277  0.00  0.00    +0.000 A 
ATOM     29  C   UNL     1       1.323   2.991  19.146  0.00  0.00    +0.000 A 
ENDBRANCH  23  24
ENDBRANCH   5  23
TORSDOF 8
ENDMDL
MODEL 3
REMARK VINA RESULT:      -7.8      0.792      1.245
REMARK  Name = 
REMARK  9 active torsions:
REMARK  status: ('A' for Active; 'I' for Inactive)
REMARK    1  A    between atoms: C_1  and  O_2
REMARK    2  A    between atoms: O_2  and  C_3
REMARK    3  A    between atoms: C_3  and  C_5
REMARK    4  A    between atoms: C_8  and  C_9
REMARK    5  A    between atoms: C_9  and  S_10
REMARK    6  A    between atoms: S_10  and  C_11
REMARK    7  A    between atoms: C_14  and  C_15
REMARK    8  A    between atoms: N_21  and  C_22
REMARK    9  A    between atoms: C_22  and  C_23
REMARK                            x       y       z     vdW  Elec       q    Type
REMARK                         _______ _______ _______ _____ _____    ______ ____
ROOT
ATOM      1  C   UNL     1       4.137   5.573  17.250  0.00  0.00    +0.000 A 
ATOM      2  N   UNL     1       4.939   6.601  17.142  0.00  0.00    +0.000 NA
ATOM      3  N   UNL     1       4.265   7.710  17.607  0.00  0.00    +0.000 NA
ATOM      4  C   UNL     1       3.061   7.343  18.024  0.00  0.00    +0.000 A 
ATOM      5  N   UNL     1       2.921   5.989  17.746  0.00  0.00    +0.000 N 
ENDROOT
BRANCH   4   6
ATOM      6  C   UNL     1       2.070   8.255  18.621  0.00  0.00    +0.000 A 
ATOM      7  C   UNL     1       1.839   8.209  19.999  0.00  0.00    +0.000 A 
ATOM      8  C   UNL     1       0.887   9.057  20.553  0.00  0.00    +0.000 A 
ATOM      9  N   UNL     1       0.162   9.941  19.840  0.00  0.00    +0.000 NA
ATOM     10  C   UNL     1       0.381   9.961  18.512  0.00  0.00    +0.000 A 
ATOM     11  C   UNL     1       1.295   9.138  17.867  0.00  0.00    +0.000 A 
ENDBRANCH   4   6
BRANCH   1  12
ATOM     12  S   UNL     1       4.518   3.926  16.856  0.00  0.00    +0.000 S 
BRANCH  12  13
ATOM     13  C   UNL     1       6.289   4.007  16.431  0.00  0.00    +0.000 C 
BRANCH  13  17
ATOM     14  C   UNL     1       6.052   3.599  12.843  0.00  0.00    +0.000 A 
ATOM     15  C   UNL     1       6.983   4.623  12.819  0.00  0.00    +0.000 A 
ATOM     16  C   UNL     1       7.262   4.963  14.169  0.00  0.00    +0.000 A 
ATOM     17  C   UNL     1       6.480   4.136  14.955  0.00  0.00    +0.000 A 
ATOM     18  O   UNL     1       5.743   3.309  14.153  0.00  0.00    +0.000 OA
BRANCH  14  19
ATOM     19  C   UNL     1       5.432   2.878  11.752  0.00  0.00    +0.000 C 
ATOM     20  O   UNL     1       5.635   1.701  11.472  0.00  0.00    +0.000 OA
BRANCH  19  22
ATOM     21  C   UNL     1       3.310   3.123  10.743  0.00  0.00    +0.000 C 
ATOM     22  O   UNL     1       4.574   3.697  11.066  0.00  0.00    +0.000 OA
ENDBRANCH  19  22
ENDBRANCH  14  19
ENDBRANCH  13  17
ENDBRANCH  12  13
ENDBRANCH   1  12
BRANCH   5  23
ATOM     23  C   UNL     1       1.725   5.177  17.898  0.00  0.00    +0.000 C 
BRANCH  23  24
ATOM     24  C   UNL     1       1.695   4.347  19.161  0.00  0.00    +0.000 A 
ATOM     25  C   UNL     1       1.340   2.989  19.145  0.00  0.00    +0.000 A 
ATOM     26  C   UNL     1       1.438   2.214  20.301  0.00  0.00    +0.000 A 
ATOM     27  C   UNL     1       1.900   2.781  21.486  0.00  0.00    +0.000 A 
ATOM     28  C   UNL     1       2.240   4.130  21.525  0.00  0.00    +0.000 A 
ATOM     29  C   UNL     1       2.140   4.910  20.371  0.00  0.00    +0.000 A 
ENDBRANCH  23  24
ENDBRANCH   5  23
TORSDOF 8
ENDMDL
MODEL 4
REMARK VINA RESULT:      -7.8      0.863      1.284
REMARK  Name = 
REMARK  9 active torsions:
REMARK  status: ('A' for Active; 'I' for Inactive)
REMARK    1  A    between atoms: C_1  and  O_2
REMARK    2  A    between atoms: O_2  and  C_3
REMARK    3  A    between atoms: C_3  and  C_5
REMARK    4  A    between atoms: C_8  and  C_9
REMARK    5  A    between atoms: C_9  and  S_10
REMARK    6  A    between atoms: S_10  and  C_11
REMARK    7  A    between atoms: C_14  and  C_15
REMARK    8  A    between atoms: N_21  and  C_22
REMARK    9  A    between atoms: C_22  and  C_23
REMARK                            x       y       z     vdW  Elec       q    Type
REMARK                         _______ _______ _______ _____ _____    ______ ____
ROOT
ATOM      1  C   UNL     1       4.156   5.646  17.148  0.00  0.00    +0.000 A 
ATOM      2  N   UNL     1       4.933   6.696  17.078  0.00  0.00    +0.000 NA
ATOM      3  N   UNL     1       4.232   7.772  17.580  0.00  0.00    +0.000 NA
ATOM      4  C   UNL     1       3.037   7.361  17.982  0.00  0.00    +0.000 A 
ATOM      5  N   UNL     1       2.930   6.016  17.656  0.00  0.00    +0.000 N 
ENDROOT
BRANCH   4   6
ATOM      6  C   UNL     1       2.023   8.228  18.609  0.00  0.00    +0.000 A 
ATOM      7  C   UNL     1       1.330   9.152  17.821  0.00  0.00    +0.000 A 
ATOM      8  C   UNL     1       0.391   9.982  18.422  0.00  0.00    +0.000 A 
ATOM      9  N   UNL     1       0.094   9.953  19.736  0.00  0.00    +0.000 NA
ATOM     10  C   UNL     1       0.782   9.073  20.486  0.00  0.00    +0.000 A 
ATOM     11  C   UNL     1       1.753   8.218  19.979  0.00  0.00    +0.000 A 
ENDBRANCH   4   6
BRANCH   1  12
ATOM     12  S   UNL     1       4.576   4.023  16.697  0.00  0.00    +0.000 S 
BRANCH  12  13
ATOM     13  C   UNL     1       6.343   4.163  16.274  0.00  0.00    +0.000 C 
BRANCH  13  17
ATOM     14  C   UNL     1       6.091   3.528  12.719  0.00  0.00    +0.000 A 
ATOM     15  C   UNL     1       7.058   4.515  12.631  0.00  0.00    +0.000 A 
ATOM     16  C   UNL     1       7.349   4.933  13.956  0.00  0.00    +0.000 A 
ATOM     17  C   UNL     1       6.539   4.188  14.793  0.00  0.00    +0.000 A 
ATOM     18  O   UNL     1       5.773   3.336  14.045  0.00  0.00    +0.000 OA
BRANCH  14  19
ATOM     19  C   UNL     1       5.445   2.759  11.677  0.00  0.00    +0.000 C 
ATOM     20  O   UNL     1       4.261   2.839  11.365  0.00  0.00    +0.000 OA
BRANCH  19  22
ATOM     21  C   UNL     1       6.176   0.535  11.362  0.00  0.00    +0.000 C 
ATOM     22  O   UNL     1       6.346   1.921  11.076  0.00  0.00    +0.000 OA
ENDBRANCH  19  22
ENDBRANCH  14  19
ENDBRANCH  13  17
ENDBRANCH  12  13
ENDBRANCH   1  12
BRANCH   5  23
ATOM     23  C   UNL     1       1.752   5.170  17.777  0.00  0.00    +0.000 C 
BRANCH  23  24
ATOM     24  C   UNL     1       1.736   4.305  19.016  0.00  0.00    +0.000 A 
ATOM     25  C   UNL     1       1.475   2.926  18.952  0.00  0.00    +0.000 A 
ATOM     26  C   UNL     1       1.586   2.128  20.091  0.00  0.00    +0.000 A 
ATOM     27  C   UNL     1       1.966   2.691  21.306  0.00  0.00    +0.000 A 
ATOM     28  C   UNL     1       2.211   4.059  21.392  0.00  0.00    +0.000 A 
ATOM     29  C   UNL     1       2.097   4.862  20.256  0.00  0.00    +0.000 A 
ENDBRANCH  23  24
ENDBRANCH   5  23
TORSDOF 8
ENDMDL
MODEL 5
REMARK VINA RESULT:      -7.7      1.648      3.945
REMARK  Name = 
REMARK  9 active torsions:
REMARK  status: ('A' for Active; 'I' for Inactive)
REMARK    1  A    between atoms: C_1  and  O_2
REMARK    2  A    between atoms: O_2  and  C_3
REMARK    3  A    between atoms: C_3  and  C_5
REMARK    4  A    between atoms: C_8  and  C_9
REMARK    5  A    between atoms: C_9  and  S_10
REMARK    6  A    between atoms: S_10  and  C_11
REMARK    7  A    between atoms: C_14  and  C_15
REMARK    8  A    between atoms: N_21  and  C_22
REMARK    9  A    between atoms: C_22  and  C_23
REMARK                            x       y       z     vdW  Elec       q    Type
REMARK                         _______ _______ _______ _____ _____    ______ ____
ROOT
ATOM      1  C   UNL     1       4.617   4.656  16.647  0.00  0.00    +0.000 A 
ATOM      2  N   UNL     1       4.339   3.453  16.213  0.00  0.00    +0.000 NA
ATOM      3  N   UNL     1       3.653   2.795  17.211  0.00  0.00    +0.000 NA
ATOM      4  C   UNL     1       3.491   3.615  18.240  0.00  0.00    +0.000 A 
ATOM      5  N   UNL     1       4.158   4.795  17.938  0.00  0.00    +0.000 N 
ENDROOT
BRANCH   4   6
ATOM      6  C   UNL     1       2.769   3.270  19.478  0.00  0.00    +0.000 A 
ATOM      7  C   UNL     1       1.396   3.519  19.563  0.00  0.00    +0.000 A 
ATOM      8  C   UNL     1       0.726   3.211  20.740  0.00  0.00    +0.000 A 
ATOM      9  N   UNL     1       1.319   2.673  21.825  0.00  0.00    +0.000 NA
ATOM     10  C   UNL     1       2.644   2.456  21.735  0.00  0.00    +0.000 A 
ATOM     11  C   UNL     1       3.402   2.751  20.610  0.00  0.00    +0.000 A 
ENDBRANCH   4   6
BRANCH   1  12
ATOM     12  S   UNL     1       5.421   5.910  15.756  0.00  0.00    +0.000 S 
BRANCH  12  13
ATOM     13  C   UNL     1       7.016   5.142  15.320  0.00  0.00    +0.000 C 
BRANCH  13  17
ATOM     14  C   UNL     1       6.355   3.397  12.218  0.00  0.00    +0.000 A 
ATOM     15  C   UNL     1       7.245   4.316  11.690  0.00  0.00    +0.000 A 
ATOM     16  C   UNL     1       7.676   5.141  12.762  0.00  0.00    +0.000 A 
ATOM     17  C   UNL     1       7.022   4.693  13.895  0.00  0.00    +0.000 A 
ATOM     18  O   UNL     1       6.217   3.636  13.567  0.00  0.00    +0.000 OA
BRANCH  14  19
ATOM     19  C   UNL     1       5.629   2.325  11.571  0.00  0.00    +0.000 C 
ATOM     20  O   UNL     1       6.129   1.302  11.115  0.00  0.00    +0.000 OA
BRANCH  19  22
ATOM     21  C   UNL     1       3.919   3.712  10.715  0.00  0.00    +0.000 C 
ATOM     22  O   UNL     1       4.289   2.609  11.539  0.00  0.00    +0.000 OA
ENDBRANCH  19  22
ENDBRANCH  14  19
ENDBRANCH  13  17
ENDBRANCH  12  13
ENDBRANCH   1  12
BRANCH   5  23
ATOM     23  C   UNL     1       4.375   5.934  18.815  0.00  0.00    +0.000 C 
BRANCH  23  24
ATOM     24  C   UNL     1       3.246   6.939  18.818  0.00  0.00    +0.000 A 
ATOM     25  C   UNL     1       2.402   7.100  19.929  0.00  0.00    +0.000 A 
ATOM     26  C   UNL     1       1.446   8.115  19.955  0.00  0.00    +0.000 A 
ATOM     27  C   UNL     1       1.324   8.989  18.879  0.00  0.00    +0.000 A 
ATOM     28  C   UNL     1       2.140   8.834  17.761  0.00  0.00    +0.000 A 
ATOM     29  C   UNL     1       3.095   7.817  17.730  0.00  0.00    +0.000 A 
ENDBRANCH  23  24
ENDBRANCH   5  23
TORSDOF 8
ENDMDL
MODEL 6
REMARK VINA RESULT:      -7.7      1.337      2.127
REMARK  Name = 
REMARK  9 active torsions:
REMARK  status: ('A' for Active; 'I' for Inactive)
REMARK    1  A    between atoms: C_1  and  O_2
REMARK    2  A    between atoms: O_2  and  C_3
REMARK    3  A    between atoms: C_3  and  C_5
REMARK    4  A    between atoms: C_8  and  C_9
REMARK    5  A    between atoms: C_9  and  S_10
REMARK    6  A    between atoms: S_10  and  C_11
REMARK    7  A    between atoms: C_14  and  C_15
REMARK    8  A    between atoms: N_21  and  C_22
REMARK    9  A    between atoms: C_22  and  C_23
REMARK                            x       y       z     vdW  Elec       q    Type
REMARK                         _______ _______ _______ _____ _____    ______ ____
ROOT
ATOM      1  C   UNL     1       3.944   6.363  18.275  0.00  0.00    +0.000 A 
ATOM      2  N   UNL     1       4.060   7.115  17.210  0.00  0.00    +0.000 NA
ATOM      3  N   UNL     1       3.108   8.108  17.292  0.00  0.00    +0.000 NA
ATOM      4  C   UNL     1       2.435   7.972  18.426  0.00  0.00    +0.000 A 
ATOM      5  N   UNL     1       2.900   6.821  19.048  0.00  0.00    +0.000 N 
ENDROOT
BRANCH   4   6
ATOM      6  C   UNL     1       1.361   8.877  18.874  0.00  0.00    +0.000 A 
ATOM      7  C   UNL     1       1.065   8.967  20.237  0.00  0.00    +0.000 A 
ATOM      8  C   UNL     1       0.037   9.806  20.651  0.00  0.00    +0.000 A 
ATOM      9  N   UNL     1      -0.704  10.556  19.812  0.00  0.00    +0.000 NA
ATOM     10  C   UNL     1      -0.421  10.445  18.501  0.00  0.00    +0.000 A 
ATOM     11  C   UNL     1       0.572   9.618  17.992  0.00  0.00    +0.000 A 
ENDBRANCH   4   6
BRANCH   1  12
ATOM     12  S   UNL     1       4.943   5.005  18.689  0.00  0.00    +0.000 S 
BRANCH  12  13
ATOM     13  C   UNL     1       4.722   3.887  17.267  0.00  0.00    +0.000 C 
BRANCH  13  17
ATOM     14  C   UNL     1       6.411   4.132  14.075  0.00  0.00    +0.000 A 
ATOM     15  C   UNL     1       7.299   4.926  14.780  0.00  0.00    +0.000 A 
ATOM     16  C   UNL     1       6.840   4.974  16.122  0.00  0.00    +0.000 A 
ATOM     17  C   UNL     1       5.686   4.213  16.174  0.00  0.00    +0.000 A 
ATOM     18  O   UNL     1       5.422   3.703  14.932  0.00  0.00    +0.000 OA
BRANCH  14  19
ATOM     19  C   UNL     1       6.409   3.747  12.680  0.00  0.00    +0.000 C 
ATOM     20  O   UNL     1       7.183   4.168  11.826  0.00  0.00    +0.000 OA
BRANCH  19  22
ATOM     21  C   UNL     1       4.445   3.232  11.472  0.00  0.00    +0.000 C 
ATOM     22  O   UNL     1       5.416   2.836  12.438  0.00  0.00    +0.000 OA
ENDBRANCH  19  22
ENDBRANCH  14  19
ENDBRANCH  13  17
ENDBRANCH  12  13
ENDBRANCH   1  12
BRANCH   5  23
ATOM     23  C   UNL     1       2.370   6.190  20.247  0.00  0.00    +0.000 C 
BRANCH  23  24
ATOM     24  C   UNL     1       1.836   4.793  20.028  0.00  0.00    +0.000 A 
ATOM     25  C   UNL     1       1.405   4.357  18.764  0.00  0.00    +0.000 A 
ATOM     26  C   UNL     1       1.032   3.028  18.560  0.00  0.00    +0.000 A 
ATOM     27  C   UNL     1       1.093   2.115  19.609  0.00  0.00    +0.000 A 
ATOM     28  C   UNL     1       1.502   2.534  20.872  0.00  0.00    +0.000 A 
ATOM     29  C   UNL     1       1.872   3.863  21.082  0.00  0.00    +0.000 A 
ENDBRANCH  23  24
ENDBRANCH   5  23
TORSDOF 8
ENDMDL
MODEL 7
REMARK VINA RESULT:      -7.6      4.664      7.794
REMARK  Name = 
REMARK  9 active torsions:
REMARK  status: ('A' for Active; 'I' for Inactive)
REMARK    1  A    between atoms: C_1  and  O_2
REMARK    2  A    between atoms: O_2  and  C_3
REMARK    3  A    between atoms: C_3  and  C_5
REMARK    4  A    between atoms: C_8  and  C_9
REMARK    5  A    between atoms: C_9  and  S_10
REMARK    6  A    between atoms: S_10  and  C_11
REMARK    7  A    between atoms: C_14  and  C_15
REMARK    8  A    between atoms: N_21  and  C_22
REMARK    9  A    between atoms: C_22  and  C_23
REMARK                            x       y       z     vdW  Elec       q    Type
REMARK                         _______ _______ _______ _____ _____    ______ ____
ROOT
ATOM      1  C   UNL     1       0.709   9.708  21.320  0.00  0.00    +0.000 A 
ATOM      2  N   UNL     1       0.722   9.295  22.561  0.00  0.00    +0.000 NA
ATOM      3  N   UNL     1      -0.039  10.173  23.304  0.00  0.00    +0.000 NA
ATOM      4  C   UNL     1      -0.537  11.103  22.500  0.00  0.00    +0.000 A 
ATOM      5  N   UNL     1      -0.020  10.873  21.232  0.00  0.00    +0.000 N 
ENDROOT
BRANCH   4   6
ATOM      6  C   UNL     1      -1.430  12.190  22.935  0.00  0.00    +0.000 A 
ATOM      7  C   UNL     1      -2.758  11.898  23.260  0.00  0.00    +0.000 A 
ATOM      8  C   UNL     1      -3.602  12.931  23.648  0.00  0.00    +0.000 A 
ATOM      9  N   UNL     1      -3.219  14.220  23.740  0.00  0.00    +0.000 NA
ATOM     10  C   UNL     1      -1.943  14.490  23.406  0.00  0.00    +0.000 A 
ATOM     11  C   UNL     1      -1.033  13.528  22.987  0.00  0.00    +0.000 A 
ENDBRANCH   4   6
BRANCH   1  12
ATOM     12  S   UNL     1       1.466   8.925  19.968  0.00  0.00    +0.000 S 
BRANCH  12  13
ATOM     13  C   UNL     1       1.684   7.214  20.556  0.00  0.00    +0.000 C 
BRANCH  13  17
ATOM     14  C   UNL     1       4.052   4.969  18.989  0.00  0.00    +0.000 A 
ATOM     15  C   UNL     1       3.358   5.290  17.835  0.00  0.00    +0.000 A 
ATOM     16  C   UNL     1       2.341   6.209  18.203  0.00  0.00    +0.000 A 
ATOM     17  C   UNL     1       2.455   6.402  19.568  0.00  0.00    +0.000 A 
ATOM     18  O   UNL     1       3.492   5.648  20.048  0.00  0.00    +0.000 OA
BRANCH  14  19
ATOM     19  C   UNL     1       5.184   4.088  19.182  0.00  0.00    +0.000 C 
ATOM     20  O   UNL     1       5.115   2.885  19.412  0.00  0.00    +0.000 OA
BRANCH  19  22
ATOM     21  C   UNL     1       6.995   4.706  17.798  0.00  0.00    +0.000 C 
ATOM     22  O   UNL     1       6.356   4.786  19.070  0.00  0.00    +0.000 OA
ENDBRANCH  19  22
ENDBRANCH  14  19
ENDBRANCH  13  17
ENDBRANCH  12  13
ENDBRANCH   1  12
BRANCH   5  23
ATOM     23  C   UNL     1      -0.171  11.712  20.053  0.00  0.00    +0.000 C 
BRANCH  23  24
ATOM     24  C   UNL     1      -1.408  11.414  19.235  0.00  0.00    +0.000 A 
ATOM     25  C   UNL     1      -1.470  10.313  18.365  0.00  0.00    +0.000 A 
ATOM     26  C   UNL     1      -2.661   9.987  17.715  0.00  0.00    +0.000 A 
ATOM     27  C   UNL     1      -3.806  10.748  17.930  0.00  0.00    +0.000 A 
ATOM     28  C   UNL     1      -3.759  11.853  18.777  0.00  0.00    +0.000 A 
ATOM     29  C   UNL     1      -2.568  12.184  19.426  0.00  0.00    +0.000 A 
ENDBRANCH  23  24
ENDBRANCH   5  23
TORSDOF 8
ENDMDL
MODEL 8
REMARK VINA RESULT:      -7.6      1.627      3.948
REMARK  Name = 
REMARK  9 active torsions:
REMARK  status: ('A' for Active; 'I' for Inactive)
REMARK    1  A    between atoms: C_1  and  O_2
REMARK    2  A    between atoms: O_2  and  C_3
REMARK    3  A    between atoms: C_3  and  C_5
REMARK    4  A    between atoms: C_8  and  C_9
REMARK    5  A    between atoms: C_9  and  S_10
REMARK    6  A    between atoms: S_10  and  C_11
REMARK    7  A    between atoms: C_14  and  C_15
REMARK    8  A    between atoms: N_21  and  C_22
REMARK    9  A    between atoms: C_22  and  C_23
REMARK                            x       y       z     vdW  Elec       q    Type
REMARK                         _______ _______ _______ _____ _____    ______ ____
ROOT
ATOM      1  C   UNL     1       4.745   4.739  16.782  0.00  0.00    +0.000 A 
ATOM      2  N   UNL     1       4.443   3.556  16.311  0.00  0.00    +0.000 NA
ATOM      3  N   UNL     1       3.696   2.902  17.266  0.00  0.00    +0.000 NA
ATOM      4  C   UNL     1       3.522   3.705  18.307  0.00  0.00    +0.000 A 
ATOM      5  N   UNL     1       4.240   4.867  18.057  0.00  0.00    +0.000 N 
ENDROOT
BRANCH   4   6
ATOM      6  C   UNL     1       2.741   3.359  19.507  0.00  0.00    +0.000 A 
ATOM      7  C   UNL     1       3.385   2.764  20.596  0.00  0.00    +0.000 A 
ATOM      8  C   UNL     1       2.639   2.419  21.717  0.00  0.00    +0.000 A 
ATOM      9  N   UNL     1       1.312   2.629  21.830  0.00  0.00    +0.000 NA
ATOM     10  C   UNL     1       0.702   3.185  20.767  0.00  0.00    +0.000 A 
ATOM     11  C   UNL     1       1.359   3.543  19.597  0.00  0.00    +0.000 A 
ENDBRANCH   4   6
BRANCH   1  12
ATOM     12  S   UNL     1       5.626   5.983  15.951  0.00  0.00    +0.000 S 
BRANCH  12  13
ATOM     13  C   UNL     1       7.152   5.130  15.440  0.00  0.00    +0.000 C 
BRANCH  13  17
ATOM     14  C   UNL     1       6.227   3.533  12.327  0.00  0.00    +0.000 A 
ATOM     15  C   UNL     1       7.212   4.347  11.794  0.00  0.00    +0.000 A 
ATOM     16  C   UNL     1       7.759   5.096  12.869  0.00  0.00    +0.000 A 
ATOM     17  C   UNL     1       7.077   4.709  14.009  0.00  0.00    +0.000 A 
ATOM     18  O   UNL     1       6.145   3.762  13.682  0.00  0.00    +0.000 OA
BRANCH  14  19
ATOM     19  C   UNL     1       5.364   2.568  11.679  0.00  0.00    +0.000 C 
ATOM     20  O   UNL     1       5.723   1.486  11.225  0.00  0.00    +0.000 OA
BRANCH  19  22
ATOM     21  C   UNL     1       3.665   3.598  10.400  0.00  0.00    +0.000 C 
ATOM     22  O   UNL     1       4.075   3.031  11.642  0.00  0.00    +0.000 OA
ENDBRANCH  19  22
ENDBRANCH  14  19
ENDBRANCH  13  17
ENDBRANCH  12  13
ENDBRANCH   1  12
BRANCH   5  23
ATOM     23  C   UNL     1       4.461   5.980  18.968  0.00  0.00    +0.000 C 
BRANCH  23  24
ATOM     24  C   UNL     1       3.382   7.038  18.927  0.00  0.00    +0.000 A 
ATOM     25  C   UNL     1       3.185   7.848  17.797  0.00  0.00    +0.000 A 
ATOM     26  C   UNL     1       2.107   8.732  17.735  0.00  0.00    +0.000 A 
ATOM     27  C   UNL     1       1.207   8.813  18.794  0.00  0.00    +0.000 A 
ATOM     28  C   UNL     1       1.396   8.029  19.929  0.00  0.00    +0.000 A 
ATOM     29  C   UNL     1       2.476   7.146  19.996  0.00  0.00    +0.000 A 
ENDBRANCH  23  24
ENDBRANCH   5  23
TORSDOF 8
ENDMDL
MODEL 9
REMARK VINA RESULT:      -7.6      4.133      7.512
REMARK  Name = 
REMARK  9 active torsions:
REMARK  status: ('A' for Active; 'I' for Inactive)
REMARK    1  A    between atoms: C_1  and  O_2
REMARK    2  A    between atoms: O_2  and  C_3
REMARK    3  A    between atoms: C_3  and  C_5
REMARK    4  A    between atoms: C_8  and  C_9
REMARK    5  A    between atoms: C_9  and  S_10
REMARK    6  A    between atoms: S_10  and  C_11
REMARK    7  A    between atoms: C_14  and  C_15
REMARK    8  A    between atoms: N_21  and  C_22
REMARK    9  A    between atoms: C_22  and  C_23
REMARK                            x       y       z     vdW  Elec       q    Type
REMARK                         _______ _______ _______ _____ _____    ______ ____
ROOT
ATOM      1  C   UNL     1       0.870   9.455  21.147  0.00  0.00    +0.000 A 
ATOM      2  N   UNL     1       0.923   9.085  22.401  0.00  0.00    +0.000 NA
ATOM      3  N   UNL     1       0.194   9.994  23.138  0.00  0.00    +0.000 NA
ATOM      4  C   UNL     1      -0.324  10.900  22.320  0.00  0.00    +0.000 A 
ATOM      5  N   UNL     1       0.147  10.622  21.044  0.00  0.00    +0.000 N 
ENDROOT
BRANCH   4   6
ATOM      6  C   UNL     1      -1.194  12.009  22.747  0.00  0.00    +0.000 A 
ATOM      7  C   UNL     1      -0.686  13.312  22.765  0.00  0.00    +0.000 A 
ATOM      8  C   UNL     1      -1.505  14.351  23.189  0.00  0.00    +0.000 A 
ATOM      9  N   UNL     1      -2.782  14.187  23.587  0.00  0.00    +0.000 NA
ATOM     10  C   UNL     1      -3.252  12.926  23.583  0.00  0.00    +0.000 A 
ATOM     11  C   UNL     1      -2.503  11.822  23.197  0.00  0.00    +0.000 A 
ENDBRANCH   4   6
BRANCH   1  12
ATOM     12  S   UNL     1       1.575   8.620  19.799  0.00  0.00    +0.000 S 
BRANCH  12  13
ATOM     13  C   UNL     1       1.790   6.926  20.435  0.00  0.00    +0.000 C 
BRANCH  13  17
ATOM     14  C   UNL     1       4.261   5.035  18.585  0.00  0.00    +0.000 A 
ATOM     15  C   UNL     1       3.181   4.692  17.791  0.00  0.00    +0.000 A 
ATOM     16  C   UNL     1       2.044   5.351  18.328  0.00  0.00    +0.000 A 
ATOM     17  C   UNL     1       2.482   6.060  19.432  0.00  0.00    +0.000 A 
ATOM     18  O   UNL     1       3.827   5.868  19.592  0.00  0.00    +0.000 OA
BRANCH  14  19
ATOM     19  C   UNL     1       5.653   4.650  18.483  0.00  0.00    +0.000 C 
ATOM     20  O   UNL     1       6.443   4.587  19.419  0.00  0.00    +0.000 OA
BRANCH  19  22
ATOM     21  C   UNL     1       7.326   4.610  16.815  0.00  0.00    +0.000 C 
ATOM     22  O   UNL     1       5.972   4.358  17.183  0.00  0.00    +0.000 OA
ENDBRANCH  19  22
ENDBRANCH  14  19
ENDBRANCH  13  17
ENDBRANCH  12  13
ENDBRANCH   1  12
BRANCH   5  23
ATOM     23  C   UNL     1      -0.039  11.421  19.842  0.00  0.00    +0.000 C 
BRANCH  23  24
ATOM     24  C   UNL     1      -1.320  11.127  19.095  0.00  0.00    +0.000 A 
ATOM     25  C   UNL     1      -2.482  11.891  19.293  0.00  0.00    +0.000 A 
ATOM     26  C   UNL     1      -3.614  11.681  18.505  0.00  0.00    +0.000 A 
ATOM     27  C   UNL     1      -3.600  10.712  17.504  0.00  0.00    +0.000 A 
ATOM     28  C   UNL     1      -2.463   9.934  17.306  0.00  0.00    +0.000 A 
ATOM     29  C   UNL     1      -1.329  10.139  18.095  0.00  0.00    +0.000 A 
ENDBRANCH  23  24
ENDBRANCH   5  23
TORSDOF 8
ENDMDL
