MODEL 1
REMARK VINA RESULT:      -8.4      0.000      0.000
REMARK  Name = 
REMARK  8 active torsions:
REMARK  status: ('A' for Active; 'I' for Inactive)
REMARK    1  A    between atoms: C_1  and  O_2
REMARK    2  A    between atoms: O_2  and  C_3
REMARK    3  A    between atoms: C_8  and  N_9
REMARK    4  A    between atoms: C_11  and  C_12
REMARK    5  A    between atoms: C_17  and  S_18
REMARK    6  A    between atoms: S_18  and  C_21
REMARK    7  A    between atoms: C_24  and  C_25
REMARK    8  A    between atoms: C_25  and  O_27
REMARK                            x       y       z     vdW  Elec       q    Type
REMARK                         _______ _______ _______ _____ _____    ______ ____
ROOT
ATOM      1  C   UNL     1       2.784   5.096  19.339  0.00  0.00    +0.000 A 
ATOM      2  C   UNL     1       1.759   4.229  19.806  0.00  0.00    +0.000 A 
ATOM      3  C   UNL     1       1.991   2.907  20.208  0.00  0.00    +0.000 A 
ATOM      4  C   UNL     1       3.271   2.390  20.163  0.00  0.00    +0.000 A 
ATOM      5  C   UNL     1       4.297   3.188  19.675  0.00  0.00    +0.000 A 
ATOM      6  C   UNL     1       4.066   4.522  19.247  0.00  0.00    +0.000 A 
ENDROOT
BRANCH   1   9
ATOM      7  N   UNL     1       1.674   8.606  19.201  0.00  0.00    +0.000 N 
ATOM      8  C   UNL     1       2.015   7.518  20.004  0.00  0.00    +0.000 A 
ATOM      9  C   UNL     1       2.354   6.494  19.144  0.00  0.00    +0.000 A 
ATOM     10  N   UNL     1       2.275   6.994  17.863  0.00  0.00    +0.000 NA
ATOM     11  N   UNL     1       1.919   8.264  17.911  0.00  0.00    +0.000 NA
BRANCH   7  17
ATOM     12  C   UNL     1       0.096  10.086  20.457  0.00  0.00    +0.000 A 
ATOM     13  C   UNL     1      -0.479  11.364  20.616  0.00  0.00    +0.000 A 
ATOM     14  C   UNL     1      -0.134  12.422  19.778  0.00  0.00    +0.000 A 
ATOM     15  C   UNL     1       0.848  12.232  18.818  0.00  0.00    +0.000 A 
ATOM     16  C   UNL     1       1.472  10.985  18.694  0.00  0.00    +0.000 A 
ATOM     17  C   UNL     1       1.092   9.882  19.494  0.00  0.00    +0.000 A 
BRANCH  12  19
ATOM     18  C   UNL     1      -0.281   9.365  22.632  0.00  0.00    +0.000 C 
ATOM     19  O   UNL     1      -0.338   9.053  21.240  0.00  0.00    +0.000 OA
ENDBRANCH  12  19
ENDBRANCH   7  17
ENDBRANCH   1   9
BRANCH   6  20
ATOM     20  S   UNL     1       5.504   5.339  18.611  0.00  0.00    +0.000 S 
ATOM     21  O   UNL     1       5.171   6.744  18.435  0.00  0.00    +0.000 OA
ATOM     22  O   UNL     1       6.626   4.990  19.465  0.00  0.00    +0.000 OA
BRANCH  20  23
ATOM     23  C   UNL     1       5.850   4.778  16.970  0.00  0.00    +0.000 A 
ATOM     24  C   UNL     1       4.881   4.129  16.203  0.00  0.00    +0.000 A 
ATOM     25  C   UNL     1       5.160   3.832  14.867  0.00  0.00    +0.000 A 
ATOM     26  C   UNL     1       6.401   4.175  14.313  0.00  0.00    +0.000 A 
ATOM     27  C   UNL     1       7.372   4.808  15.100  0.00  0.00    +0.000 A 
ATOM     28  C   UNL     1       7.090   5.119  16.427  0.00  0.00    +0.000 A 
BRANCH  26  29
ATOM     29  C   UNL     1       6.644   3.896  12.883  0.00  0.00    +0.000 C 
ATOM     30  O   UNL     1       7.295   4.590  12.124  0.00  0.00    +0.000 OA
BRANCH  29  31
ATOM     31  O   UNL     1       6.042   2.770  12.470  0.00  0.00    +0.000 OA
ATOM     32  H   UNL     1       5.096   2.918  12.678  0.00  0.00    +0.000 HD
ENDBRANCH  29  31
ENDBRANCH  26  29
ENDBRANCH  20  23
ENDBRANCH   6  20
TORSDOF 7
ENDMDL
MODEL 2
REMARK VINA RESULT:      -8.4      1.030      1.364
REMARK  Name = 
REMARK  8 active torsions:
REMARK  status: ('A' for Active; 'I' for Inactive)
REMARK    1  A    between atoms: C_1  and  O_2
REMARK    2  A    between atoms: O_2  and  C_3
REMARK    3  A    between atoms: C_8  and  N_9
REMARK    4  A    between atoms: C_11  and  C_12
REMARK    5  A    between atoms: C_17  and  S_18
REMARK    6  A    between atoms: S_18  and  C_21
REMARK    7  A    between atoms: C_24  and  C_25
REMARK    8  A    between atoms: C_25  and  O_27
REMARK                            x       y       z     vdW  Elec       q    Type
REMARK                         _______ _______ _______ _____ _____    ______ ____
ROOT
ATOM      1  C   UNL     1       2.245   4.607  18.847  0.00  0.00    +0.000 A 
ATOM      2  C   UNL     1       0.994   3.938  18.749  0.00  0.00    +0.000 A 
ATOM      3  C   UNL     1       0.849   2.551  18.883  0.00  0.00    +0.000 A 
ATOM      4  C   UNL     1       1.958   1.764  19.125  0.00  0.00    +0.000 A 
ATOM      5  C   UNL     1       3.206   2.370  19.187  0.00  0.00    +0.000 A 
ATOM      6  C   UNL     1       3.364   3.773  19.033  0.00  0.00    +0.000 A 
ENDROOT
BRANCH   1   9
ATOM      7  N   UNL     1       1.856   8.253  19.197  0.00  0.00    +0.000 N 
ATOM      8  C   UNL     1       1.727   7.000  19.797  0.00  0.00    +0.000 A 
ATOM      9  C   UNL     1       2.147   6.079  18.859  0.00  0.00    +0.000 A 
ATOM     10  N   UNL     1       2.573   6.784  17.756  0.00  0.00    +0.000 NA
ATOM     11  N   UNL     1       2.442   8.077  17.986  0.00  0.00    +0.000 NA
BRANCH   7  17
ATOM     12  C   UNL     1       0.997   9.889  20.883  0.00  0.00    +0.000 A 
ATOM     13  C   UNL     1       0.522  11.188  21.159  0.00  0.00    +0.000 A 
ATOM     14  C   UNL     1       0.406  12.145  20.154  0.00  0.00    +0.000 A 
ATOM     15  C   UNL     1       0.836  11.835  18.872  0.00  0.00    +0.000 A 
ATOM     16  C   UNL     1       1.369  10.569  18.601  0.00  0.00    +0.000 A 
ATOM     17  C   UNL     1       1.438   9.565  19.594  0.00  0.00    +0.000 A 
BRANCH  12  19
ATOM     18  C   UNL     1       0.128   9.293  22.953  0.00  0.00    +0.000 C 
ATOM     19  O   UNL     1       1.006   8.953  21.880  0.00  0.00    +0.000 OA
ENDBRANCH  12  19
ENDBRANCH   7  17
ENDBRANCH   1   9
BRANCH   6  20
ATOM     20  S   UNL     1       5.046   4.324  19.093  0.00  0.00    +0.000 S 
ATOM     21  O   UNL     1       5.054   5.651  19.690  0.00  0.00    +0.000 OA
ATOM     22  O   UNL     1       5.834   3.275  19.715  0.00  0.00    +0.000 OA
BRANCH  20  23
ATOM     23  C   UNL     1       5.661   4.594  17.457  0.00  0.00    +0.000 A 
ATOM     24  C   UNL     1       6.993   4.944  17.230  0.00  0.00    +0.000 A 
ATOM     25  C   UNL     1       7.462   5.008  15.915  0.00  0.00    +0.000 A 
ATOM     26  C   UNL     1       6.600   4.734  14.845  0.00  0.00    +0.000 A 
ATOM     27  C   UNL     1       5.260   4.404  15.087  0.00  0.00    +0.000 A 
ATOM     28  C   UNL     1       4.795   4.324  16.397  0.00  0.00    +0.000 A 
BRANCH  26  29
ATOM     29  C   UNL     1       7.141   4.759  13.470  0.00  0.00    +0.000 C 
ATOM     30  O   UNL     1       7.958   5.553  13.043  0.00  0.00    +0.000 OA
BRANCH  29  31
ATOM     31  O   UNL     1       6.614   3.799  12.694  0.00  0.00    +0.000 OA
ATOM     32  H   UNL     1       5.767   3.577  13.134  0.00  0.00    +0.000 HD
ENDBRANCH  29  31
ENDBRANCH  26  29
ENDBRANCH  20  23
ENDBRANCH   6  20
TORSDOF 7
ENDMDL
MODEL 3
REMARK VINA RESULT:      -8.3      0.271      1.069
REMARK  Name = 
REMARK  8 active torsions:
REMARK  status: ('A' for Active; 'I' for Inactive)
REMARK    1  A    between atoms: C_1  and  O_2
REMARK    2  A    between atoms: O_2  and  C_3
REMARK    3  A    between atoms: C_8  and  N_9
REMARK    4  A    between atoms: C_11  and  C_12
REMARK    5  A    between atoms: C_17  and  S_18
REMARK    6  A    between atoms: S_18  and  C_21
REMARK    7  A    between atoms: C_24  and  C_25
REMARK    8  A    between atoms: C_25  and  O_27
REMARK                            x       y       z     vdW  Elec       q    Type
REMARK                         _______ _______ _______ _____ _____    ______ ____
ROOT
ATOM      1  C   UNL     1       2.919   4.967  19.175  0.00  0.00    +0.000 A 
ATOM      2  C   UNL     1       1.899   4.081  19.618  0.00  0.00    +0.000 A 
ATOM      3  C   UNL     1       2.142   2.754  19.998  0.00  0.00    +0.000 A 
ATOM      4  C   UNL     1       3.428   2.251  19.954  0.00  0.00    +0.000 A 
ATOM      5  C   UNL     1       4.449   3.069  19.489  0.00  0.00    +0.000 A 
ATOM      6  C   UNL     1       4.208   4.408  19.084  0.00  0.00    +0.000 A 
ENDROOT
BRANCH   1   9
ATOM      7  N   UNL     1       1.772   8.466  19.092  0.00  0.00    +0.000 N 
ATOM      8  C   UNL     1       2.114   7.366  19.879  0.00  0.00    +0.000 A 
ATOM      9  C   UNL     1       2.477   6.364  19.003  0.00  0.00    +0.000 A 
ATOM     10  N   UNL     1       2.409   6.888  17.731  0.00  0.00    +0.000 NA
ATOM     11  N   UNL     1       2.038   8.152  17.799  0.00  0.00    +0.000 NA
BRANCH   7  17
ATOM     12  C   UNL     1       0.179   9.908  20.374  0.00  0.00    +0.000 A 
ATOM     13  C   UNL     1      -0.415  11.175  20.551  0.00  0.00    +0.000 A 
ATOM     14  C   UNL     1      -0.092  12.247  19.722  0.00  0.00    +0.000 A 
ATOM     15  C   UNL     1       0.887  12.083  18.754  0.00  0.00    +0.000 A 
ATOM     16  C   UNL     1       1.530  10.847  18.613  0.00  0.00    +0.000 A 
ATOM     17  C   UNL     1       1.172   9.730  19.403  0.00  0.00    +0.000 A 
BRANCH  12  19
ATOM     18  C   UNL     1      -0.319   9.206  22.531  0.00  0.00    +0.000 C 
ATOM     19  O   UNL     1      -0.235   8.859  21.148  0.00  0.00    +0.000 OA
ENDBRANCH  12  19
ENDBRANCH   7  17
ENDBRANCH   1   9
BRANCH   6  20
ATOM     20  S   UNL     1       5.642   5.250  18.474  0.00  0.00    +0.000 S 
ATOM     21  O   UNL     1       5.379   6.679  18.549  0.00  0.00    +0.000 OA
ATOM     22  O   UNL     1       6.799   4.717  19.171  0.00  0.00    +0.000 OA
BRANCH  20  23
ATOM     23  C   UNL     1       5.840   4.948  16.743  0.00  0.00    +0.000 A 
ATOM     24  C   UNL     1       7.026   5.270  16.080  0.00  0.00    +0.000 A 
ATOM     25  C   UNL     1       7.183   4.883  14.746  0.00  0.00    +0.000 A 
ATOM     26  C   UNL     1       6.158   4.191  14.087  0.00  0.00    +0.000 A 
ATOM     27  C   UNL     1       4.966   3.892  14.759  0.00  0.00    +0.000 A 
ATOM     28  C   UNL     1       4.813   4.263  16.092  0.00  0.00    +0.000 A 
BRANCH  26  29
ATOM     29  C   UNL     1       6.378   3.750  12.694  0.00  0.00    +0.000 C 
ATOM     30  O   UNL     1       5.748   2.884  12.116  0.00  0.00    +0.000 OA
BRANCH  29  31
ATOM     31  O   UNL     1       7.390   4.403  12.103  0.00  0.00    +0.000 OA
ATOM     32  H   UNL     1       8.193   3.983  12.477  0.00  0.00    +0.000 HD
ENDBRANCH  29  31
ENDBRANCH  26  29
ENDBRANCH  20  23
ENDBRANCH   6  20
TORSDOF 7
ENDMDL
MODEL 4
REMARK VINA RESULT:      -8.1      4.839      7.941
REMARK  Name = 
REMARK  8 active torsions:
REMARK  status: ('A' for Active; 'I' for Inactive)
REMARK    1  A    between atoms: C_1  and  O_2
REMARK    2  A    between atoms: O_2  and  C_3
REMARK    3  A    between atoms: C_8  and  N_9
REMARK    4  A    between atoms: C_11  and  C_12
REMARK    5  A    between atoms: C_17  and  S_18
REMARK    6  A    between atoms: S_18  and  C_21
REMARK    7  A    between atoms: C_24  and  C_25
REMARK    8  A    between atoms: C_25  and  O_27
REMARK                            x       y       z     vdW  Elec       q    Type
REMARK                         _______ _______ _______ _____ _____    ______ ____
ROOT
ATOM      1  C   UNL     1       0.934   8.592  20.666  0.00  0.00    +0.000 A 
ATOM      2  C   UNL     1       1.119   7.284  21.192  0.00  0.00    +0.000 A 
ATOM      3  C   UNL     1       1.877   6.296  20.552  0.00  0.00    +0.000 A 
ATOM      4  C   UNL     1       2.493   6.575  19.347  0.00  0.00    +0.000 A 
ATOM      5  C   UNL     1       2.307   7.826  18.776  0.00  0.00    +0.000 A 
ATOM      6  C   UNL     1       1.523   8.827  19.410  0.00  0.00    +0.000 A 
ENDROOT
BRANCH   1   9
ATOM      7  N   UNL     1      -0.928  11.048  22.684  0.00  0.00    +0.000 N 
ATOM      8  C   UNL     1      -0.739  10.468  21.430  0.00  0.00    +0.000 A 
ATOM      9  C   UNL     1       0.258   9.526  21.586  0.00  0.00    +0.000 A 
ATOM     10  N   UNL     1       0.600   9.512  22.920  0.00  0.00    +0.000 NA
ATOM     11  N   UNL     1      -0.145  10.384  23.572  0.00  0.00    +0.000 NA
BRANCH   7  17
ATOM     12  C   UNL     1      -1.198  13.485  23.179  0.00  0.00    +0.000 A 
ATOM     13  C   UNL     1      -1.997  14.519  23.709  0.00  0.00    +0.000 A 
ATOM     14  C   UNL     1      -3.251  14.257  24.256  0.00  0.00    +0.000 A 
ATOM     15  C   UNL     1      -3.751  12.965  24.211  0.00  0.00    +0.000 A 
ATOM     16  C   UNL     1      -2.993  11.941  23.629  0.00  0.00    +0.000 A 
ATOM     17  C   UNL     1      -1.693  12.176  23.124  0.00  0.00    +0.000 A 
BRANCH  12  19
ATOM     18  C   UNL     1       0.233  15.158  22.439  0.00  0.00    +0.000 C 
ATOM     19  O   UNL     1       0.064  13.772  22.738  0.00  0.00    +0.000 OA
ENDBRANCH  12  19
ENDBRANCH   7  17
ENDBRANCH   1   9
BRANCH   6  20
ATOM     20  S   UNL     1       1.374  10.328  18.480  0.00  0.00    +0.000 S 
ATOM     21  O   UNL     1       1.723  11.430  19.363  0.00  0.00    +0.000 OA
ATOM     22  O   UNL     1       2.121  10.161  17.246  0.00  0.00    +0.000 OA
BRANCH  20  23
ATOM     23  C   UNL     1      -0.320  10.631  18.075  0.00  0.00    +0.000 A 
ATOM     24  C   UNL     1      -1.129   9.630  17.534  0.00  0.00    +0.000 A 
ATOM     25  C   UNL     1      -2.493   9.880  17.363  0.00  0.00    +0.000 A 
ATOM     26  C   UNL     1      -3.033  11.122  17.722  0.00  0.00    +0.000 A 
ATOM     27  C   UNL     1      -2.206  12.124  18.245  0.00  0.00    +0.000 A 
ATOM     28  C   UNL     1      -0.850  11.872  18.431  0.00  0.00    +0.000 A 
BRANCH  26  29
ATOM     29  C   UNL     1      -4.489  11.334  17.578  0.00  0.00    +0.000 C 
ATOM     30  O   UNL     1      -5.358  10.711  18.159  0.00  0.00    +0.000 OA
BRANCH  29  31
ATOM     31  O   UNL     1      -4.781  12.303  16.697  0.00  0.00    +0.000 OA
ATOM     32  H   UNL     1      -4.171  12.134  15.949  0.00  0.00    +0.000 HD
ENDBRANCH  29  31
ENDBRANCH  26  29
ENDBRANCH  20  23
ENDBRANCH   6  20
TORSDOF 7
ENDMDL
MODEL 5
REMARK VINA RESULT:      -8.1      0.965      1.895
REMARK  Name = 
REMARK  8 active torsions:
REMARK  status: ('A' for Active; 'I' for Inactive)
REMARK    1  A    between atoms: C_1  and  O_2
REMARK    2  A    between atoms: O_2  and  C_3
REMARK    3  A    between atoms: C_8  and  N_9
REMARK    4  A    between atoms: C_11  and  C_12
REMARK    5  A    between atoms: C_17  and  S_18
REMARK    6  A    between atoms: S_18  and  C_21
REMARK    7  A    between atoms: C_24  and  C_25
REMARK    8  A    between atoms: C_25  and  O_27
REMARK                            x       y       z     vdW  Elec       q    Type
REMARK                         _______ _______ _______ _____ _____    ______ ____
ROOT
ATOM      1  C   UNL     1       2.859   4.921  19.140  0.00  0.00    +0.000 A 
ATOM      2  C   UNL     1       1.856   3.987  19.519  0.00  0.00    +0.000 A 
ATOM      3  C   UNL     1       2.121   2.638  19.787  0.00  0.00    +0.000 A 
ATOM      4  C   UNL     1       3.413   2.159  19.690  0.00  0.00    +0.000 A 
ATOM      5  C   UNL     1       4.418   3.026  19.283  0.00  0.00    +0.000 A 
ATOM      6  C   UNL     1       4.154   4.390  18.991  0.00  0.00    +0.000 A 
ENDROOT
BRANCH   1   9
ATOM      7  N   UNL     1       1.659   8.397  19.354  0.00  0.00    +0.000 N 
ATOM      8  C   UNL     1       2.017   7.239  20.044  0.00  0.00    +0.000 A 
ATOM      9  C   UNL     1       2.396   6.321  19.086  0.00  0.00    +0.000 A 
ATOM     10  N   UNL     1       2.321   6.951  17.864  0.00  0.00    +0.000 NA
ATOM     11  N   UNL     1       1.930   8.199  18.038  0.00  0.00    +0.000 NA
BRANCH   7  17
ATOM     12  C   UNL     1       1.308  10.869  19.193  0.00  0.00    +0.000 A 
ATOM     13  C   UNL     1       0.716  12.033  19.726  0.00  0.00    +0.000 A 
ATOM     14  C   UNL     1      -0.076  11.983  20.871  0.00  0.00    +0.000 A 
ATOM     15  C   UNL     1      -0.346  10.754  21.453  0.00  0.00    +0.000 A 
ATOM     16  C   UNL     1       0.184   9.584  20.894  0.00  0.00    +0.000 A 
ATOM     17  C   UNL     1       1.040   9.621  19.769  0.00  0.00    +0.000 A 
BRANCH  12  19
ATOM     18  C   UNL     1       2.650  12.304  17.954  0.00  0.00    +0.000 C 
ATOM     19  O   UNL     1       2.153  10.976  18.123  0.00  0.00    +0.000 OA
ENDBRANCH  12  19
ENDBRANCH   7  17
ENDBRANCH   1   9
BRANCH   6  20
ATOM     20  S   UNL     1       5.570   5.301  18.438  0.00  0.00    +0.000 S 
ATOM     21  O   UNL     1       5.232   6.715  18.489  0.00  0.00    +0.000 OA
ATOM     22  O   UNL     1       6.720   4.831  19.190  0.00  0.00    +0.000 OA
BRANCH  20  23
ATOM     23  C   UNL     1       5.860   4.998  16.720  0.00  0.00    +0.000 A 
ATOM     24  C   UNL     1       7.074   5.332  16.118  0.00  0.00    +0.000 A 
ATOM     25  C   UNL     1       7.304   4.946  14.794  0.00  0.00    +0.000 A 
ATOM     26  C   UNL     1       6.322   4.242  14.086  0.00  0.00    +0.000 A 
ATOM     27  C   UNL     1       5.100   3.930  14.696  0.00  0.00    +0.000 A 
ATOM     28  C   UNL     1       4.875   4.301  16.019  0.00  0.00    +0.000 A 
BRANCH  26  29
ATOM     29  C   UNL     1       6.618   3.801  12.706  0.00  0.00    +0.000 C 
ATOM     30  O   UNL     1       7.304   4.402  11.901  0.00  0.00    +0.000 OA
BRANCH  29  31
ATOM     31  O   UNL     1       6.020   2.639  12.399  0.00  0.00    +0.000 OA
ATOM     32  H   UNL     1       6.754   2.073  12.080  0.00  0.00    +0.000 HD
ENDBRANCH  29  31
ENDBRANCH  26  29
ENDBRANCH  20  23
ENDBRANCH   6  20
TORSDOF 7
ENDMDL
MODEL 6
REMARK VINA RESULT:      -8.1      1.149      1.295
REMARK  Name = 
REMARK  8 active torsions:
REMARK  status: ('A' for Active; 'I' for Inactive)
REMARK    1  A    between atoms: C_1  and  O_2
REMARK    2  A    between atoms: O_2  and  C_3
REMARK    3  A    between atoms: C_8  and  N_9
REMARK    4  A    between atoms: C_11  and  C_12
REMARK    5  A    between atoms: C_17  and  S_18
REMARK    6  A    between atoms: S_18  and  C_21
REMARK    7  A    between atoms: C_24  and  C_25
REMARK    8  A    between atoms: C_25  and  O_27
REMARK                            x       y       z     vdW  Elec       q    Type
REMARK                         _______ _______ _______ _____ _____    ______ ____
ROOT
ATOM      1  C   UNL     1       2.609   5.597  19.148  0.00  0.00    +0.000 A 
ATOM      2  C   UNL     1       1.461   4.882  19.584  0.00  0.00    +0.000 A 
ATOM      3  C   UNL     1       1.518   3.600  20.145  0.00  0.00    +0.000 A 
ATOM      4  C   UNL     1       2.738   2.971  20.299  0.00  0.00    +0.000 A 
ATOM      5  C   UNL     1       3.883   3.615  19.850  0.00  0.00    +0.000 A 
ATOM      6  C   UNL     1       3.831   4.907  19.262  0.00  0.00    +0.000 A 
ENDROOT
BRANCH   1   9
ATOM      7  N   UNL     1       1.861   9.149  18.519  0.00  0.00    +0.000 N 
ATOM      8  C   UNL     1       1.982   8.129  19.462  0.00  0.00    +0.000 A 
ATOM      9  C   UNL     1       2.344   6.996  18.762  0.00  0.00    +0.000 A 
ATOM     10  N   UNL     1       2.493   7.363  17.443  0.00  0.00    +0.000 NA
ATOM     11  N   UNL     1       2.253   8.654  17.317  0.00  0.00    +0.000 NA
BRANCH   7  17
ATOM     12  C   UNL     1       0.008  10.817  18.727  0.00  0.00    +0.000 A 
ATOM     13  C   UNL     1      -0.395  12.169  18.713  0.00  0.00    +0.000 A 
ATOM     14  C   UNL     1       0.521  13.195  18.496  0.00  0.00    +0.000 A 
ATOM     15  C   UNL     1       1.866  12.884  18.366  0.00  0.00    +0.000 A 
ATOM     16  C   UNL     1       2.286  11.551  18.444  0.00  0.00    +0.000 A 
ATOM     17  C   UNL     1       1.364  10.490  18.601  0.00  0.00    +0.000 A 
BRANCH  12  19
ATOM     18  C   UNL     1      -2.102  10.105  18.068  0.00  0.00    +0.000 C 
ATOM     19  O   UNL     1      -0.937   9.837  18.849  0.00  0.00    +0.000 OA
ENDBRANCH  12  19
ENDBRANCH   7  17
ENDBRANCH   1   9
BRANCH   6  20
ATOM     20  S   UNL     1       5.400   5.516  18.710  0.00  0.00    +0.000 S 
ATOM     21  O   UNL     1       5.273   6.953  18.519  0.00  0.00    +0.000 OA
ATOM     22  O   UNL     1       6.414   5.022  19.626  0.00  0.00    +0.000 OA
BRANCH  20  23
ATOM     23  C   UNL     1       5.760   4.905  17.091  0.00  0.00    +0.000 A 
ATOM     24  C   UNL     1       4.790   4.250  16.329  0.00  0.00    +0.000 A 
ATOM     25  C   UNL     1       5.083   3.912  15.005  0.00  0.00    +0.000 A 
ATOM     26  C   UNL     1       6.335   4.221  14.459  0.00  0.00    +0.000 A 
ATOM     27  C   UNL     1       7.306   4.861  15.240  0.00  0.00    +0.000 A 
ATOM     28  C   UNL     1       7.011   5.213  16.555  0.00  0.00    +0.000 A 
BRANCH  26  29
ATOM     29  C   UNL     1       6.593   3.898  13.040  0.00  0.00    +0.000 C 
ATOM     30  O   UNL     1       7.304   4.535  12.285  0.00  0.00    +0.000 OA
BRANCH  29  31
ATOM     31  O   UNL     1       5.929   2.805  12.633  0.00  0.00    +0.000 OA
ATOM     32  H   UNL     1       5.350   3.134  11.915  0.00  0.00    +0.000 HD
ENDBRANCH  29  31
ENDBRANCH  26  29
ENDBRANCH  20  23
ENDBRANCH   6  20
TORSDOF 7
ENDMDL
MODEL 7
REMARK VINA RESULT:      -8.0      1.122      1.426
REMARK  Name = 
REMARK  8 active torsions:
REMARK  status: ('A' for Active; 'I' for Inactive)
REMARK    1  A    between atoms: C_1  and  O_2
REMARK    2  A    between atoms: O_2  and  C_3
REMARK    3  A    between atoms: C_8  and  N_9
REMARK    4  A    between atoms: C_11  and  C_12
REMARK    5  A    between atoms: C_17  and  S_18
REMARK    6  A    between atoms: S_18  and  C_21
REMARK    7  A    between atoms: C_24  and  C_25
REMARK    8  A    between atoms: C_25  and  O_27
REMARK                            x       y       z     vdW  Elec       q    Type
REMARK                         _______ _______ _______ _____ _____    ______ ____
ROOT
ATOM      1  C   UNL     1       2.382   4.620  18.760  0.00  0.00    +0.000 A 
ATOM      2  C   UNL     1       1.248   3.763  18.751  0.00  0.00    +0.000 A 
ATOM      3  C   UNL     1       1.333   2.373  18.602  0.00  0.00    +0.000 A 
ATOM      4  C   UNL     1       2.568   1.772  18.456  0.00  0.00    +0.000 A 
ATOM      5  C   UNL     1       3.701   2.574  18.418  0.00  0.00    +0.000 A 
ATOM      6  C   UNL     1       3.621   3.986  18.549  0.00  0.00    +0.000 A 
ENDROOT
BRANCH   1   9
ATOM      7  N   UNL     1       1.641   8.188  19.299  0.00  0.00    +0.000 N 
ATOM      8  C   UNL     1       1.838   7.161  18.376  0.00  0.00    +0.000 A 
ATOM      9  C   UNL     1       2.082   6.021  19.114  0.00  0.00    +0.000 A 
ATOM     10  N   UNL     1       1.967   6.362  20.443  0.00  0.00    +0.000 NA
ATOM     11  N   UNL     1       1.656   7.641  20.541  0.00  0.00    +0.000 NA
BRANCH   7  17
ATOM     12  C   UNL     1       0.519  10.370  19.786  0.00  0.00    +0.000 A 
ATOM     13  C   UNL     1       0.414  11.751  19.517  0.00  0.00    +0.000 A 
ATOM     14  C   UNL     1       1.231  12.368  18.572  0.00  0.00    +0.000 A 
ATOM     15  C   UNL     1       2.214  11.623  17.939  0.00  0.00    +0.000 A 
ATOM     16  C   UNL     1       2.369  10.266  18.245  0.00  0.00    +0.000 A 
ATOM     17  C   UNL     1       1.511   9.608  19.156  0.00  0.00    +0.000 A 
BRANCH  12  19
ATOM     18  C   UNL     1      -0.336  10.393  21.945  0.00  0.00    +0.000 C 
ATOM     19  O   UNL     1      -0.364   9.787  20.652  0.00  0.00    +0.000 OA
ENDBRANCH  12  19
ENDBRANCH   7  17
ENDBRANCH   1   9
BRANCH   6  20
ATOM     20  S   UNL     1       5.180   4.816  18.416  0.00  0.00    +0.000 S 
ATOM     21  O   UNL     1       4.935   6.242  18.563  0.00  0.00    +0.000 OA
ATOM     22  O   UNL     1       6.105   4.170  19.331  0.00  0.00    +0.000 OA
BRANCH  20  23
ATOM     23  C   UNL     1       5.817   4.664  16.774  0.00  0.00    +0.000 A 
ATOM     24  C   UNL     1       4.991   4.318  15.702  0.00  0.00    +0.000 A 
ATOM     25  C   UNL     1       5.513   4.349  14.406  0.00  0.00    +0.000 A 
ATOM     26  C   UNL     1       6.849   4.713  14.193  0.00  0.00    +0.000 A 
ATOM     27  C   UNL     1       7.672   5.039  15.278  0.00  0.00    +0.000 A 
ATOM     28  C   UNL     1       7.150   5.024  16.569  0.00  0.00    +0.000 A 
BRANCH  26  29
ATOM     29  C   UNL     1       7.354   4.787  12.806  0.00  0.00    +0.000 C 
ATOM     30  O   UNL     1       7.073   4.017  11.906  0.00  0.00    +0.000 OA
BRANCH  29  31
ATOM     31  O   UNL     1       8.201   5.811  12.622  0.00  0.00    +0.000 OA
ATOM     32  H   UNL     1       7.742   6.574  13.030  0.00  0.00    +0.000 HD
ENDBRANCH  29  31
ENDBRANCH  26  29
ENDBRANCH  20  23
ENDBRANCH   6  20
TORSDOF 7
ENDMDL
MODEL 8
REMARK VINA RESULT:      -7.9      3.872      8.776
REMARK  Name = 
REMARK  8 active torsions:
REMARK  status: ('A' for Active; 'I' for Inactive)
REMARK    1  A    between atoms: C_1  and  O_2
REMARK    2  A    between atoms: O_2  and  C_3
REMARK    3  A    between atoms: C_8  and  N_9
REMARK    4  A    between atoms: C_11  and  C_12
REMARK    5  A    between atoms: C_17  and  S_18
REMARK    6  A    between atoms: S_18  and  C_21
REMARK    7  A    between atoms: C_24  and  C_25
REMARK    8  A    between atoms: C_25  and  O_27
REMARK                            x       y       z     vdW  Elec       q    Type
REMARK                         _______ _______ _______ _____ _____    ______ ____
ROOT
ATOM      1  C   UNL     1       1.323  11.355  18.629  0.00  0.00    +0.000 A 
ATOM      2  C   UNL     1       2.434  12.201  18.366  0.00  0.00    +0.000 A 
ATOM      3  C   UNL     1       2.382  13.597  18.474  0.00  0.00    +0.000 A 
ATOM      4  C   UNL     1       1.207  14.214  18.856  0.00  0.00    +0.000 A 
ATOM      5  C   UNL     1       0.084  13.429  19.083  0.00  0.00    +0.000 A 
ATOM      6  C   UNL     1       0.123  12.015  18.957  0.00  0.00    +0.000 A 
ENDROOT
BRANCH   1   9
ATOM      7  N   UNL     1       2.101   7.773  18.993  0.00  0.00    +0.000 N 
ATOM      8  C   UNL     1       1.731   8.959  19.626  0.00  0.00    +0.000 A 
ATOM      9  C   UNL     1       1.644   9.915  18.634  0.00  0.00    +0.000 A 
ATOM     10  N   UNL     1       1.896   9.284  17.437  0.00  0.00    +0.000 NA
ATOM     11  N   UNL     1       2.117   8.002  17.655  0.00  0.00    +0.000 NA
BRANCH   7  17
ATOM     12  C   UNL     1       3.613   5.780  19.029  0.00  0.00    +0.000 A 
ATOM     13  C   UNL     1       3.878   4.485  19.520  0.00  0.00    +0.000 A 
ATOM     14  C   UNL     1       3.008   3.856  20.408  0.00  0.00    +0.000 A 
ATOM     15  C   UNL     1       1.899   4.547  20.872  0.00  0.00    +0.000 A 
ATOM     16  C   UNL     1       1.661   5.857  20.441  0.00  0.00    +0.000 A 
ATOM     17  C   UNL     1       2.499   6.490  19.494  0.00  0.00    +0.000 A 
BRANCH  12  19
ATOM     18  C   UNL     1       4.640   5.456  16.972  0.00  0.00    +0.000 C 
ATOM     19  O   UNL     1       4.444   6.323  18.089  0.00  0.00    +0.000 OA
ENDBRANCH  12  19
ENDBRANCH   7  17
ENDBRANCH   1   9
BRANCH   6  20
ATOM     20  S   UNL     1      -1.433  11.219  19.239  0.00  0.00    +0.000 S 
ATOM     21  O   UNL     1      -1.165   9.937  19.873  0.00  0.00    +0.000 OA
ATOM     22  O   UNL     1      -2.299  12.166  19.919  0.00  0.00    +0.000 OA
BRANCH  20  23
ATOM     23  C   UNL     1      -2.183  10.778  17.699  0.00  0.00    +0.000 A 
ATOM     24  C   UNL     1      -3.203  11.550  17.140  0.00  0.00    +0.000 A 
ATOM     25  C   UNL     1      -3.664  11.238  15.858  0.00  0.00    +0.000 A 
ATOM     26  C   UNL     1      -3.113  10.159  15.154  0.00  0.00    +0.000 A 
ATOM     27  C   UNL     1      -2.105   9.381  15.735  0.00  0.00    +0.000 A 
ATOM     28  C   UNL     1      -1.633   9.699  17.006  0.00  0.00    +0.000 A 
BRANCH  26  29
ATOM     29  C   UNL     1      -3.586   9.890  13.780  0.00  0.00    +0.000 C 
ATOM     30  O   UNL     1      -4.747   9.745  13.444  0.00  0.00    +0.000 OA
BRANCH  29  31
ATOM     31  O   UNL     1      -2.578   9.794  12.900  0.00  0.00    +0.000 OA
ATOM     32  H   UNL     1      -3.012   9.491  12.075  0.00  0.00    +0.000 HD
ENDBRANCH  29  31
ENDBRANCH  26  29
ENDBRANCH  20  23
ENDBRANCH   6  20
TORSDOF 7
ENDMDL
MODEL 9
REMARK VINA RESULT:      -7.9      1.048      1.937
REMARK  Name = 
REMARK  8 active torsions:
REMARK  status: ('A' for Active; 'I' for Inactive)
REMARK    1  A    between atoms: C_1  and  O_2
REMARK    2  A    between atoms: O_2  and  C_3
REMARK    3  A    between atoms: C_8  and  N_9
REMARK    4  A    between atoms: C_11  and  C_12
REMARK    5  A    between atoms: C_17  and  S_18
REMARK    6  A    between atoms: S_18  and  C_21
REMARK    7  A    between atoms: C_24  and  C_25
REMARK    8  A    between atoms: C_25  and  O_27
REMARK                            x       y       z     vdW  Elec       q    Type
REMARK                         _______ _______ _______ _____ _____    ______ ____
ROOT
ATOM      1  C   UNL     1       2.644   4.513  19.219  0.00  0.00    +0.000 A 
ATOM      2  C   UNL     1       1.633   3.529  19.394  0.00  0.00    +0.000 A 
ATOM      3  C   UNL     1       1.882   2.151  19.347  0.00  0.00    +0.000 A 
ATOM      4  C   UNL     1       3.165   1.691  19.124  0.00  0.00    +0.000 A 
ATOM      5  C   UNL     1       4.177   2.616  18.907  0.00  0.00    +0.000 A 
ATOM      6  C   UNL     1       3.930   4.014  18.933  0.00  0.00    +0.000 A 
ENDROOT
BRANCH   1   9
ATOM      7  N   UNL     1       1.426   7.846  20.205  0.00  0.00    +0.000 N 
ATOM      8  C   UNL     1       1.638   6.520  20.582  0.00  0.00    +0.000 A 
ATOM      9  C   UNL     1       2.201   5.894  19.489  0.00  0.00    +0.000 A 
ATOM     10  N   UNL     1       2.373   6.851  18.513  0.00  0.00    +0.000 NA
ATOM     11  N   UNL     1       1.955   8.017  18.966  0.00  0.00    +0.000 NA
BRANCH   7  17
ATOM     12  C   UNL     1       0.313  10.087  20.159  0.00  0.00    +0.000 A 
ATOM     13  C   UNL     1      -0.281  11.145  20.877  0.00  0.00    +0.000 A 
ATOM     14  C   UNL     1      -0.390  11.105  22.266  0.00  0.00    +0.000 A 
ATOM     15  C   UNL     1       0.028   9.971  22.945  0.00  0.00    +0.000 A 
ATOM     16  C   UNL     1       0.561   8.888  22.235  0.00  0.00    +0.000 A 
ATOM     17  C   UNL     1       0.736   8.934  20.833  0.00  0.00    +0.000 A 
BRANCH  12  19
ATOM     18  C   UNL     1      -0.758  10.294  18.109  0.00  0.00    +0.000 C 
ATOM     19  O   UNL     1       0.484  10.206  18.808  0.00  0.00    +0.000 OA
ENDBRANCH  12  19
ENDBRANCH   7  17
ENDBRANCH   1   9
BRANCH   6  20
ATOM     20  S   UNL     1       5.351   5.009  18.576  0.00  0.00    +0.000 S 
ATOM     21  O   UNL     1       4.961   6.403  18.720  0.00  0.00    +0.000 OA
ATOM     22  O   UNL     1       6.455   4.508  19.376  0.00  0.00    +0.000 OA
BRANCH  20  23
ATOM     23  C   UNL     1       5.785   4.867  16.868  0.00  0.00    +0.000 A 
ATOM     24  C   UNL     1       7.071   5.170  16.417  0.00  0.00    +0.000 A 
ATOM     25  C   UNL     1       7.401   4.908  15.084  0.00  0.00    +0.000 A 
ATOM     26  C   UNL     1       6.448   4.358  14.217  0.00  0.00    +0.000 A 
ATOM     27  C   UNL     1       5.156   4.077  14.678  0.00  0.00    +0.000 A 
ATOM     28  C   UNL     1       4.829   4.323  16.009  0.00  0.00    +0.000 A 
BRANCH  26  29
ATOM     29  C   UNL     1       6.846   4.043  12.829  0.00  0.00    +0.000 C 
ATOM     30  O   UNL     1       7.555   4.734  12.120  0.00  0.00    +0.000 OA
BRANCH  29  31
ATOM     31  O   UNL     1       6.318   2.889  12.393  0.00  0.00    +0.000 OA
ATOM     32  H   UNL     1       5.900   3.128  11.539  0.00  0.00    +0.000 HD
ENDBRANCH  29  31
ENDBRANCH  26  29
ENDBRANCH  20  23
ENDBRANCH   6  20
TORSDOF 7
ENDMDL
