MODEL 1
REMARK VINA RESULT:      -8.0      0.000      0.000
REMARK  Name = 
REMARK  6 active torsions:
REMARK  status: ('A' for Active; 'I' for Inactive)
REMARK    1  A    between atoms: C_1  and  C_2
REMARK    2  A    between atoms: C_2  and  C_3
REMARK    3  A    between atoms: C_3  and  O_4
REMARK    4  A    between atoms: O_4  and  C_5
REMARK    5  A    between atoms: C_5  and  C_7
REMARK    6  A    between atoms: C_7  and  N_8
REMARK                            x       y       z     vdW  Elec       q    Type
REMARK                         _______ _______ _______ _____ _____    ______ ____
ROOT
ATOM      1  C   UNL     1      -1.729  12.998  21.431  0.00  0.00    +0.000 C 
ATOM      2  C   UNL     1      -0.881  14.145  22.102  0.00  0.00    +0.000 C 
ATOM      3  O   UNL     1      -0.695  14.270  23.310  0.00  0.00    +0.000 OA
ATOM      4  O   UNL     1      -0.045  14.747  21.224  0.00  0.00    +0.000 OA
ATOM      5  C   UNL     1       1.121  13.965  21.374  0.00  0.00    +0.000 C 
ATOM      6  C   UNL     1       0.756  12.580  21.017  0.00  0.00    +0.000 A 
ATOM      7  C   UNL     1      -0.419  11.930  21.274  0.00  0.00    +0.000 A 
ATOM      8  C   UNL     1      -0.249  10.384  21.070  0.00  0.00    +0.000 A 
ATOM      9  C   UNL     1       0.728   9.886  20.221  0.00  0.00    +0.000 A 
ATOM     10  N   UNL     1       1.326  10.863  19.424  0.00  0.00    +0.000 N 
ATOM     11  C   UNL     1       1.441  12.148  19.760  0.00  0.00    +0.000 A 
ATOM     12  O   UNL     1       2.053  12.968  19.077  0.00  0.00    +0.000 OA
ATOM     13  C   UNL     1       1.935  10.383  18.227  0.00  0.00    +0.000 C 
ATOM     14  C   UNL     1       2.023   8.936  18.487  0.00  0.00    +0.000 A 
ATOM     15  C   UNL     1       2.731   8.061  17.690  0.00  0.00    +0.000 A 
ATOM     16  C   UNL     1       3.007   6.812  18.184  0.00  0.00    +0.000 A 
ATOM     17  C   UNL     1       3.721   5.936  17.342  0.00  0.00    +0.000 A 
ATOM     18  C   UNL     1       4.158   4.710  17.802  0.00  0.00    +0.000 A 
ATOM     19  C   UNL     1       3.916   4.401  19.131  0.00  0.00    +0.000 A 
ATOM     20  C   UNL     1       3.162   5.286  19.955  0.00  0.00    +0.000 A 
ATOM     21  C   UNL     1       2.609   6.515  19.516  0.00  0.00    +0.000 A 
ATOM     22  N   UNL     1       1.783   7.400  20.271  0.00  0.00    +0.000 NA
ATOM     23  C   UNL     1       1.437   8.589  19.706  0.00  0.00    +0.000 A 
ENDROOT
BRANCH   1  25
ATOM     24  C   UNL     1      -3.931  12.754  23.264  0.00  0.00    +0.000 C 
ATOM     25  C   UNL     1      -3.103  13.478  22.181  0.00  0.00    +0.000 C 
ENDBRANCH   1  25
BRANCH   1  26
ATOM     26  O   UNL     1      -2.126  13.226  19.999  0.00  0.00    +0.000 OA
BRANCH  26  27
ATOM     27  C   UNL     1      -2.770  12.204  19.310  0.00  0.00    +0.000 C 
ATOM     28  O   UNL     1      -3.883  11.784  19.599  0.00  0.00    +0.000 OA
BRANCH  27  29
ATOM     29  C   UNL     1      -1.945  11.726  18.132  0.00  0.00    +0.000 C 
BRANCH  29  30
ATOM     30  N   UNL     1      -2.653  11.045  17.044  0.00  0.00    +0.000 N 
ATOM     31  C   UNL     1      -3.658  11.459  16.211  0.00  0.00    +0.000 A 
ATOM     32  C   UNL     1      -3.765  10.454  15.274  0.00  0.00    +0.000 A 
ATOM     33  N   UNL     1      -2.824   9.507  15.520  0.00  0.00    +0.000 NA
ATOM     34  N   UNL     1      -2.140   9.874  16.596  0.00  0.00    +0.000 NA
ENDBRANCH  29  30
ENDBRANCH  27  29
ENDBRANCH  26  27
ENDBRANCH   1  26
TORSDOF 5
ENDMDL
MODEL 2
REMARK VINA RESULT:      -7.8      2.971      5.979
REMARK  Name = 
REMARK  6 active torsions:
REMARK  status: ('A' for Active; 'I' for Inactive)
REMARK    1  A    between atoms: C_1  and  C_2
REMARK    2  A    between atoms: C_2  and  C_3
REMARK    3  A    between atoms: C_3  and  O_4
REMARK    4  A    between atoms: O_4  and  C_5
REMARK    5  A    between atoms: C_5  and  C_7
REMARK    6  A    between atoms: C_7  and  N_8
REMARK                            x       y       z     vdW  Elec       q    Type
REMARK                         _______ _______ _______ _____ _____    ______ ____
ROOT
ATOM      1  C   UNL     1       1.643  13.010  19.154  0.00  0.00    +0.000 C 
ATOM      2  C   UNL     1       0.147  13.507  19.127  0.00  0.00    +0.000 C 
ATOM      3  O   UNL     1      -0.463  13.852  18.116  0.00  0.00    +0.000 OA
ATOM      4  O   UNL     1      -0.537  13.145  20.237  0.00  0.00    +0.000 OA
ATOM      5  C   UNL     1      -1.071  11.900  19.838  0.00  0.00    +0.000 C 
ATOM      6  C   UNL     1       0.073  11.026  19.514  0.00  0.00    +0.000 A 
ATOM      7  C   UNL     1       1.250  11.376  18.912  0.00  0.00    +0.000 A 
ATOM      8  C   UNL     1       2.016  10.099  18.419  0.00  0.00    +0.000 A 
ATOM      9  C   UNL     1       1.804   8.869  19.025  0.00  0.00    +0.000 A 
ATOM     10  N   UNL     1       1.077   8.950  20.214  0.00  0.00    +0.000 N 
ATOM     11  C   UNL     1       0.188   9.902  20.493  0.00  0.00    +0.000 A 
ATOM     12  O   UNL     1      -0.503   9.897  21.511  0.00  0.00    +0.000 OA
ATOM     13  C   UNL     1       1.257   7.856  21.111  0.00  0.00    +0.000 C 
ATOM     14  C   UNL     1       1.880   6.845  20.242  0.00  0.00    +0.000 A 
ATOM     15  C   UNL     1       2.063   5.529  20.615  0.00  0.00    +0.000 A 
ATOM     16  C   UNL     1       2.357   4.614  19.637  0.00  0.00    +0.000 A 
ATOM     17  C   UNL     1       2.550   3.280  20.049  0.00  0.00    +0.000 A 
ATOM     18  C   UNL     1       2.717   2.268  19.125  0.00  0.00    +0.000 A 
ATOM     19  C   UNL     1       2.634   2.607  17.783  0.00  0.00    +0.000 A 
ATOM     20  C   UNL     1       2.473   3.967  17.388  0.00  0.00    +0.000 A 
ATOM     21  C   UNL     1       2.387   5.059  18.288  0.00  0.00    +0.000 A 
ATOM     22  N   UNL     1       2.303   6.442  17.949  0.00  0.00    +0.000 NA
ATOM     23  C   UNL     1       2.120   7.337  18.958  0.00  0.00    +0.000 A 
ENDROOT
BRANCH   1  25
ATOM     24  C   UNL     1       3.359  14.729  17.616  0.00  0.00    +0.000 C 
ATOM     25  C   UNL     1       2.205  14.445  18.602  0.00  0.00    +0.000 C 
ENDBRANCH   1  25
BRANCH   1  26
ATOM     26  O   UNL     1       2.300  12.981  20.506  0.00  0.00    +0.000 OA
BRANCH  26  27
ATOM     27  C   UNL     1       2.622  14.185  21.121  0.00  0.00    +0.000 C 
ATOM     28  O   UNL     1       1.791  14.978  21.546  0.00  0.00    +0.000 OA
BRANCH  27  29
ATOM     29  C   UNL     1       4.123  14.357  21.249  0.00  0.00    +0.000 C 
BRANCH  29  30
ATOM     30  N   UNL     1       4.738  13.987  22.527  0.00  0.00    +0.000 N 
ATOM     31  C   UNL     1       5.830  13.216  22.824  0.00  0.00    +0.000 A 
ATOM     32  C   UNL     1       6.026  13.401  24.175  0.00  0.00    +0.000 A 
ATOM     33  N   UNL     1       5.112  14.288  24.645  0.00  0.00    +0.000 NA
ATOM     34  N   UNL     1       4.331  14.652  23.636  0.00  0.00    +0.000 NA
ENDBRANCH  29  30
ENDBRANCH  27  29
ENDBRANCH  26  27
ENDBRANCH   1  26
TORSDOF 5
ENDMDL
MODEL 3
REMARK VINA RESULT:      -7.7      1.877      2.120
REMARK  Name = 
REMARK  6 active torsions:
REMARK  status: ('A' for Active; 'I' for Inactive)
REMARK    1  A    between atoms: C_1  and  C_2
REMARK    2  A    between atoms: C_2  and  C_3
REMARK    3  A    between atoms: C_3  and  O_4
REMARK    4  A    between atoms: O_4  and  C_5
REMARK    5  A    between atoms: C_5  and  C_7
REMARK    6  A    between atoms: C_7  and  N_8
REMARK                            x       y       z     vdW  Elec       q    Type
REMARK                         _______ _______ _______ _____ _____    ______ ____
ROOT
ATOM      1  C   UNL     1      -1.802  12.763  21.303  0.00  0.00    +0.000 C 
ATOM      2  C   UNL     1      -0.991  13.955  21.941  0.00  0.00    +0.000 C 
ATOM      3  O   UNL     1      -0.795  14.110  23.144  0.00  0.00    +0.000 OA
ATOM      4  O   UNL     1      -0.189  14.572  21.041  0.00  0.00    +0.000 OA
ATOM      5  C   UNL     1       1.008  13.838  21.190  0.00  0.00    +0.000 C 
ATOM      6  C   UNL     1       0.693  12.434  20.864  0.00  0.00    +0.000 A 
ATOM      7  C   UNL     1      -0.453  11.744  21.148  0.00  0.00    +0.000 A 
ATOM      8  C   UNL     1      -0.225  10.202  20.970  0.00  0.00    +0.000 A 
ATOM      9  C   UNL     1       0.759   9.727  20.117  0.00  0.00    +0.000 A 
ATOM     10  N   UNL     1       1.309  10.711  19.295  0.00  0.00    +0.000 N 
ATOM     11  C   UNL     1       1.378  12.005  19.605  0.00  0.00    +0.000 A 
ATOM     12  O   UNL     1       1.949  12.835  18.900  0.00  0.00    +0.000 OA
ATOM     13  C   UNL     1       1.922  10.232  18.099  0.00  0.00    +0.000 C 
ATOM     14  C   UNL     1       2.069   8.795  18.385  0.00  0.00    +0.000 A 
ATOM     15  C   UNL     1       2.801   7.933  17.594  0.00  0.00    +0.000 A 
ATOM     16  C   UNL     1       3.131   6.705  18.107  0.00  0.00    +0.000 A 
ATOM     17  C   UNL     1       3.868   5.841  17.273  0.00  0.00    +0.000 A 
ATOM     18  C   UNL     1       4.359   4.642  17.749  0.00  0.00    +0.000 A 
ATOM     19  C   UNL     1       4.145   4.349  19.086  0.00  0.00    +0.000 A 
ATOM     20  C   UNL     1       3.367   5.220  19.904  0.00  0.00    +0.000 A 
ATOM     21  C   UNL     1       2.762   6.418  19.450  0.00  0.00    +0.000 A 
ATOM     22  N   UNL     1       1.912   7.285  20.199  0.00  0.00    +0.000 NA
ATOM     23  C   UNL     1       1.512   8.448  19.617  0.00  0.00    +0.000 A 
ENDROOT
BRANCH   1  25
ATOM     24  C   UNL     1      -3.868  12.572  23.293  0.00  0.00    +0.000 C 
ATOM     25  C   UNL     1      -3.184  13.204  22.061  0.00  0.00    +0.000 C 
ENDBRANCH   1  25
BRANCH   1  26
ATOM     26  O   UNL     1      -2.225  12.949  19.872  0.00  0.00    +0.000 OA
BRANCH  26  27
ATOM     27  C   UNL     1      -3.182  12.093  19.339  0.00  0.00    +0.000 C 
ATOM     28  O   UNL     1      -2.920  11.009  18.833  0.00  0.00    +0.000 OA
BRANCH  27  29
ATOM     29  C   UNL     1      -4.581  12.647  19.519  0.00  0.00    +0.000 C 
BRANCH  29  30
ATOM     30  N   UNL     1      -5.686  11.685  19.575  0.00  0.00    +0.000 N 
ATOM     31  C   UNL     1      -6.140  10.764  18.669  0.00  0.00    +0.000 A 
ATOM     32  C   UNL     1      -7.072  10.026  19.366  0.00  0.00    +0.000 A 
ATOM     33  N   UNL     1      -7.128  10.467  20.649  0.00  0.00    +0.000 NA
ATOM     34  N   UNL     1      -6.274  11.474  20.778  0.00  0.00    +0.000 NA
ENDBRANCH  29  30
ENDBRANCH  27  29
ENDBRANCH  26  27
ENDBRANCH   1  26
TORSDOF 5
ENDMDL
MODEL 4
REMARK VINA RESULT:      -7.7      4.985      9.565
REMARK  Name = 
REMARK  6 active torsions:
REMARK  status: ('A' for Active; 'I' for Inactive)
REMARK    1  A    between atoms: C_1  and  C_2
REMARK    2  A    between atoms: C_2  and  C_3
REMARK    3  A    between atoms: C_3  and  O_4
REMARK    4  A    between atoms: O_4  and  C_5
REMARK    5  A    between atoms: C_5  and  C_7
REMARK    6  A    between atoms: C_7  and  N_8
REMARK                            x       y       z     vdW  Elec       q    Type
REMARK                         _______ _______ _______ _____ _____    ______ ____
ROOT
ATOM      1  C   UNL     1       5.608   4.342  15.489  0.00  0.00    +0.000 C 
ATOM      2  C   UNL     1       7.145   4.653  15.646  0.00  0.00    +0.000 C 
ATOM      3  O   UNL     1       7.791   5.403  14.917  0.00  0.00    +0.000 OA
ATOM      4  O   UNL     1       7.608   4.349  16.881  0.00  0.00    +0.000 OA
ATOM      5  C   UNL     1       7.416   5.573  17.557  0.00  0.00    +0.000 C 
ATOM      6  C   UNL     1       5.970   5.870  17.503  0.00  0.00    +0.000 A 
ATOM      7  C   UNL     1       5.103   5.629  16.474  0.00  0.00    +0.000 A 
ATOM      8  C   UNL     1       3.771   6.431  16.678  0.00  0.00    +0.000 A 
ATOM      9  C   UNL     1       3.361   6.810  17.948  0.00  0.00    +0.000 A 
ATOM     10  N   UNL     1       4.090   6.207  18.973  0.00  0.00    +0.000 N 
ATOM     11  C   UNL     1       5.353   5.796  18.863  0.00  0.00    +0.000 A 
ATOM     12  O   UNL     1       5.998   5.350  19.810  0.00  0.00    +0.000 OA
ATOM     13  C   UNL     1       3.429   6.147  20.235  0.00  0.00    +0.000 C 
ATOM     14  C   UNL     1       2.333   7.114  20.054  0.00  0.00    +0.000 A 
ATOM     15  C   UNL     1       1.529   7.554  21.084  0.00  0.00    +0.000 A 
ATOM     16  C   UNL     1       0.760   8.669  20.874  0.00  0.00    +0.000 A 
ATOM     17  C   UNL     1      -0.062   9.089  21.940  0.00  0.00    +0.000 A 
ATOM     18  C   UNL     1      -0.768  10.273  21.869  0.00  0.00    +0.000 A 
ATOM     19  C   UNL     1      -0.595  11.054  20.737  0.00  0.00    +0.000 A 
ATOM     20  C   UNL     1       0.213  10.595  19.656  0.00  0.00    +0.000 A 
ATOM     21  C   UNL     1       0.888   9.350  19.633  0.00  0.00    +0.000 A 
ATOM     22  N   UNL     1       1.644   8.806  18.551  0.00  0.00    +0.000 NA
ATOM     23  C   UNL     1       2.309   7.637  18.760  0.00  0.00    +0.000 A 
ENDROOT
BRANCH   1  25
ATOM     24  C   UNL     1       5.048   3.917  12.700  0.00  0.00    +0.000 C 
ATOM     25  C   UNL     1       5.823   3.667  14.013  0.00  0.00    +0.000 C 
ENDBRANCH   1  25
BRANCH   1  26
ATOM     26  O   UNL     1       5.099   3.146  16.245  0.00  0.00    +0.000 OA
BRANCH  26  27
ATOM     27  C   UNL     1       3.790   3.155  16.713  0.00  0.00    +0.000 C 
ATOM     28  O   UNL     1       2.836   3.561  16.061  0.00  0.00    +0.000 OA
BRANCH  27  29
ATOM     29  C   UNL     1       3.694   2.548  18.099  0.00  0.00    +0.000 C 
BRANCH  29  30
ATOM     30  N   UNL     1       2.603   3.007  18.963  0.00  0.00    +0.000 N 
ATOM     31  C   UNL     1       1.373   3.536  18.675  0.00  0.00    +0.000 A 
ATOM     32  C   UNL     1       0.725   3.584  19.890  0.00  0.00    +0.000 A 
ATOM     33  N   UNL     1       1.529   3.057  20.850  0.00  0.00    +0.000 NA
ATOM     34  N   UNL     1       2.672   2.698  20.281  0.00  0.00    +0.000 NA
ENDBRANCH  29  30
ENDBRANCH  27  29
ENDBRANCH  26  27
ENDBRANCH   1  26
TORSDOF 5
ENDMDL
MODEL 5
REMARK VINA RESULT:      -7.7      0.964      1.117
REMARK  Name = 
REMARK  6 active torsions:
REMARK  status: ('A' for Active; 'I' for Inactive)
REMARK    1  A    between atoms: C_1  and  C_2
REMARK    2  A    between atoms: C_2  and  C_3
REMARK    3  A    between atoms: C_3  and  O_4
REMARK    4  A    between atoms: O_4  and  C_5
REMARK    5  A    between atoms: C_5  and  C_7
REMARK    6  A    between atoms: C_7  and  N_8
REMARK                            x       y       z     vdW  Elec       q    Type
REMARK                         _______ _______ _______ _____ _____    ______ ____
ROOT
ATOM      1  C   UNL     1      -1.955  13.269  21.944  0.00  0.00    +0.000 C 
ATOM      2  C   UNL     1      -1.099  14.418  22.603  0.00  0.00    +0.000 C 
ATOM      3  O   UNL     1      -0.847  14.510  23.802  0.00  0.00    +0.000 OA
ATOM      4  O   UNL     1      -0.329  15.069  21.700  0.00  0.00    +0.000 OA
ATOM      5  C   UNL     1       0.863  14.314  21.758  0.00  0.00    +0.000 C 
ATOM      6  C   UNL     1       0.513  12.931  21.377  0.00  0.00    +0.000 A 
ATOM      7  C   UNL     1      -0.629  12.242  21.679  0.00  0.00    +0.000 A 
ATOM      8  C   UNL     1      -0.432  10.709  21.415  0.00  0.00    +0.000 A 
ATOM      9  C   UNL     1       0.507  10.264  20.497  0.00  0.00    +0.000 A 
ATOM     10  N   UNL     1       1.034  11.281  19.699  0.00  0.00    +0.000 N 
ATOM     11  C   UNL     1       1.136  12.557  20.070  0.00  0.00    +0.000 A 
ATOM     12  O   UNL     1       1.687  13.414  19.382  0.00  0.00    +0.000 OA
ATOM     13  C   UNL     1       1.586  10.854  18.456  0.00  0.00    +0.000 C 
ATOM     14  C   UNL     1       1.725   9.403  18.663  0.00  0.00    +0.000 A 
ATOM     15  C   UNL     1       2.408   8.573  17.799  0.00  0.00    +0.000 A 
ATOM     16  C   UNL     1       2.742   7.317  18.236  0.00  0.00    +0.000 A 
ATOM     17  C   UNL     1       3.429   6.487  17.328  0.00  0.00    +0.000 A 
ATOM     18  C   UNL     1       3.923   5.259  17.722  0.00  0.00    +0.000 A 
ATOM     19  C   UNL     1       3.764   4.903  19.051  0.00  0.00    +0.000 A 
ATOM     20  C   UNL     1       3.037   5.741  19.945  0.00  0.00    +0.000 A 
ATOM     21  C   UNL     1       2.429   6.968  19.578  0.00  0.00    +0.000 A 
ATOM     22  N   UNL     1       1.626   7.807  20.407  0.00  0.00    +0.000 NA
ATOM     23  C   UNL     1       1.218   9.003  19.901  0.00  0.00    +0.000 A 
ENDROOT
BRANCH   1  25
ATOM     24  C   UNL     1      -4.021  12.925  23.914  0.00  0.00    +0.000 C 
ATOM     25  C   UNL     1      -3.295  13.689  22.784  0.00  0.00    +0.000 C 
ENDBRANCH   1  25
BRANCH   1  26
ATOM     26  O   UNL     1      -2.437  13.531  20.544  0.00  0.00    +0.000 OA
BRANCH  26  27
ATOM     27  C   UNL     1      -3.691  13.062  20.168  0.00  0.00    +0.000 C 
ATOM     28  O   UNL     1      -4.717  13.727  20.241  0.00  0.00    +0.000 OA
BRANCH  27  29
ATOM     29  C   UNL     1      -3.611  11.656  19.607  0.00  0.00    +0.000 C 
BRANCH  29  30
ATOM     30  N   UNL     1      -3.375  11.516  18.168  0.00  0.00    +0.000 N 
ATOM     31  C   UNL     1      -2.261  11.158  17.457  0.00  0.00    +0.000 A 
ATOM     32  C   UNL     1      -2.710  11.014  16.162  0.00  0.00    +0.000 A 
ATOM     33  N   UNL     1      -4.050  11.233  16.123  0.00  0.00    +0.000 NA
ATOM     34  N   UNL     1      -4.456  11.531  17.350  0.00  0.00    +0.000 NA
ENDBRANCH  29  30
ENDBRANCH  27  29
ENDBRANCH  26  27
ENDBRANCH   1  26
TORSDOF 5
ENDMDL
MODEL 6
REMARK VINA RESULT:      -7.7      2.045      2.723
REMARK  Name = 
REMARK  6 active torsions:
REMARK  status: ('A' for Active; 'I' for Inactive)
REMARK    1  A    between atoms: C_1  and  C_2
REMARK    2  A    between atoms: C_2  and  C_3
REMARK    3  A    between atoms: C_3  and  O_4
REMARK    4  A    between atoms: O_4  and  C_5
REMARK    5  A    between atoms: C_5  and  C_7
REMARK    6  A    between atoms: C_7  and  N_8
REMARK                            x       y       z     vdW  Elec       q    Type
REMARK                         _______ _______ _______ _____ _____    ______ ____
ROOT
ATOM      1  C   UNL     1      -1.991  12.472  21.963  0.00  0.00    +0.000 C 
ATOM      2  C   UNL     1      -1.192  13.713  22.516  0.00  0.00    +0.000 C 
ATOM      3  O   UNL     1      -0.868  13.876  23.691  0.00  0.00    +0.000 OA
ATOM      4  O   UNL     1      -0.543  14.386  21.538  0.00  0.00    +0.000 OA
ATOM      5  C   UNL     1       0.709  13.733  21.538  0.00  0.00    +0.000 C 
ATOM      6  C   UNL     1       0.452  12.312  21.234  0.00  0.00    +0.000 A 
ATOM      7  C   UNL     1      -0.605  11.546  21.642  0.00  0.00    +0.000 A 
ATOM      8  C   UNL     1      -0.299  10.024  21.420  0.00  0.00    +0.000 A 
ATOM      9  C   UNL     1       0.609   9.618  20.454  0.00  0.00    +0.000 A 
ATOM     10  N   UNL     1       0.994  10.640  19.585  0.00  0.00    +0.000 N 
ATOM     11  C   UNL     1       1.013  11.934  19.900  0.00  0.00    +0.000 A 
ATOM     12  O   UNL     1       1.442  12.804  19.143  0.00  0.00    +0.000 OA
ATOM     13  C   UNL     1       1.494  10.207  18.321  0.00  0.00    +0.000 C 
ATOM     14  C   UNL     1       1.767   8.782  18.571  0.00  0.00    +0.000 A 
ATOM     15  C   UNL     1       2.457   7.975  17.691  0.00  0.00    +0.000 A 
ATOM     16  C   UNL     1       2.925   6.770  18.149  0.00  0.00    +0.000 A 
ATOM     17  C   UNL     1       3.615   5.960  17.225  0.00  0.00    +0.000 A 
ATOM     18  C   UNL     1       4.236   4.794  17.627  0.00  0.00    +0.000 A 
ATOM     19  C   UNL     1       4.199   4.482  18.977  0.00  0.00    +0.000 A 
ATOM     20  C   UNL     1       3.466   5.296  19.889  0.00  0.00    +0.000 A 
ATOM     21  C   UNL     1       2.734   6.453  19.522  0.00  0.00    +0.000 A 
ATOM     22  N   UNL     1       1.922   7.258  20.374  0.00  0.00    +0.000 NA
ATOM     23  C   UNL     1       1.382   8.395  19.855  0.00  0.00    +0.000 A 
ENDROOT
BRANCH   1  25
ATOM     24  C   UNL     1      -3.774  12.162  24.197  0.00  0.00    +0.000 C 
ATOM     25  C   UNL     1      -3.302  12.817  22.881  0.00  0.00    +0.000 C 
ENDBRANCH   1  25
BRANCH   1  26
ATOM     26  O   UNL     1      -2.589  12.635  20.593  0.00  0.00    +0.000 OA
BRANCH  26  27
ATOM     27  C   UNL     1      -3.809  13.288  20.466  0.00  0.00    +0.000 C 
ATOM     28  O   UNL     1      -3.997  14.452  20.799  0.00  0.00    +0.000 OA
BRANCH  27  29
ATOM     29  C   UNL     1      -4.848  12.398  19.813  0.00  0.00    +0.000 C 
BRANCH  29  30
ATOM     30  N   UNL     1      -6.013  12.017  20.617  0.00  0.00    +0.000 N 
ATOM     31  C   UNL     1      -6.560  12.567  21.745  0.00  0.00    +0.000 A 
ATOM     32  C   UNL     1      -7.749  11.891  21.917  0.00  0.00    +0.000 A 
ATOM     33  N   UNL     1      -7.916  11.009  20.897  0.00  0.00    +0.000 NA
ATOM     34  N   UNL     1      -6.859  11.094  20.100  0.00  0.00    +0.000 NA
ENDBRANCH  29  30
ENDBRANCH  27  29
ENDBRANCH  26  27
ENDBRANCH   1  26
TORSDOF 5
ENDMDL
MODEL 7
REMARK VINA RESULT:      -7.6      2.238      2.607
REMARK  Name = 
REMARK  6 active torsions:
REMARK  status: ('A' for Active; 'I' for Inactive)
REMARK    1  A    between atoms: C_1  and  C_2
REMARK    2  A    between atoms: C_2  and  C_3
REMARK    3  A    between atoms: C_3  and  O_4
REMARK    4  A    between atoms: O_4  and  C_5
REMARK    5  A    between atoms: C_5  and  C_7
REMARK    6  A    between atoms: C_7  and  N_8
REMARK                            x       y       z     vdW  Elec       q    Type
REMARK                         _______ _______ _______ _____ _____    ______ ____
ROOT
ATOM      1  C   UNL     1      -2.034  13.477  22.216  0.00  0.00    +0.000 C 
ATOM      2  C   UNL     1      -1.165  14.601  22.899  0.00  0.00    +0.000 C 
ATOM      3  O   UNL     1      -0.897  14.655  24.098  0.00  0.00    +0.000 OA
ATOM      4  O   UNL     1      -0.406  15.278  22.007  0.00  0.00    +0.000 OA
ATOM      5  C   UNL     1       0.784  14.518  22.025  0.00  0.00    +0.000 C 
ATOM      6  C   UNL     1       0.425  13.149  21.605  0.00  0.00    +0.000 A 
ATOM      7  C   UNL     1      -0.716  12.455  21.901  0.00  0.00    +0.000 A 
ATOM      8  C   UNL     1      -0.528  10.930  21.585  0.00  0.00    +0.000 A 
ATOM      9  C   UNL     1       0.397  10.512  20.641  0.00  0.00    +0.000 A 
ATOM     10  N   UNL     1       0.917  11.552  19.869  0.00  0.00    +0.000 N 
ATOM     11  C   UNL     1       1.028  12.815  20.278  0.00  0.00    +0.000 A 
ATOM     12  O   UNL     1       1.573  13.692  19.610  0.00  0.00    +0.000 OA
ATOM     13  C   UNL     1       1.451  11.163  18.605  0.00  0.00    +0.000 C 
ATOM     14  C   UNL     1       1.587   9.706  18.764  0.00  0.00    +0.000 A 
ATOM     15  C   UNL     1       2.255   8.901  17.865  0.00  0.00    +0.000 A 
ATOM     16  C   UNL     1       2.591   7.631  18.257  0.00  0.00    +0.000 A 
ATOM     17  C   UNL     1       3.263   6.828  17.314  0.00  0.00    +0.000 A 
ATOM     18  C   UNL     1       3.758   5.587  17.662  0.00  0.00    +0.000 A 
ATOM     19  C   UNL     1       3.615   5.189  18.982  0.00  0.00    +0.000 A 
ATOM     20  C   UNL     1       2.903   6.001  19.911  0.00  0.00    +0.000 A 
ATOM     21  C   UNL     1       2.295   7.240  19.592  0.00  0.00    +0.000 A 
ATOM     22  N   UNL     1       1.506   8.055  20.457  0.00  0.00    +0.000 NA
ATOM     23  C   UNL     1       1.096   9.267  19.995  0.00  0.00    +0.000 A 
ENDROOT
BRANCH   1  25
ATOM     24  C   UNL     1      -4.030  13.113  24.253  0.00  0.00    +0.000 C 
ATOM     25  C   UNL     1      -3.362  13.874  23.088  0.00  0.00    +0.000 C 
ENDBRANCH   1  25
BRANCH   1  26
ATOM     26  O   UNL     1      -2.535  13.784  20.832  0.00  0.00    +0.000 OA
BRANCH  26  27
ATOM     27  C   UNL     1      -3.484  12.944  20.260  0.00  0.00    +0.000 C 
ATOM     28  O   UNL     1      -3.235  11.821  19.842  0.00  0.00    +0.000 OA
BRANCH  27  29
ATOM     29  C   UNL     1      -4.862  13.574  20.278  0.00  0.00    +0.000 C 
BRANCH  29  30
ATOM     30  N   UNL     1      -6.011  12.678  20.439  0.00  0.00    +0.000 N 
ATOM     31  C   UNL     1      -6.953  12.235  19.549  0.00  0.00    +0.000 A 
ATOM     32  C   UNL     1      -7.650  11.267  20.239  0.00  0.00    +0.000 A 
ATOM     33  N   UNL     1      -7.106  11.114  21.474  0.00  0.00    +0.000 NA
ATOM     34  N   UNL     1      -6.100  11.971  21.591  0.00  0.00    +0.000 NA
ENDBRANCH  29  30
ENDBRANCH  27  29
ENDBRANCH  26  27
ENDBRANCH   1  26
TORSDOF 5
ENDMDL
MODEL 8
REMARK VINA RESULT:      -7.6      1.863      2.141
REMARK  Name = 
REMARK  6 active torsions:
REMARK  status: ('A' for Active; 'I' for Inactive)
REMARK    1  A    between atoms: C_1  and  C_2
REMARK    2  A    between atoms: C_2  and  C_3
REMARK    3  A    between atoms: C_3  and  O_4
REMARK    4  A    between atoms: O_4  and  C_5
REMARK    5  A    between atoms: C_5  and  C_7
REMARK    6  A    between atoms: C_7  and  N_8
REMARK                            x       y       z     vdW  Elec       q    Type
REMARK                         _______ _______ _______ _____ _____    ______ ____
ROOT
ATOM      1  C   UNL     1      -2.051  12.188  20.348  0.00  0.00    +0.000 C 
ATOM      2  C   UNL     1      -1.409  13.462  21.018  0.00  0.00    +0.000 C 
ATOM      3  O   UNL     1      -1.364  13.675  22.228  0.00  0.00    +0.000 OA
ATOM      4  O   UNL     1      -0.559  14.108  20.186  0.00  0.00    +0.000 OA
ATOM      5  C   UNL     1       0.665  13.477  20.499  0.00  0.00    +0.000 C 
ATOM      6  C   UNL     1       0.495  12.041  20.203  0.00  0.00    +0.000 A 
ATOM      7  C   UNL     1      -0.621  11.273  20.390  0.00  0.00    +0.000 A 
ATOM      8  C   UNL     1      -0.261   9.749  20.307  0.00  0.00    +0.000 A 
ATOM      9  C   UNL     1       0.848   9.322  19.591  0.00  0.00    +0.000 A 
ATOM     10  N   UNL     1       1.413  10.317  18.791  0.00  0.00    +0.000 N 
ATOM     11  C   UNL     1       1.349  11.622  19.049  0.00  0.00    +0.000 A 
ATOM     12  O   UNL     1       1.933  12.469  18.375  0.00  0.00    +0.000 OA
ATOM     13  C   UNL     1       2.192   9.845  17.693  0.00  0.00    +0.000 C 
ATOM     14  C   UNL     1       2.412   8.435  18.057  0.00  0.00    +0.000 A 
ATOM     15  C   UNL     1       3.291   7.606  17.392  0.00  0.00    +0.000 A 
ATOM     16  C   UNL     1       3.651   6.428  17.993  0.00  0.00    +0.000 A 
ATOM     17  C   UNL     1       4.541   5.595  17.285  0.00  0.00    +0.000 A 
ATOM     18  C   UNL     1       5.062   4.457  17.866  0.00  0.00    +0.000 A 
ATOM     19  C   UNL     1       4.720   4.196  19.183  0.00  0.00    +0.000 A 
ATOM     20  C   UNL     1       3.791   5.031  19.870  0.00  0.00    +0.000 A 
ATOM     21  C   UNL     1       3.154   6.160  19.298  0.00  0.00    +0.000 A 
ATOM     22  N   UNL     1       2.162   6.984  19.909  0.00  0.00    +0.000 NA
ATOM     23  C   UNL     1       1.746   8.090  19.235  0.00  0.00    +0.000 A 
ENDROOT
BRANCH   1  25
ATOM     24  C   UNL     1      -4.458  13.742  20.596  0.00  0.00    +0.000 C 
ATOM     25  C   UNL     1      -3.540  12.545  20.928  0.00  0.00    +0.000 C 
ENDBRANCH   1  25
BRANCH   1  26
ATOM     26  O   UNL     1      -2.321  12.287  18.872  0.00  0.00    +0.000 OA
BRANCH  26  27
ATOM     27  C   UNL     1      -2.946  11.224  18.231  0.00  0.00    +0.000 C 
ATOM     28  O   UNL     1      -2.697  10.047  18.463  0.00  0.00    +0.000 OA
BRANCH  27  29
ATOM     29  C   UNL     1      -4.005  11.708  17.260  0.00  0.00    +0.000 C 
BRANCH  29  30
ATOM     30  N   UNL     1      -5.395  11.710  17.725  0.00  0.00    +0.000 N 
ATOM     31  C   UNL     1      -6.061  10.907  18.611  0.00  0.00    +0.000 A 
ATOM     32  C   UNL     1      -7.283  11.522  18.783  0.00  0.00    +0.000 A 
ATOM     33  N   UNL     1      -7.314  12.671  18.060  0.00  0.00    +0.000 NA
ATOM     34  N   UNL     1      -6.157  12.789  17.421  0.00  0.00    +0.000 NA
ENDBRANCH  29  30
ENDBRANCH  27  29
ENDBRANCH  26  27
ENDBRANCH   1  26
TORSDOF 5
ENDMDL
MODEL 9
REMARK VINA RESULT:      -7.6      1.809      2.071
REMARK  Name = 
REMARK  6 active torsions:
REMARK  status: ('A' for Active; 'I' for Inactive)
REMARK    1  A    between atoms: C_1  and  C_2
REMARK    2  A    between atoms: C_2  and  C_3
REMARK    3  A    between atoms: C_3  and  O_4
REMARK    4  A    between atoms: O_4  and  C_5
REMARK    5  A    between atoms: C_5  and  C_7
REMARK    6  A    between atoms: C_7  and  N_8
REMARK                            x       y       z     vdW  Elec       q    Type
REMARK                         _______ _______ _______ _____ _____    ______ ____
ROOT
ATOM      1  C   UNL     1      -1.982  12.789  22.366  0.00  0.00    +0.000 C 
ATOM      2  C   UNL     1      -1.137  14.027  22.855  0.00  0.00    +0.000 C 
ATOM      3  O   UNL     1      -0.740  14.200  24.005  0.00  0.00    +0.000 OA
ATOM      4  O   UNL     1      -0.542  14.681  21.830  0.00  0.00    +0.000 OA
ATOM      5  C   UNL     1       0.701  14.015  21.762  0.00  0.00    +0.000 C 
ATOM      6  C   UNL     1       0.410  12.593  21.491  0.00  0.00    +0.000 A 
ATOM      7  C   UNL     1      -0.629  11.844  21.972  0.00  0.00    +0.000 A 
ATOM      8  C   UNL     1      -0.352  10.316  21.751  0.00  0.00    +0.000 A 
ATOM      9  C   UNL     1       0.491   9.889  20.736  0.00  0.00    +0.000 A 
ATOM     10  N   UNL     1       0.832  10.896  19.832  0.00  0.00    +0.000 N 
ATOM     11  C   UNL     1       0.884  12.194  20.130  0.00  0.00    +0.000 A 
ATOM     12  O   UNL     1       1.275  13.049  19.338  0.00  0.00    +0.000 OA
ATOM     13  C   UNL     1       1.249  10.443  18.546  0.00  0.00    +0.000 C 
ATOM     14  C   UNL     1       1.522   9.018  18.796  0.00  0.00    +0.000 A 
ATOM     15  C   UNL     1       2.149   8.193  17.885  0.00  0.00    +0.000 A 
ATOM     16  C   UNL     1       2.630   6.988  18.328  0.00  0.00    +0.000 A 
ATOM     17  C   UNL     1       3.255   6.160  17.373  0.00  0.00    +0.000 A 
ATOM     18  C   UNL     1       3.886   4.992  17.751  0.00  0.00    +0.000 A 
ATOM     19  C   UNL     1       3.928   4.696  19.104  0.00  0.00    +0.000 A 
ATOM     20  C   UNL     1       3.261   5.529  20.049  0.00  0.00    +0.000 A 
ATOM     21  C   UNL     1       2.521   6.689  19.713  0.00  0.00    +0.000 A 
ATOM     22  N   UNL     1       1.771   7.513  20.604  0.00  0.00    +0.000 NA
ATOM     23  C   UNL     1       1.212   8.650  20.106  0.00  0.00    +0.000 A 
ENDROOT
BRANCH   1  25
ATOM     24  C   UNL     1      -3.941  12.277  24.407  0.00  0.00    +0.000 C 
ATOM     25  C   UNL     1      -3.231  13.159  23.358  0.00  0.00    +0.000 C 
ENDBRANCH   1  25
BRANCH   1  26
ATOM     26  O   UNL     1      -2.661  12.943  21.033  0.00  0.00    +0.000 OA
BRANCH  26  27
ATOM     27  C   UNL     1      -3.781  13.761  20.940  0.00  0.00    +0.000 C 
ATOM     28  O   UNL     1      -3.728  14.979  20.835  0.00  0.00    +0.000 OA
BRANCH  27  29
ATOM     29  C   UNL     1      -5.060  12.947  20.926  0.00  0.00    +0.000 C 
BRANCH  29  30
ATOM     30  N   UNL     1      -5.466  12.349  19.651  0.00  0.00    +0.000 N 
ATOM     31  C   UNL     1      -4.739  11.922  18.573  0.00  0.00    +0.000 A 
ATOM     32  C   UNL     1      -5.657  11.277  17.772  0.00  0.00    +0.000 A 
ATOM     33  N   UNL     1      -6.870  11.284  18.383  0.00  0.00    +0.000 NA
ATOM     34  N   UNL     1      -6.750  11.931  19.534  0.00  0.00    +0.000 NA
ENDBRANCH  29  30
ENDBRANCH  27  29
ENDBRANCH  26  27
ENDBRANCH   1  26
TORSDOF 5
ENDMDL
