MODEL 1
REMARK VINA RESULT:      -7.5      0.000      0.000
REMARK  Name = 
REMARK  6 active torsions:
REMARK  status: ('A' for Active; 'I' for Inactive)
REMARK    1  A    between atoms: C_2  and  C_3
REMARK    2  A    between atoms: N_5  and  C_6
REMARK    3  A    between atoms: C_9  and  C_10
REMARK    4  A    between atoms: C_10  and  O_12
REMARK    5  A    between atoms: C_13  and  O_14
REMARK    6  A    between atoms: C_17  and  C_18
REMARK                            x       y       z     vdW  Elec       q    Type
REMARK                         _______ _______ _______ _____ _____    ______ ____
ROOT
ATOM      1  C   UNL     1       3.464   7.000  17.777  0.00  0.00    +0.000 A 
ATOM      2  C   UNL     1       2.876   8.178  18.194  0.00  0.00    +0.000 A 
ATOM      3  N   UNL     1       2.071   7.925  19.285  0.00  0.00    +0.000 N 
ATOM      4  C   UNL     1       2.145   6.565  19.530  0.00  0.00    +0.000 A 
ATOM      5  C   UNL     1       2.985   5.956  18.612  0.00  0.00    +0.000 A 
ENDROOT
BRANCH   5   6
ATOM      6  C   UNL     1       3.222   4.513  18.597  0.00  0.00    +0.000 A 
ATOM      7  C   UNL     1       2.534   3.684  17.698  0.00  0.00    +0.000 A 
ATOM      8  C   UNL     1       2.750   2.303  17.691  0.00  0.00    +0.000 A 
ATOM      9  C   UNL     1       3.646   1.743  18.591  0.00  0.00    +0.000 A 
ATOM     10  F   UNL     1       3.845   0.419  18.589  0.00  0.00    +0.000 F 
ATOM     11  C   UNL     1       4.333   2.538  19.497  0.00  0.00    +0.000 A 
ATOM     12  C   UNL     1       4.127   3.921  19.497  0.00  0.00    +0.000 A 
ENDBRANCH   5   6
BRANCH   3  13
ATOM     13  C   UNL     1       1.293   8.876  20.016  0.00  0.00    +0.000 A 
ATOM     14  C   UNL     1       0.603   9.896  19.342  0.00  0.00    +0.000 A 
ATOM     15  C   UNL     1      -0.140  10.845  20.051  0.00  0.00    +0.000 A 
ATOM     16  C   UNL     1      -0.207  10.793  21.444  0.00  0.00    +0.000 A 
ATOM     17  C   UNL     1       0.487   9.784  22.117  0.00  0.00    +0.000 A 
ATOM     18  C   UNL     1       1.216   8.819  21.416  0.00  0.00    +0.000 A 
BRANCH  16  19
ATOM     19  C   UNL     1      -1.003  11.834  22.132  0.00  0.00    +0.000 C 
ATOM     20  O   UNL     1      -0.628  12.374  23.158  0.00  0.00    +0.000 OA
BRANCH  19  21
ATOM     21  O   UNL     1      -2.158  12.142  21.506  0.00  0.00    +0.000 OA
ATOM     22  H   UNL     1      -2.965  11.918  22.017  0.00  0.00    +0.000 HD
ENDBRANCH  19  21
ENDBRANCH  16  19
BRANCH  17  23
ATOM     23  O   UNL     1       0.490   9.694  23.481  0.00  0.00    +0.000 OA
ATOM     24  H   UNL     1       1.037  10.432  23.820  0.00  0.00    +0.000 HD
ENDBRANCH  17  23
ENDBRANCH   3  13
BRANCH   1  26
ATOM     25  N   UNL     1       5.126   6.842  15.794  0.00  0.00    +0.000 NA
ATOM     26  C   UNL     1       4.385   6.918  16.687  0.00  0.00    +0.000 C 
ENDBRANCH   1  26
TORSDOF 6
ENDMDL
MODEL 2
REMARK VINA RESULT:      -7.5      0.090      1.184
REMARK  Name = 
REMARK  6 active torsions:
REMARK  status: ('A' for Active; 'I' for Inactive)
REMARK    1  A    between atoms: C_2  and  C_3
REMARK    2  A    between atoms: N_5  and  C_6
REMARK    3  A    between atoms: C_9  and  C_10
REMARK    4  A    between atoms: C_10  and  O_12
REMARK    5  A    between atoms: C_13  and  O_14
REMARK    6  A    between atoms: C_17  and  C_18
REMARK                            x       y       z     vdW  Elec       q    Type
REMARK                         _______ _______ _______ _____ _____    ______ ____
ROOT
ATOM      1  C   UNL     1       3.472   6.993  17.785  0.00  0.00    +0.000 A 
ATOM      2  C   UNL     1       2.881   8.176  18.183  0.00  0.00    +0.000 A 
ATOM      3  N   UNL     1       2.044   7.932  19.251  0.00  0.00    +0.000 N 
ATOM      4  C   UNL     1       2.101   6.572  19.501  0.00  0.00    +0.000 A 
ATOM      5  C   UNL     1       2.962   5.954  18.609  0.00  0.00    +0.000 A 
ENDROOT
BRANCH   5   6
ATOM      6  C   UNL     1       3.190   4.510  18.604  0.00  0.00    +0.000 A 
ATOM      7  C   UNL     1       4.113   3.928  19.487  0.00  0.00    +0.000 A 
ATOM      8  C   UNL     1       4.342   2.549  19.473  0.00  0.00    +0.000 A 
ATOM      9  C   UNL     1       3.659   1.748  18.569  0.00  0.00    +0.000 A 
ATOM     10  F   UNL     1       3.887   0.429  18.552  0.00  0.00    +0.000 F 
ATOM     11  C   UNL     1       2.748   2.298  17.680  0.00  0.00    +0.000 A 
ATOM     12  C   UNL     1       2.509   3.675  17.700  0.00  0.00    +0.000 A 
ENDBRANCH   5   6
BRANCH   3  13
ATOM     13  C   UNL     1       1.252   8.890  19.957  0.00  0.00    +0.000 A 
ATOM     14  C   UNL     1       0.554   9.888  19.257  0.00  0.00    +0.000 A 
ATOM     15  C   UNL     1      -0.203  10.843  19.942  0.00  0.00    +0.000 A 
ATOM     16  C   UNL     1      -0.275  10.821  21.336  0.00  0.00    +0.000 A 
ATOM     17  C   UNL     1       0.426   9.835  22.034  0.00  0.00    +0.000 A 
ATOM     18  C   UNL     1       1.170   8.864  21.358  0.00  0.00    +0.000 A 
BRANCH  16  19
ATOM     19  C   UNL     1      -1.086  11.869  21.997  0.00  0.00    +0.000 C 
ATOM     20  O   UNL     1      -2.210  12.159  21.627  0.00  0.00    +0.000 OA
BRANCH  19  21
ATOM     21  O   UNL     1      -0.475  12.446  23.053  0.00  0.00    +0.000 OA
ATOM     22  H   UNL     1      -0.885  13.290  23.342  0.00  0.00    +0.000 HD
ENDBRANCH  19  21
ENDBRANCH  16  19
BRANCH  17  23
ATOM     23  O   UNL     1       0.424   9.776  23.400  0.00  0.00    +0.000 OA
ATOM     24  H   UNL     1       1.215  10.261  23.713  0.00  0.00    +0.000 HD
ENDBRANCH  17  23
ENDBRANCH   3  13
BRANCH   1  26
ATOM     25  N   UNL     1       5.195   6.813  15.857  0.00  0.00    +0.000 NA
ATOM     26  C   UNL     1       4.424   6.902  16.723  0.00  0.00    +0.000 C 
ENDBRANCH   1  26
TORSDOF 6
ENDMDL
MODEL 3
REMARK VINA RESULT:      -7.4      2.235      3.149
REMARK  Name = 
REMARK  6 active torsions:
REMARK  status: ('A' for Active; 'I' for Inactive)
REMARK    1  A    between atoms: C_2  and  C_3
REMARK    2  A    between atoms: N_5  and  C_6
REMARK    3  A    between atoms: C_9  and  C_10
REMARK    4  A    between atoms: C_10  and  O_12
REMARK    5  A    between atoms: C_13  and  O_14
REMARK    6  A    between atoms: C_17  and  C_18
REMARK                            x       y       z     vdW  Elec       q    Type
REMARK                         _______ _______ _______ _____ _____    ______ ____
ROOT
ATOM      1  C   UNL     1       2.902   5.097  19.689  0.00  0.00    +0.000 A 
ATOM      2  C   UNL     1       2.071   5.906  20.440  0.00  0.00    +0.000 A 
ATOM      3  N   UNL     1       2.112   7.191  19.942  0.00  0.00    +0.000 N 
ATOM      4  C   UNL     1       3.001   7.181  18.881  0.00  0.00    +0.000 A 
ATOM      5  C   UNL     1       3.520   5.909  18.700  0.00  0.00    +0.000 A 
ENDROOT
BRANCH   5   6
ATOM      6  C   UNL     1       4.520   5.602  17.679  0.00  0.00    +0.000 A 
ATOM      7  C   UNL     1       5.733   6.307  17.632  0.00  0.00    +0.000 A 
ATOM      8  C   UNL     1       6.685   6.024  16.648  0.00  0.00    +0.000 A 
ATOM      9  C   UNL     1       6.423   5.045  15.699  0.00  0.00    +0.000 A 
ATOM     10  F   UNL     1       7.332   4.783  14.752  0.00  0.00    +0.000 F 
ATOM     11  C   UNL     1       5.229   4.341  15.717  0.00  0.00    +0.000 A 
ATOM     12  C   UNL     1       4.281   4.613  16.708  0.00  0.00    +0.000 A 
ENDBRANCH   5   6
BRANCH   3  13
ATOM     13  C   UNL     1       1.393   8.325  20.432  0.00  0.00    +0.000 A 
ATOM     14  C   UNL     1       0.930   9.310  19.544  0.00  0.00    +0.000 A 
ATOM     15  C   UNL     1       0.247  10.434  20.018  0.00  0.00    +0.000 A 
ATOM     16  C   UNL     1       0.015  10.596  21.385  0.00  0.00    +0.000 A 
ATOM     17  C   UNL     1       0.483   9.622  22.270  0.00  0.00    +0.000 A 
ATOM     18  C   UNL     1       1.150   8.485  21.805  0.00  0.00    +0.000 A 
BRANCH  16  19
ATOM     19  C   UNL     1      -0.705  11.815  21.819  0.00  0.00    +0.000 C 
ATOM     20  O   UNL     1      -0.434  12.403  22.851  0.00  0.00    +0.000 OA
BRANCH  19  21
ATOM     21  O   UNL     1      -1.661  12.220  20.957  0.00  0.00    +0.000 OA
ATOM     22  H   UNL     1      -2.257  12.913  21.315  0.00  0.00    +0.000 HD
ENDBRANCH  19  21
ENDBRANCH  16  19
BRANCH  17  23
ATOM     23  O   UNL     1       0.318   9.735  23.623  0.00  0.00    +0.000 OA
ATOM     24  H   UNL     1       1.196   9.937  24.007  0.00  0.00    +0.000 HD
ENDBRANCH  17  23
ENDBRANCH   3  13
BRANCH   1  26
ATOM     25  N   UNL     1       3.192   2.559  20.122  0.00  0.00    +0.000 NA
ATOM     26  C   UNL     1       3.063   3.696  19.921  0.00  0.00    +0.000 C 
ENDBRANCH   1  26
TORSDOF 6
ENDMDL
MODEL 4
REMARK VINA RESULT:      -7.4      2.091      3.010
REMARK  Name = 
REMARK  6 active torsions:
REMARK  status: ('A' for Active; 'I' for Inactive)
REMARK    1  A    between atoms: C_2  and  C_3
REMARK    2  A    between atoms: N_5  and  C_6
REMARK    3  A    between atoms: C_9  and  C_10
REMARK    4  A    between atoms: C_10  and  O_12
REMARK    5  A    between atoms: C_13  and  O_14
REMARK    6  A    between atoms: C_17  and  C_18
REMARK                            x       y       z     vdW  Elec       q    Type
REMARK                         _______ _______ _______ _____ _____    ______ ____
ROOT
ATOM      1  C   UNL     1       2.719   5.248  19.786  0.00  0.00    +0.000 A 
ATOM      2  C   UNL     1       1.976   6.070  20.611  0.00  0.00    +0.000 A 
ATOM      3  N   UNL     1       1.866   7.318  20.033  0.00  0.00    +0.000 N 
ATOM      4  C   UNL     1       2.572   7.271  18.844  0.00  0.00    +0.000 A 
ATOM      5  C   UNL     1       3.124   6.014  18.660  0.00  0.00    +0.000 A 
ENDROOT
BRANCH   5   6
ATOM      6  C   UNL     1       3.963   5.680  17.510  0.00  0.00    +0.000 A 
ATOM      7  C   UNL     1       4.134   4.345  17.113  0.00  0.00    +0.000 A 
ATOM      8  C   UNL     1       4.946   4.024  16.021  0.00  0.00    +0.000 A 
ATOM      9  C   UNL     1       5.601   5.034  15.331  0.00  0.00    +0.000 A 
ATOM     10  F   UNL     1       6.386   4.723  14.291  0.00  0.00    +0.000 F 
ATOM     11  C   UNL     1       5.457   6.361  15.707  0.00  0.00    +0.000 A 
ATOM     12  C   UNL     1       4.635   6.685  16.791  0.00  0.00    +0.000 A 
ENDBRANCH   5   6
BRANCH   3  13
ATOM     13  C   UNL     1       1.174   8.451  20.562  0.00  0.00    +0.000 A 
ATOM     14  C   UNL     1       0.700   9.457  19.705  0.00  0.00    +0.000 A 
ATOM     15  C   UNL     1       0.043  10.580  20.217  0.00  0.00    +0.000 A 
ATOM     16  C   UNL     1      -0.151  10.719  21.592  0.00  0.00    +0.000 A 
ATOM     17  C   UNL     1       0.328   9.724  22.447  0.00  0.00    +0.000 A 
ATOM     18  C   UNL     1       0.969   8.588  21.944  0.00  0.00    +0.000 A 
BRANCH  16  19
ATOM     19  C   UNL     1      -0.844  11.938  22.067  0.00  0.00    +0.000 C 
ATOM     20  O   UNL     1      -0.535  12.509  23.098  0.00  0.00    +0.000 OA
BRANCH  19  21
ATOM     21  O   UNL     1      -1.823  12.366  21.243  0.00  0.00    +0.000 OA
ATOM     22  H   UNL     1      -1.680  13.267  20.882  0.00  0.00    +0.000 HD
ENDBRANCH  19  21
ENDBRANCH  16  19
BRANCH  17  23
ATOM     23  O   UNL     1       0.200   9.814  23.806  0.00  0.00    +0.000 OA
ATOM     24  H   UNL     1       0.937  10.370  24.131  0.00  0.00    +0.000 HD
ENDBRANCH  17  23
ENDBRANCH   3  13
BRANCH   1  26
ATOM     25  N   UNL     1       3.228   2.761  20.309  0.00  0.00    +0.000 NA
ATOM     26  C   UNL     1       2.992   3.875  20.075  0.00  0.00    +0.000 C 
ENDBRANCH   1  26
TORSDOF 6
ENDMDL
MODEL 5
REMARK VINA RESULT:      -7.2      4.886      8.618
REMARK  Name = 
REMARK  6 active torsions:
REMARK  status: ('A' for Active; 'I' for Inactive)
REMARK    1  A    between atoms: C_2  and  C_3
REMARK    2  A    between atoms: N_5  and  C_6
REMARK    3  A    between atoms: C_9  and  C_10
REMARK    4  A    between atoms: C_10  and  O_12
REMARK    5  A    between atoms: C_13  and  O_14
REMARK    6  A    between atoms: C_17  and  C_18
REMARK                            x       y       z     vdW  Elec       q    Type
REMARK                         _______ _______ _______ _____ _____    ______ ____
ROOT
ATOM      1  C   UNL     1       0.777   9.256  21.262  0.00  0.00    +0.000 A 
ATOM      2  C   UNL     1       1.252   7.963  21.153  0.00  0.00    +0.000 A 
ATOM      3  N   UNL     1       1.769   7.772  19.889  0.00  0.00    +0.000 N 
ATOM      4  C   UNL     1       1.590   8.958  19.199  0.00  0.00    +0.000 A 
ATOM      5  C   UNL     1       0.969   9.896  20.008  0.00  0.00    +0.000 A 
ENDROOT
BRANCH   5   6
ATOM      6  C   UNL     1       0.610  11.232  19.534  0.00  0.00    +0.000 A 
ATOM      7  C   UNL     1       1.399  12.344  19.866  0.00  0.00    +0.000 A 
ATOM      8  C   UNL     1       1.050  13.624  19.425  0.00  0.00    +0.000 A 
ATOM      9  C   UNL     1      -0.096  13.799  18.662  0.00  0.00    +0.000 A 
ATOM     10  F   UNL     1      -0.434  15.027  18.249  0.00  0.00    +0.000 F 
ATOM     11  C   UNL     1      -0.898  12.719  18.327  0.00  0.00    +0.000 A 
ATOM     12  C   UNL     1      -0.544  11.436  18.757  0.00  0.00    +0.000 A 
ENDBRANCH   5   6
BRANCH   3  13
ATOM     13  C   UNL     1       2.362   6.576  19.377  0.00  0.00    +0.000 A 
ATOM     14  C   UNL     1       2.988   6.576  18.120  0.00  0.00    +0.000 A 
ATOM     15  C   UNL     1       3.549   5.405  17.601  0.00  0.00    +0.000 A 
ATOM     16  C   UNL     1       3.494   4.214  18.327  0.00  0.00    +0.000 A 
ATOM     17  C   UNL     1       2.863   4.210  19.573  0.00  0.00    +0.000 A 
ATOM     18  C   UNL     1       2.317   5.379  20.109  0.00  0.00    +0.000 A 
BRANCH  16  19
ATOM     19  C   UNL     1       4.098   3.009  17.714  0.00  0.00    +0.000 C 
ATOM     20  O   UNL     1       3.660   1.888  17.903  0.00  0.00    +0.000 OA
BRANCH  19  21
ATOM     21  O   UNL     1       5.151   3.274  16.913  0.00  0.00    +0.000 OA
ATOM     22  H   UNL     1       5.918   3.675  17.377  0.00  0.00    +0.000 HD
ENDBRANCH  19  21
ENDBRANCH  16  19
BRANCH  17  23
ATOM     23  O   UNL     1       2.746   3.071  20.321  0.00  0.00    +0.000 OA
ATOM     24  H   UNL     1       2.806   2.312  19.705  0.00  0.00    +0.000 HD
ENDBRANCH  17  23
ENDBRANCH   3  13
BRANCH   1  26
ATOM     25  N   UNL     1      -0.254  10.216  23.437  0.00  0.00    +0.000 NA
ATOM     26  C   UNL     1       0.206   9.791  22.457  0.00  0.00    +0.000 C 
ENDBRANCH   1  26
TORSDOF 6
ENDMDL
MODEL 6
REMARK VINA RESULT:      -7.2      2.217      2.927
REMARK  Name = 
REMARK  6 active torsions:
REMARK  status: ('A' for Active; 'I' for Inactive)
REMARK    1  A    between atoms: C_2  and  C_3
REMARK    2  A    between atoms: N_5  and  C_6
REMARK    3  A    between atoms: C_9  and  C_10
REMARK    4  A    between atoms: C_10  and  O_12
REMARK    5  A    between atoms: C_13  and  O_14
REMARK    6  A    between atoms: C_17  and  C_18
REMARK                            x       y       z     vdW  Elec       q    Type
REMARK                         _______ _______ _______ _____ _____    ______ ____
ROOT
ATOM      1  C   UNL     1       2.553   5.036  20.047  0.00  0.00    +0.000 A 
ATOM      2  C   UNL     1       1.696   5.892  20.710  0.00  0.00    +0.000 A 
ATOM      3  N   UNL     1       1.900   7.180  20.260  0.00  0.00    +0.000 N 
ATOM      4  C   UNL     1       2.915   7.120  19.321  0.00  0.00    +0.000 A 
ATOM      5  C   UNL     1       3.354   5.815  19.170  0.00  0.00    +0.000 A 
ENDROOT
BRANCH   5   6
ATOM      6  C   UNL     1       4.452   5.451  18.276  0.00  0.00    +0.000 A 
ATOM      7  C   UNL     1       4.240   5.329  16.895  0.00  0.00    +0.000 A 
ATOM      8  C   UNL     1       5.285   4.968  16.040  0.00  0.00    +0.000 A 
ATOM      9  C   UNL     1       6.545   4.713  16.565  0.00  0.00    +0.000 A 
ATOM     10  F   UNL     1       7.543   4.358  15.746  0.00  0.00    +0.000 F 
ATOM     11  C   UNL     1       6.781   4.817  17.928  0.00  0.00    +0.000 A 
ATOM     12  C   UNL     1       5.739   5.191  18.782  0.00  0.00    +0.000 A 
ENDBRANCH   5   6
BRANCH   3  13
ATOM     13  C   UNL     1       1.211   8.358  20.688  0.00  0.00    +0.000 A 
ATOM     14  C   UNL     1       0.996   9.419  19.794  0.00  0.00    +0.000 A 
ATOM     15  C   UNL     1       0.345  10.584  20.211  0.00  0.00    +0.000 A 
ATOM     16  C   UNL     1      -0.100  10.711  21.528  0.00  0.00    +0.000 A 
ATOM     17  C   UNL     1       0.121   9.660  22.421  0.00  0.00    +0.000 A 
ATOM     18  C   UNL     1       0.753   8.484  22.009  0.00  0.00    +0.000 A 
BRANCH  16  19
ATOM     19  C   UNL     1      -0.772  11.975  21.905  0.00  0.00    +0.000 C 
ATOM     20  O   UNL     1      -0.485  12.594  22.915  0.00  0.00    +0.000 OA
BRANCH  19  21
ATOM     21  O   UNL     1      -1.704  12.384  21.019  0.00  0.00    +0.000 OA
ATOM     22  H   UNL     1      -2.220  13.167  21.310  0.00  0.00    +0.000 HD
ENDBRANCH  19  21
ENDBRANCH  16  19
BRANCH  17  23
ATOM     23  O   UNL     1      -0.262   9.732  23.732  0.00  0.00    +0.000 OA
ATOM     24  H   UNL     1      -0.537  10.656  23.904  0.00  0.00    +0.000 HD
ENDBRANCH  17  23
ENDBRANCH   3  13
BRANCH   1  26
ATOM     25  N   UNL     1       2.593   2.474  20.438  0.00  0.00    +0.000 NA
ATOM     26  C   UNL     1       2.575   3.622  20.255  0.00  0.00    +0.000 C 
ENDBRANCH   1  26
TORSDOF 6
ENDMDL
MODEL 7
REMARK VINA RESULT:      -7.2      0.690      1.587
REMARK  Name = 
REMARK  6 active torsions:
REMARK  status: ('A' for Active; 'I' for Inactive)
REMARK    1  A    between atoms: C_2  and  C_3
REMARK    2  A    between atoms: N_5  and  C_6
REMARK    3  A    between atoms: C_9  and  C_10
REMARK    4  A    between atoms: C_10  and  O_12
REMARK    5  A    between atoms: C_13  and  O_14
REMARK    6  A    between atoms: C_17  and  C_18
REMARK                            x       y       z     vdW  Elec       q    Type
REMARK                         _______ _______ _______ _____ _____    ______ ____
ROOT
ATOM      1  C   UNL     1       3.605   6.945  17.612  0.00  0.00    +0.000 A 
ATOM      2  C   UNL     1       3.018   8.140  17.979  0.00  0.00    +0.000 A 
ATOM      3  N   UNL     1       2.176   7.925  19.051  0.00  0.00    +0.000 N 
ATOM      4  C   UNL     1       2.227   6.572  19.334  0.00  0.00    +0.000 A 
ATOM      5  C   UNL     1       3.088   5.929  18.460  0.00  0.00    +0.000 A 
ENDROOT
BRANCH   5   6
ATOM      6  C   UNL     1       3.310   4.484  18.491  0.00  0.00    +0.000 A 
ATOM      7  C   UNL     1       2.617   3.634  17.615  0.00  0.00    +0.000 A 
ATOM      8  C   UNL     1       2.818   2.252  17.652  0.00  0.00    +0.000 A 
ATOM      9  C   UNL     1       3.703   1.711  18.574  0.00  0.00    +0.000 A 
ATOM     10  F   UNL     1       3.888   0.385  18.614  0.00  0.00    +0.000 F 
ATOM     11  C   UNL     1       4.395   2.526  19.457  0.00  0.00    +0.000 A 
ATOM     12  C   UNL     1       4.205   3.910  19.413  0.00  0.00    +0.000 A 
ENDBRANCH   5   6
BRANCH   3  13
ATOM     13  C   UNL     1       1.386   8.903  19.731  0.00  0.00    +0.000 A 
ATOM     14  C   UNL     1       1.035   8.719  21.078  0.00  0.00    +0.000 A 
ATOM     15  C   UNL     1       0.243   9.660  21.744  0.00  0.00    +0.000 A 
ATOM     16  C   UNL     1      -0.214  10.798  21.077  0.00  0.00    +0.000 A 
ATOM     17  C   UNL     1       0.127  10.977  19.735  0.00  0.00    +0.000 A 
ATOM     18  C   UNL     1       0.934  10.053  19.066  0.00  0.00    +0.000 A 
BRANCH  16  19
ATOM     19  C   UNL     1      -1.057  11.746  21.839  0.00  0.00    +0.000 C 
ATOM     20  O   UNL     1      -2.030  12.295  21.352  0.00  0.00    +0.000 OA
BRANCH  19  21
ATOM     21  O   UNL     1      -0.664  11.922  23.118  0.00  0.00    +0.000 OA
ATOM     22  H   UNL     1      -0.771  11.127  23.684  0.00  0.00    +0.000 HD
ENDBRANCH  19  21
ENDBRANCH  16  19
BRANCH  17  23
ATOM     23  O   UNL     1      -0.314  12.053  19.014  0.00  0.00    +0.000 OA
ATOM     24  H   UNL     1       0.330  12.202  18.292  0.00  0.00    +0.000 HD
ENDBRANCH  17  23
ENDBRANCH   3  13
BRANCH   1  26
ATOM     25  N   UNL     1       5.338   6.712  15.699  0.00  0.00    +0.000 NA
ATOM     26  C   UNL     1       4.558   6.824  16.555  0.00  0.00    +0.000 C 
ENDBRANCH   1  26
TORSDOF 6
ENDMDL
MODEL 8
REMARK VINA RESULT:      -7.2      1.010      2.064
REMARK  Name = 
REMARK  6 active torsions:
REMARK  status: ('A' for Active; 'I' for Inactive)
REMARK    1  A    between atoms: C_2  and  C_3
REMARK    2  A    between atoms: N_5  and  C_6
REMARK    3  A    between atoms: C_9  and  C_10
REMARK    4  A    between atoms: C_10  and  O_12
REMARK    5  A    between atoms: C_13  and  O_14
REMARK    6  A    between atoms: C_17  and  C_18
REMARK                            x       y       z     vdW  Elec       q    Type
REMARK                         _______ _______ _______ _____ _____    ______ ____
ROOT
ATOM      1  C   UNL     1       3.766   6.889  17.461  0.00  0.00    +0.000 A 
ATOM      2  C   UNL     1       3.181   8.114  17.713  0.00  0.00    +0.000 A 
ATOM      3  N   UNL     1       2.221   7.968  18.693  0.00  0.00    +0.000 N 
ATOM      4  C   UNL     1       2.199   6.628  19.035  0.00  0.00    +0.000 A 
ATOM      5  C   UNL     1       3.129   5.925  18.288  0.00  0.00    +0.000 A 
ENDROOT
BRANCH   5   6
ATOM      6  C   UNL     1       3.301   4.477  18.401  0.00  0.00    +0.000 A 
ATOM      7  C   UNL     1       4.129   3.930  19.394  0.00  0.00    +0.000 A 
ATOM      8  C   UNL     1       4.304   2.547  19.495  0.00  0.00    +0.000 A 
ATOM      9  C   UNL     1       3.665   1.705  18.595  0.00  0.00    +0.000 A 
ATOM     10  F   UNL     1       3.842   0.382  18.688  0.00  0.00    +0.000 F 
ATOM     11  C   UNL     1       2.849   2.219  17.599  0.00  0.00    +0.000 A 
ATOM     12  C   UNL     1       2.662   3.602  17.504  0.00  0.00    +0.000 A 
ENDBRANCH   5   6
BRANCH   3  13
ATOM     13  C   UNL     1       1.394   8.996  19.243  0.00  0.00    +0.000 A 
ATOM     14  C   UNL     1       1.026   8.962  20.597  0.00  0.00    +0.000 A 
ATOM     15  C   UNL     1       0.197   9.950  21.137  0.00  0.00    +0.000 A 
ATOM     16  C   UNL     1      -0.281  10.988  20.335  0.00  0.00    +0.000 A 
ATOM     17  C   UNL     1       0.076  11.018  18.984  0.00  0.00    +0.000 A 
ATOM     18  C   UNL     1       0.920  10.046  18.440  0.00  0.00    +0.000 A 
BRANCH  16  19
ATOM     19  C   UNL     1      -1.163  11.994  20.968  0.00  0.00    +0.000 C 
ATOM     20  O   UNL     1      -2.189  12.389  20.443  0.00  0.00    +0.000 OA
BRANCH  19  21
ATOM     21  O   UNL     1      -0.738  12.408  22.180  0.00  0.00    +0.000 OA
ATOM     22  H   UNL     1      -0.689  11.696  22.854  0.00  0.00    +0.000 HD
ENDBRANCH  19  21
ENDBRANCH  16  19
BRANCH  17  23
ATOM     23  O   UNL     1      -0.382  11.987  18.136  0.00  0.00    +0.000 OA
ATOM     24  H   UNL     1      -1.308  11.761  17.910  0.00  0.00    +0.000 HD
ENDBRANCH  17  23
ENDBRANCH   3  13
BRANCH   1  26
ATOM     25  N   UNL     1       5.682   6.550  15.748  0.00  0.00    +0.000 NA
ATOM     26  C   UNL     1       4.825   6.696  16.520  0.00  0.00    +0.000 C 
ENDBRANCH   1  26
TORSDOF 6
ENDMDL
MODEL 9
REMARK VINA RESULT:      -7.1      2.393      3.514
REMARK  Name = 
REMARK  6 active torsions:
REMARK  status: ('A' for Active; 'I' for Inactive)
REMARK    1  A    between atoms: C_2  and  C_3
REMARK    2  A    between atoms: N_5  and  C_6
REMARK    3  A    between atoms: C_9  and  C_10
REMARK    4  A    between atoms: C_10  and  O_12
REMARK    5  A    between atoms: C_13  and  O_14
REMARK    6  A    between atoms: C_17  and  C_18
REMARK                            x       y       z     vdW  Elec       q    Type
REMARK                         _______ _______ _______ _____ _____    ______ ____
ROOT
ATOM      1  C   UNL     1       3.017   5.021  19.585  0.00  0.00    +0.000 A 
ATOM      2  C   UNL     1       2.173   5.832  20.317  0.00  0.00    +0.000 A 
ATOM      3  N   UNL     1       2.207   7.111  19.799  0.00  0.00    +0.000 N 
ATOM      4  C   UNL     1       3.104   7.092  18.746  0.00  0.00    +0.000 A 
ATOM      5  C   UNL     1       3.636   5.823  18.589  0.00  0.00    +0.000 A 
ENDROOT
BRANCH   5   6
ATOM      6  C   UNL     1       4.647   5.511  17.580  0.00  0.00    +0.000 A 
ATOM      7  C   UNL     1       5.856   6.221  17.535  0.00  0.00    +0.000 A 
ATOM      8  C   UNL     1       6.819   5.933  16.563  0.00  0.00    +0.000 A 
ATOM      9  C   UNL     1       6.571   4.942  15.623  0.00  0.00    +0.000 A 
ATOM     10  F   UNL     1       7.490   4.673  14.688  0.00  0.00    +0.000 F 
ATOM     11  C   UNL     1       5.381   4.230  15.639  0.00  0.00    +0.000 A 
ATOM     12  C   UNL     1       4.422   4.509  16.619  0.00  0.00    +0.000 A 
ENDBRANCH   5   6
BRANCH   3  13
ATOM     13  C   UNL     1       1.473   8.245  20.266  0.00  0.00    +0.000 A 
ATOM     14  C   UNL     1       1.056   8.318  21.605  0.00  0.00    +0.000 A 
ATOM     15  C   UNL     1       0.317   9.412  22.064  0.00  0.00    +0.000 A 
ATOM     16  C   UNL     1      -0.021  10.451  21.195  0.00  0.00    +0.000 A 
ATOM     17  C   UNL     1       0.385  10.376  19.861  0.00  0.00    +0.000 A 
ATOM     18  C   UNL     1       1.141   9.296  19.397  0.00  0.00    +0.000 A 
BRANCH  16  19
ATOM     19  C   UNL     1      -0.814  11.574  21.745  0.00  0.00    +0.000 C 
ATOM     20  O   UNL     1      -1.594  12.219  21.067  0.00  0.00    +0.000 OA
BRANCH  19  21
ATOM     21  O   UNL     1      -0.611  11.794  23.061  0.00  0.00    +0.000 OA
ATOM     22  H   UNL     1      -1.430  11.978  23.569  0.00  0.00    +0.000 HD
ENDBRANCH  19  21
ENDBRANCH  16  19
BRANCH  17  23
ATOM     23  O   UNL     1       0.061  11.343  18.951  0.00  0.00    +0.000 OA
ATOM     24  H   UNL     1       0.608  12.129  19.155  0.00  0.00    +0.000 HD
ENDBRANCH  17  23
ENDBRANCH   3  13
BRANCH   1  26
ATOM     25  N   UNL     1       3.331   2.487  20.031  0.00  0.00    +0.000 NA
ATOM     26  C   UNL     1       3.190   3.625  19.839  0.00  0.00    +0.000 C 
ENDBRANCH   1  26
TORSDOF 6
ENDMDL
