MODEL 1
REMARK VINA RESULT:      -8.0      0.000      0.000
REMARK  Name = 
REMARK  6 active torsions:
REMARK  status: ('A' for Active; 'I' for Inactive)
REMARK    1  A    between atoms: O_1  and  C_2
REMARK    2  A    between atoms: C_2  and  C_3
REMARK    3  A    between atoms: C_2  and  C_11
REMARK    4  A    between atoms: C_2  and  C_17
REMARK    5  A    between atoms: C_3  and  C_4
REMARK    6  A    between atoms: C_4  and  N_5
REMARK                            x       y       z     vdW  Elec       q    Type
REMARK                         _______ _______ _______ _____ _____    ______ ____
ROOT
ATOM      1  C   UNL     1       3.713   5.213  18.478  0.00  0.00    +0.000 C 
ENDROOT
BRANCH   1   2
ATOM      2  C   UNL     1       3.076   3.795  18.747  0.00  0.00    +0.000 C 
ATOM      3  C   UNL     1       1.604   3.634  18.255  0.00  0.00    +0.000 C 
ATOM      4  C   UNL     1       0.852   3.172  19.515  0.00  0.00    +0.000 C 
ATOM      5  C   UNL     1       0.865   4.282  20.528  0.00  0.00    +0.000 C 
ATOM      6  C   UNL     1       2.158   4.374  20.989  0.00  0.00    +0.000 C 
ATOM      7  C   UNL     1       2.949   3.349  20.236  0.00  0.00    +0.000 C 
ATOM      8  C   UNL     1       1.888   2.246  20.138  0.00  0.00    +0.000 C 
ENDBRANCH   1   2
BRANCH   1   9
ATOM      9  C   UNL     1       4.846   5.094  17.437  0.00  0.00    +0.000 A 
ATOM     10  C   UNL     1       4.787   4.154  16.382  0.00  0.00    +0.000 A 
ATOM     11  C   UNL     1       5.826   4.049  15.453  0.00  0.00    +0.000 A 
ATOM     12  C   UNL     1       6.942   4.882  15.549  0.00  0.00    +0.000 A 
ATOM     13  C   UNL     1       7.022   5.826  16.578  0.00  0.00    +0.000 A 
ATOM     14  C   UNL     1       5.983   5.933  17.512  0.00  0.00    +0.000 A 
ENDBRANCH   1   9
BRANCH   1  15
ATOM     15  O   UNL     1       4.210   5.692  19.711  0.00  0.00    +0.000 OA
ATOM     16  H   UNL     1       3.965   5.069  20.439  0.00  0.00    +0.000 HD
ENDBRANCH   1  15
BRANCH   1  17
ATOM     17  C   UNL     1       2.583   6.175  17.981  0.00  0.00    +0.000 C 
BRANCH  17  18
ATOM     18  C   UNL     1       2.738   7.674  18.341  0.00  0.00    +0.000 C 
BRANCH  18  19
ATOM     19  N   UNL     1       1.552   8.206  19.064  0.00  0.00    +0.000 NA
ATOM     20  C   UNL     1       1.685   8.052  20.537  0.00  0.00    +0.000 C 
ATOM     21  C   UNL     1       0.436   8.569  21.254  0.00  0.00    +0.000 C 
ATOM     22  C   UNL     1       0.224  10.042  20.923  0.00  0.00    +0.000 C 
ATOM     23  C   UNL     1       0.119  10.208  19.407  0.00  0.00    +0.000 C 
ATOM     24  C   UNL     1       1.375   9.641  18.730  0.00  0.00    +0.000 C 
ENDBRANCH  18  19
ENDBRANCH  17  18
ENDBRANCH   1  17
TORSDOF 6
ENDMDL
MODEL 2
REMARK VINA RESULT:      -8.0      0.527      1.049
REMARK  Name = 
REMARK  6 active torsions:
REMARK  status: ('A' for Active; 'I' for Inactive)
REMARK    1  A    between atoms: O_1  and  C_2
REMARK    2  A    between atoms: C_2  and  C_3
REMARK    3  A    between atoms: C_2  and  C_11
REMARK    4  A    between atoms: C_2  and  C_17
REMARK    5  A    between atoms: C_3  and  C_4
REMARK    6  A    between atoms: C_4  and  N_5
REMARK                            x       y       z     vdW  Elec       q    Type
REMARK                         _______ _______ _______ _____ _____    ______ ____
ROOT
ATOM      1  C   UNL     1       3.813   5.007  18.560  0.00  0.00    +0.000 C 
ENDROOT
BRANCH   1   2
ATOM      2  C   UNL     1       3.116   3.640  18.925  0.00  0.00    +0.000 C 
ATOM      3  C   UNL     1       1.671   3.470  18.362  0.00  0.00    +0.000 C 
ATOM      4  C   UNL     1       0.833   3.154  19.613  0.00  0.00    +0.000 C 
ATOM      5  C   UNL     1       0.823   4.356  20.513  0.00  0.00    +0.000 C 
ATOM      6  C   UNL     1       2.089   4.459  21.040  0.00  0.00    +0.000 C 
ATOM      7  C   UNL     1       2.889   3.345  20.439  0.00  0.00    +0.000 C 
ATOM      8  C   UNL     1       1.800   2.266  20.383  0.00  0.00    +0.000 C 
ENDBRANCH   1   2
BRANCH   1   9
ATOM      9  C   UNL     1       4.983   4.760  17.585  0.00  0.00    +0.000 A 
ATOM     10  C   UNL     1       6.331   4.878  17.999  0.00  0.00    +0.000 A 
ATOM     11  C   UNL     1       7.380   4.663  17.102  0.00  0.00    +0.000 A 
ATOM     12  C   UNL     1       7.114   4.319  15.776  0.00  0.00    +0.000 A 
ATOM     13  C   UNL     1       5.790   4.188  15.342  0.00  0.00    +0.000 A 
ATOM     14  C   UNL     1       4.735   4.404  16.238  0.00  0.00    +0.000 A 
ENDBRANCH   1   9
BRANCH   1  15
ATOM     15  O   UNL     1       4.276   5.578  19.766  0.00  0.00    +0.000 OA
ATOM     16  H   UNL     1       3.562   6.127  20.176  0.00  0.00    +0.000 HD
ENDBRANCH   1  15
BRANCH   1  17
ATOM     17  C   UNL     1       2.739   5.955  17.930  0.00  0.00    +0.000 C 
BRANCH  17  18
ATOM     18  C   UNL     1       2.959   7.477  18.119  0.00  0.00    +0.000 C 
BRANCH  18  19
ATOM     19  N   UNL     1       1.774   8.148  18.718  0.00  0.00    +0.000 NA
ATOM     20  C   UNL     1       1.823   8.139  20.204  0.00  0.00    +0.000 C 
ATOM     21  C   UNL     1       0.575   8.798  20.794  0.00  0.00    +0.000 C 
ATOM     22  C   UNL     1       0.473  10.239  20.308  0.00  0.00    +0.000 C 
ATOM     23  C   UNL     1       0.456  10.255  18.779  0.00  0.00    +0.000 C 
ATOM     24  C   UNL     1       1.706   9.550  18.234  0.00  0.00    +0.000 C 
ENDBRANCH  18  19
ENDBRANCH  17  18
ENDBRANCH   1  17
TORSDOF 6
ENDMDL
MODEL 3
REMARK VINA RESULT:      -7.9      0.661      1.513
REMARK  Name = 
REMARK  6 active torsions:
REMARK  status: ('A' for Active; 'I' for Inactive)
REMARK    1  A    between atoms: O_1  and  C_2
REMARK    2  A    between atoms: C_2  and  C_3
REMARK    3  A    between atoms: C_2  and  C_11
REMARK    4  A    between atoms: C_2  and  C_17
REMARK    5  A    between atoms: C_3  and  C_4
REMARK    6  A    between atoms: C_4  and  N_5
REMARK                            x       y       z     vdW  Elec       q    Type
REMARK                         _______ _______ _______ _____ _____    ______ ____
ROOT
ATOM      1  C   UNL     1       3.827   5.024  18.575  0.00  0.00    +0.000 C 
ENDROOT
BRANCH   1   2
ATOM      2  C   UNL     1       3.107   3.648  18.854  0.00  0.00    +0.000 C 
ATOM      3  C   UNL     1       1.641   3.557  18.328  0.00  0.00    +0.000 C 
ATOM      4  C   UNL     1       0.836   3.161  19.577  0.00  0.00    +0.000 C 
ATOM      5  C   UNL     1       0.885   4.287  20.570  0.00  0.00    +0.000 C 
ATOM      6  C   UNL     1       2.169   4.318  21.061  0.00  0.00    +0.000 C 
ATOM      7  C   UNL     1       2.921   3.238  20.347  0.00  0.00    +0.000 C 
ATOM      8  C   UNL     1       1.804   2.192  20.242  0.00  0.00    +0.000 C 
ENDBRANCH   1   2
BRANCH   1   9
ATOM      9  C   UNL     1       4.952   4.832  17.536  0.00  0.00    +0.000 A 
ATOM     10  C   UNL     1       6.317   4.871  17.906  0.00  0.00    +0.000 A 
ATOM     11  C   UNL     1       7.325   4.707  16.953  0.00  0.00    +0.000 A 
ATOM     12  C   UNL     1       6.998   4.493  15.612  0.00  0.00    +0.000 A 
ATOM     13  C   UNL     1       5.656   4.441  15.221  0.00  0.00    +0.000 A 
ATOM     14  C   UNL     1       4.643   4.607  16.174  0.00  0.00    +0.000 A 
ENDBRANCH   1   9
BRANCH   1  15
ATOM     15  O   UNL     1       4.352   5.481  19.806  0.00  0.00    +0.000 OA
ATOM     16  H   UNL     1       3.941   6.348  20.047  0.00  0.00    +0.000 HD
ENDBRANCH   1  15
BRANCH   1  17
ATOM     17  C   UNL     1       2.756   6.047  18.071  0.00  0.00    +0.000 C 
BRANCH  17  18
ATOM     18  C   UNL     1       3.250   7.489  17.791  0.00  0.00    +0.000 C 
BRANCH  18  19
ATOM     19  N   UNL     1       2.525   8.502  18.604  0.00  0.00    +0.000 NA
ATOM     20  C   UNL     1       1.514   9.239  17.800  0.00  0.00    +0.000 C 
ATOM     21  C   UNL     1       0.812  10.300  18.649  0.00  0.00    +0.000 C 
ATOM     22  C   UNL     1       0.119   9.638  19.835  0.00  0.00    +0.000 C 
ATOM     23  C   UNL     1       1.150   8.852  20.645  0.00  0.00    +0.000 C 
ATOM     24  C   UNL     1       1.855   7.828  19.744  0.00  0.00    +0.000 C 
ENDBRANCH  18  19
ENDBRANCH  17  18
ENDBRANCH   1  17
TORSDOF 6
ENDMDL
MODEL 4
REMARK VINA RESULT:      -7.9      2.825      5.171
REMARK  Name = 
REMARK  6 active torsions:
REMARK  status: ('A' for Active; 'I' for Inactive)
REMARK    1  A    between atoms: O_1  and  C_2
REMARK    2  A    between atoms: C_2  and  C_3
REMARK    3  A    between atoms: C_2  and  C_11
REMARK    4  A    between atoms: C_2  and  C_17
REMARK    5  A    between atoms: C_3  and  C_4
REMARK    6  A    between atoms: C_4  and  N_5
REMARK                            x       y       z     vdW  Elec       q    Type
REMARK                         _______ _______ _______ _____ _____    ______ ____
ROOT
ATOM      1  C   UNL     1       5.747   5.082  15.776  0.00  0.00    +0.000 C 
ENDROOT
BRANCH   1   2
ATOM      2  C   UNL     1       6.996   5.608  16.585  0.00  0.00    +0.000 C 
ATOM      3  C   UNL     1       7.650   4.559  17.537  0.00  0.00    +0.000 C 
ATOM      4  C   UNL     1       7.646   5.263  18.905  0.00  0.00    +0.000 C 
ATOM      5  C   UNL     1       6.226   5.451  19.356  0.00  0.00    +0.000 C 
ATOM      6  C   UNL     1       5.683   6.416  18.541  0.00  0.00    +0.000 C 
ATOM      7  C   UNL     1       6.753   6.797  17.565  0.00  0.00    +0.000 C 
ATOM      8  C   UNL     1       7.973   6.691  18.488  0.00  0.00    +0.000 C 
ENDBRANCH   1   2
BRANCH   1   9
ATOM      9  C   UNL     1       6.180   4.648  14.360  0.00  0.00    +0.000 A 
ATOM     10  C   UNL     1       5.436   3.703  13.615  0.00  0.00    +0.000 A 
ATOM     11  C   UNL     1       5.846   3.310  12.339  0.00  0.00    +0.000 A 
ATOM     12  C   UNL     1       7.001   3.853  11.772  0.00  0.00    +0.000 A 
ATOM     13  C   UNL     1       7.750   4.796  12.483  0.00  0.00    +0.000 A 
ATOM     14  C   UNL     1       7.343   5.191  13.764  0.00  0.00    +0.000 A 
ENDBRANCH   1   9
BRANCH   1  15
ATOM     15  O   UNL     1       4.811   6.139  15.714  0.00  0.00    +0.000 OA
ATOM     16  H   UNL     1       3.962   5.815  15.325  0.00  0.00    +0.000 HD
ENDBRANCH   1  15
BRANCH   1  17
ATOM     17  C   UNL     1       5.114   3.890  16.567  0.00  0.00    +0.000 C 
BRANCH  17  18
ATOM     18  C   UNL     1       3.571   3.891  16.708  0.00  0.00    +0.000 C 
BRANCH  18  19
ATOM     19  N   UNL     1       3.134   3.751  18.123  0.00  0.00    +0.000 NA
ATOM     20  C   UNL     1       2.357   4.932  18.584  0.00  0.00    +0.000 C 
ATOM     21  C   UNL     1       1.954   4.780  20.052  0.00  0.00    +0.000 C 
ATOM     22  C   UNL     1       1.106   3.526  20.228  0.00  0.00    +0.000 C 
ATOM     23  C   UNL     1       1.890   2.313  19.725  0.00  0.00    +0.000 C 
ATOM     24  C   UNL     1       2.305   2.527  18.262  0.00  0.00    +0.000 C 
ENDBRANCH  18  19
ENDBRANCH  17  18
ENDBRANCH   1  17
TORSDOF 6
ENDMDL
MODEL 5
REMARK VINA RESULT:      -7.9      2.820      5.254
REMARK  Name = 
REMARK  6 active torsions:
REMARK  status: ('A' for Active; 'I' for Inactive)
REMARK    1  A    between atoms: O_1  and  C_2
REMARK    2  A    between atoms: C_2  and  C_3
REMARK    3  A    between atoms: C_2  and  C_11
REMARK    4  A    between atoms: C_2  and  C_17
REMARK    5  A    between atoms: C_3  and  C_4
REMARK    6  A    between atoms: C_4  and  N_5
REMARK                            x       y       z     vdW  Elec       q    Type
REMARK                         _______ _______ _______ _____ _____    ______ ____
ROOT
ATOM      1  C   UNL     1       5.761   5.085  15.769  0.00  0.00    +0.000 C 
ENDROOT
BRANCH   1   2
ATOM      2  C   UNL     1       7.005   5.608  16.587  0.00  0.00    +0.000 C 
ATOM      3  C   UNL     1       7.650   4.558  17.544  0.00  0.00    +0.000 C 
ATOM      4  C   UNL     1       7.639   5.262  18.911  0.00  0.00    +0.000 C 
ATOM      5  C   UNL     1       6.217   5.454  19.352  0.00  0.00    +0.000 C 
ATOM      6  C   UNL     1       5.681   6.420  18.533  0.00  0.00    +0.000 C 
ATOM      7  C   UNL     1       6.759   6.798  17.564  0.00  0.00    +0.000 C 
ATOM      8  C   UNL     1       7.973   6.689  18.496  0.00  0.00    +0.000 C 
ENDBRANCH   1   2
BRANCH   1   9
ATOM      9  C   UNL     1       6.203   4.650  14.356  0.00  0.00    +0.000 A 
ATOM     10  C   UNL     1       7.360   5.186  13.744  0.00  0.00    +0.000 A 
ATOM     11  C   UNL     1       7.741   4.791  12.459  0.00  0.00    +0.000 A 
ATOM     12  C   UNL     1       6.985   3.850  11.757  0.00  0.00    +0.000 A 
ATOM     13  C   UNL     1       5.841   3.298  12.344  0.00  0.00    +0.000 A 
ATOM     14  C   UNL     1       5.454   3.693  13.631  0.00  0.00    +0.000 A 
ENDBRANCH   1   9
BRANCH   1  15
ATOM     15  O   UNL     1       4.828   6.144  15.701  0.00  0.00    +0.000 OA
ATOM     16  H   UNL     1       5.297   7.012  15.757  0.00  0.00    +0.000 HD
ENDBRANCH   1  15
BRANCH   1  17
ATOM     17  C   UNL     1       5.120   3.894  16.556  0.00  0.00    +0.000 C 
BRANCH  17  18
ATOM     18  C   UNL     1       3.577   3.907  16.700  0.00  0.00    +0.000 C 
BRANCH  18  19
ATOM     19  N   UNL     1       3.141   3.765  18.115  0.00  0.00    +0.000 NA
ATOM     20  C   UNL     1       2.371   4.948  18.580  0.00  0.00    +0.000 C 
ATOM     21  C   UNL     1       1.970   4.795  20.048  0.00  0.00    +0.000 C 
ATOM     22  C   UNL     1       1.116   3.544  20.222  0.00  0.00    +0.000 C 
ATOM     23  C   UNL     1       1.893   2.329  19.714  0.00  0.00    +0.000 C 
ATOM     24  C   UNL     1       2.306   2.545  18.252  0.00  0.00    +0.000 C 
ENDBRANCH  18  19
ENDBRANCH  17  18
ENDBRANCH   1  17
TORSDOF 6
ENDMDL
MODEL 6
REMARK VINA RESULT:      -7.8      0.901      1.480
REMARK  Name = 
REMARK  6 active torsions:
REMARK  status: ('A' for Active; 'I' for Inactive)
REMARK    1  A    between atoms: O_1  and  C_2
REMARK    2  A    between atoms: C_2  and  C_3
REMARK    3  A    between atoms: C_2  and  C_11
REMARK    4  A    between atoms: C_2  and  C_17
REMARK    5  A    between atoms: C_3  and  C_4
REMARK    6  A    between atoms: C_4  and  N_5
REMARK                            x       y       z     vdW  Elec       q    Type
REMARK                         _______ _______ _______ _____ _____    ______ ____
ROOT
ATOM      1  C   UNL     1       3.175   5.460  18.782  0.00  0.00    +0.000 C 
ENDROOT
BRANCH   1   2
ATOM      2  C   UNL     1       2.209   4.214  18.746  0.00  0.00    +0.000 C 
ATOM      3  C   UNL     1       1.106   4.207  19.850  0.00  0.00    +0.000 C 
ATOM      4  C   UNL     1       1.305   2.851  20.548  0.00  0.00    +0.000 C 
ATOM      5  C   UNL     1       2.636   2.849  21.245  0.00  0.00    +0.000 C 
ATOM      6  C   UNL     1       3.593   2.801  20.259  0.00  0.00    +0.000 C 
ATOM      7  C   UNL     1       2.857   2.811  18.954  0.00  0.00    +0.000 C 
ATOM      8  C   UNL     1       1.641   1.966  19.355  0.00  0.00    +0.000 C 
ENDBRANCH   1   2
BRANCH   1   9
ATOM      9  C   UNL     1       4.514   5.111  18.099  0.00  0.00    +0.000 A 
ATOM     10  C   UNL     1       5.747   5.226  18.784  0.00  0.00    +0.000 A 
ATOM     11  C   UNL     1       6.953   4.917  18.150  0.00  0.00    +0.000 A 
ATOM     12  C   UNL     1       6.960   4.480  16.824  0.00  0.00    +0.000 A 
ATOM     13  C   UNL     1       5.754   4.349  16.126  0.00  0.00    +0.000 A 
ATOM     14  C   UNL     1       4.543   4.660  16.758  0.00  0.00    +0.000 A 
ENDBRANCH   1   9
BRANCH   1  15
ATOM     15  O   UNL     1       3.375   5.798  20.139  0.00  0.00    +0.000 OA
ATOM     16  H   UNL     1       3.424   6.780  20.239  0.00  0.00    +0.000 HD
ENDBRANCH   1  15
BRANCH   1  17
ATOM     17  C   UNL     1       2.466   6.655  18.062  0.00  0.00    +0.000 C 
BRANCH  17  18
ATOM     18  C   UNL     1       2.563   8.039  18.753  0.00  0.00    +0.000 C 
BRANCH  18  19
ATOM     19  N   UNL     1       1.291   8.425  19.421  0.00  0.00    +0.000 NA
ATOM     20  C   UNL     1       1.390   8.328  20.902  0.00  0.00    +0.000 C 
ATOM     21  C   UNL     1       0.059   8.691  21.561  0.00  0.00    +0.000 C 
ATOM     22  C   UNL     1      -0.335  10.114  21.181  0.00  0.00    +0.000 C 
ATOM     23  C   UNL     1      -0.405  10.227  19.658  0.00  0.00    +0.000 C 
ATOM     24  C   UNL     1       0.939   9.816  19.039  0.00  0.00    +0.000 C 
ENDBRANCH  18  19
ENDBRANCH  17  18
ENDBRANCH   1  17
TORSDOF 6
ENDMDL
MODEL 7
REMARK VINA RESULT:      -7.8      0.890      1.156
REMARK  Name = 
REMARK  6 active torsions:
REMARK  status: ('A' for Active; 'I' for Inactive)
REMARK    1  A    between atoms: O_1  and  C_2
REMARK    2  A    between atoms: C_2  and  C_3
REMARK    3  A    between atoms: C_2  and  C_11
REMARK    4  A    between atoms: C_2  and  C_17
REMARK    5  A    between atoms: C_3  and  C_4
REMARK    6  A    between atoms: C_4  and  N_5
REMARK                            x       y       z     vdW  Elec       q    Type
REMARK                         _______ _______ _______ _____ _____    ______ ____
ROOT
ATOM      1  C   UNL     1       3.202   5.434  18.762  0.00  0.00    +0.000 C 
ENDROOT
BRANCH   1   2
ATOM      2  C   UNL     1       2.248   4.178  18.716  0.00  0.00    +0.000 C 
ATOM      3  C   UNL     1       1.123   4.170  19.796  0.00  0.00    +0.000 C 
ATOM      4  C   UNL     1       1.319   2.822  20.510  0.00  0.00    +0.000 C 
ATOM      5  C   UNL     1       2.634   2.838  21.235  0.00  0.00    +0.000 C 
ATOM      6  C   UNL     1       3.613   2.792  20.270  0.00  0.00    +0.000 C 
ATOM      7  C   UNL     1       2.905   2.784  18.951  0.00  0.00    +0.000 C 
ATOM      8  C   UNL     1       1.689   1.930  19.332  0.00  0.00    +0.000 C 
ENDBRANCH   1   2
BRANCH   1   9
ATOM      9  C   UNL     1       4.545   5.103  18.078  0.00  0.00    +0.000 A 
ATOM     10  C   UNL     1       4.602   4.646  16.741  0.00  0.00    +0.000 A 
ATOM     11  C   UNL     1       5.825   4.339  16.138  0.00  0.00    +0.000 A 
ATOM     12  C   UNL     1       7.018   4.486  16.849  0.00  0.00    +0.000 A 
ATOM     13  C   UNL     1       6.989   4.945  18.170  0.00  0.00    +0.000 A 
ATOM     14  C   UNL     1       5.765   5.253  18.778  0.00  0.00    +0.000 A 
ENDBRANCH   1   9
BRANCH   1  15
ATOM     15  O   UNL     1       3.397   5.764  20.122  0.00  0.00    +0.000 OA
ATOM     16  H   UNL     1       2.628   6.288  20.457  0.00  0.00    +0.000 HD
ENDBRANCH   1  15
BRANCH   1  17
ATOM     17  C   UNL     1       2.481   6.627  18.050  0.00  0.00    +0.000 C 
BRANCH  17  18
ATOM     18  C   UNL     1       2.584   8.011  18.738  0.00  0.00    +0.000 C 
BRANCH  18  19
ATOM     19  N   UNL     1       1.313   8.406  19.403  0.00  0.00    +0.000 NA
ATOM     20  C   UNL     1       1.405   8.299  20.884  0.00  0.00    +0.000 C 
ATOM     21  C   UNL     1       0.074   8.671  21.540  0.00  0.00    +0.000 C 
ATOM     22  C   UNL     1      -0.304  10.100  21.167  0.00  0.00    +0.000 C 
ATOM     23  C   UNL     1      -0.367  10.223  19.644  0.00  0.00    +0.000 C 
ATOM     24  C   UNL     1       0.976   9.802  19.029  0.00  0.00    +0.000 C 
ENDBRANCH  18  19
ENDBRANCH  17  18
ENDBRANCH   1  17
TORSDOF 6
ENDMDL
MODEL 8
REMARK VINA RESULT:      -7.8      1.834      5.378
REMARK  Name = 
REMARK  6 active torsions:
REMARK  status: ('A' for Active; 'I' for Inactive)
REMARK    1  A    between atoms: O_1  and  C_2
REMARK    2  A    between atoms: C_2  and  C_3
REMARK    3  A    between atoms: C_2  and  C_11
REMARK    4  A    between atoms: C_2  and  C_17
REMARK    5  A    between atoms: C_3  and  C_4
REMARK    6  A    between atoms: C_4  and  N_5
REMARK                            x       y       z     vdW  Elec       q    Type
REMARK                         _______ _______ _______ _____ _____    ______ ____
ROOT
ATOM      1  C   UNL     1       2.374   5.731  19.032  0.00  0.00    +0.000 C 
ENDROOT
BRANCH   1   2
ATOM      2  C   UNL     1       1.683   4.905  20.184  0.00  0.00    +0.000 C 
ATOM      3  C   UNL     1       2.639   4.451  21.330  0.00  0.00    +0.000 C 
ATOM      4  C   UNL     1       2.431   2.928  21.391  0.00  0.00    +0.000 C 
ATOM      5  C   UNL     1       2.937   2.313  20.118  0.00  0.00    +0.000 C 
ATOM      6  C   UNL     1       2.053   2.679  19.129  0.00  0.00    +0.000 C 
ATOM      7  C   UNL     1       1.024   3.549  19.784  0.00  0.00    +0.000 C 
ATOM      8  C   UNL     1       0.932   2.839  21.140  0.00  0.00    +0.000 C 
ENDBRANCH   1   2
BRANCH   1   9
ATOM      9  C   UNL     1       1.974   7.218  19.135  0.00  0.00    +0.000 A 
ATOM     10  C   UNL     1       1.495   7.774  20.344  0.00  0.00    +0.000 A 
ATOM     11  C   UNL     1       1.124   9.120  20.419  0.00  0.00    +0.000 A 
ATOM     12  C   UNL     1       1.230   9.943  19.297  0.00  0.00    +0.000 A 
ATOM     13  C   UNL     1       1.709   9.420  18.091  0.00  0.00    +0.000 A 
ATOM     14  C   UNL     1       2.079   8.071  18.011  0.00  0.00    +0.000 A 
ENDBRANCH   1   9
BRANCH   1  15
ATOM     15  O   UNL     1       1.947   5.179  17.803  0.00  0.00    +0.000 OA
ATOM     16  H   UNL     1       1.724   4.223  17.922  0.00  0.00    +0.000 HD
ENDBRANCH   1  15
BRANCH   1  17
ATOM     17  C   UNL     1       3.923   5.550  19.157  0.00  0.00    +0.000 C 
BRANCH  17  18
ATOM     18  C   UNL     1       4.668   5.046  17.895  0.00  0.00    +0.000 C 
BRANCH  18  19
ATOM     19  N   UNL     1       6.061   5.562  17.819  0.00  0.00    +0.000 NA
ATOM     20  C   UNL     1       6.113   6.947  17.281  0.00  0.00    +0.000 C 
ATOM     21  C   UNL     1       7.558   7.437  17.175  0.00  0.00    +0.000 C 
ATOM     22  C   UNL     1       8.214   7.412  18.551  0.00  0.00    +0.000 C 
ATOM     23  C   UNL     1       8.134   5.995  19.121  0.00  0.00    +0.000 C 
ATOM     24  C   UNL     1       6.671   5.533  19.172  0.00  0.00    +0.000 C 
ENDBRANCH  18  19
ENDBRANCH  17  18
ENDBRANCH   1  17
TORSDOF 6
ENDMDL
MODEL 9
REMARK VINA RESULT:      -7.8      1.670      5.709
REMARK  Name = 
REMARK  6 active torsions:
REMARK  status: ('A' for Active; 'I' for Inactive)
REMARK    1  A    between atoms: O_1  and  C_2
REMARK    2  A    between atoms: C_2  and  C_3
REMARK    3  A    between atoms: C_2  and  C_11
REMARK    4  A    between atoms: C_2  and  C_17
REMARK    5  A    between atoms: C_3  and  C_4
REMARK    6  A    between atoms: C_4  and  N_5
REMARK                            x       y       z     vdW  Elec       q    Type
REMARK                         _______ _______ _______ _____ _____    ______ ____
ROOT
ATOM      1  C   UNL     1       4.090   5.994  18.232  0.00  0.00    +0.000 C 
ENDROOT
BRANCH   1   2
ATOM      2  C   UNL     1       5.208   6.601  17.298  0.00  0.00    +0.000 C 
ATOM      3  C   UNL     1       5.380   5.879  15.926  0.00  0.00    +0.000 C 
ATOM      4  C   UNL     1       6.873   5.512  15.897  0.00  0.00    +0.000 C 
ATOM      5  C   UNL     1       7.150   4.500  16.972  0.00  0.00    +0.000 C 
ATOM      6  C   UNL     1       7.046   5.166  18.171  0.00  0.00    +0.000 C 
ATOM      7  C   UNL     1       6.670   6.577  17.839  0.00  0.00    +0.000 C 
ATOM      8  C   UNL     1       7.480   6.747  16.547  0.00  0.00    +0.000 C 
ENDBRANCH   1   2
BRANCH   1   9
ATOM      9  C   UNL     1       3.058   7.082  18.596  0.00  0.00    +0.000 A 
ATOM     10  C   UNL     1       2.726   8.120  17.695  0.00  0.00    +0.000 A 
ATOM     11  C   UNL     1       1.798   9.105  18.043  0.00  0.00    +0.000 A 
ATOM     12  C   UNL     1       1.175   9.075  19.292  0.00  0.00    +0.000 A 
ATOM     13  C   UNL     1       1.478   8.055  20.199  0.00  0.00    +0.000 A 
ATOM     14  C   UNL     1       2.410   7.066  19.854  0.00  0.00    +0.000 A 
ENDBRANCH   1   9
BRANCH   1  15
ATOM     15  O   UNL     1       4.732   5.501  19.390  0.00  0.00    +0.000 OA
ATOM     16  H   UNL     1       5.668   5.821  19.420  0.00  0.00    +0.000 HD
ENDBRANCH   1  15
BRANCH   1  17
ATOM     17  C   UNL     1       3.416   4.800  17.480  0.00  0.00    +0.000 C 
BRANCH  17  18
ATOM     18  C   UNL     1       3.813   3.375  17.941  0.00  0.00    +0.000 C 
BRANCH  18  19
ATOM     19  N   UNL     1       2.907   2.850  18.998  0.00  0.00    +0.000 NA
ATOM     20  C   UNL     1       3.523   2.934  20.349  0.00  0.00    +0.000 C 
ATOM     21  C   UNL     1       2.588   2.352  21.410  0.00  0.00    +0.000 C 
ATOM     22  C   UNL     1       1.269   3.119  21.414  0.00  0.00    +0.000 C 
ATOM     23  C   UNL     1       0.650   3.062  20.017  0.00  0.00    +0.000 C 
ATOM     24  C   UNL     1       1.638   3.620  18.983  0.00  0.00    +0.000 C 
ENDBRANCH  18  19
ENDBRANCH  17  18
ENDBRANCH   1  17
TORSDOF 6
ENDMDL
