MODEL 1
REMARK VINA RESULT:      -7.5      0.000      0.000
REMARK  Name = 
REMARK  10 active torsions:
REMARK  status: ('A' for Active; 'I' for Inactive)
REMARK    1  A    between atoms: C_1  and  C_2
REMARK    2  A    between atoms: C_6  and  C_8
REMARK    3  A    between atoms: C_8  and  S_9
REMARK    4  A    between atoms: S_9  and  C_10
REMARK    5  A    between atoms: C_12  and  C_13
REMARK    6  A    between atoms: C_14  and  C_15
REMARK    7  A    between atoms: N_16  and  C_17
REMARK    8  A    between atoms: C_17  and  C_18
REMARK    9  A    between atoms: C_18  and  C_19
REMARK   10  A    between atoms: C_18  and  C_20
REMARK                            x       y       z     vdW  Elec       q    Type
REMARK                         _______ _______ _______ _____ _____    ______ ____
ROOT
ATOM      1  S   UNL     1       6.034   4.649  19.065  0.00  0.00    +0.000 S 
ENDROOT
BRANCH   1   2
ATOM      2  C   UNL     1       4.416   5.182  19.393  0.00  0.00    +0.000 A 
ATOM      3  N   UNL     1       4.000   6.431  19.363  0.00  0.00    +0.000 NA
ATOM      4  C   UNL     1       2.677   6.387  19.759  0.00  0.00    +0.000 A 
ATOM      5  C   UNL     1       1.864   7.615  19.920  0.00  0.00    +0.000 C 
ATOM      6  C   UNL     1       2.278   5.086  19.998  0.00  0.00    +0.000 A 
ATOM      7  C   UNL     1       0.958   4.549  20.419  0.00  0.00    +0.000 C 
ATOM      8  N   UNL     1       3.419   4.325  19.814  0.00  0.00    +0.000 N 
BRANCH   8   9
ATOM      9  C   UNL     1       3.513   2.895  20.082  0.00  0.00    +0.000 C 
BRANCH   9  10
ATOM     10  C   UNL     1       3.087   1.981  18.917  0.00  0.00    +0.000 C 
ATOM     11  C   UNL     1       1.579   1.721  18.893  0.00  0.00    +0.000 C 
ATOM     12  C   UNL     1       3.543   2.566  17.579  0.00  0.00    +0.000 C 
ENDBRANCH   9  10
ENDBRANCH   8   9
ENDBRANCH   1   2
BRANCH   1  13
ATOM     13  C   UNL     1       6.963   6.095  18.516  0.00  0.00    +0.000 C 
BRANCH  13  19
ATOM     14  C   UNL     1       6.123   2.952  11.912  0.00  0.00    +0.000 C 
ATOM     15  C   UNL     1       6.395   3.806  13.079  0.00  0.00    +0.000 A 
ATOM     16  C   UNL     1       5.944   3.826  14.370  0.00  0.00    +0.000 A 
ATOM     17  C   UNL     1       6.649   4.881  14.990  0.00  0.00    +0.000 A 
ATOM     18  N   UNL     1       6.510   5.184  16.329  0.00  0.00    +0.000 N 
ATOM     19  C   UNL     1       7.162   6.186  17.006  0.00  0.00    +0.000 C 
ATOM     20  O   UNL     1       7.899   7.043  16.524  0.00  0.00    +0.000 OA
ATOM     21  N   UNL     1       7.461   5.478  14.111  0.00  0.00    +0.000 NA
ATOM     22  O   UNL     1       7.293   4.805  12.917  0.00  0.00    +0.000 OA
ATOM     23  H   UNL     1       5.838   4.619  16.849  0.00  0.00    +0.000 HD
ENDBRANCH  13  19
ENDBRANCH   1  13
TORSDOF 5
ENDMDL
MODEL 2
REMARK VINA RESULT:      -7.5      2.494      4.219
REMARK  Name = 
REMARK  10 active torsions:
REMARK  status: ('A' for Active; 'I' for Inactive)
REMARK    1  A    between atoms: C_1  and  C_2
REMARK    2  A    between atoms: C_6  and  C_8
REMARK    3  A    between atoms: C_8  and  S_9
REMARK    4  A    between atoms: S_9  and  C_10
REMARK    5  A    between atoms: C_12  and  C_13
REMARK    6  A    between atoms: C_14  and  C_15
REMARK    7  A    between atoms: N_16  and  C_17
REMARK    8  A    between atoms: C_17  and  C_18
REMARK    9  A    between atoms: C_18  and  C_19
REMARK   10  A    between atoms: C_18  and  C_20
REMARK                            x       y       z     vdW  Elec       q    Type
REMARK                         _______ _______ _______ _____ _____    ______ ____
ROOT
ATOM      1  S   UNL     1       4.619   3.691  17.315  0.00  0.00    +0.000 S 
ENDROOT
BRANCH   1   2
ATOM      2  C   UNL     1       3.716   5.050  17.905  0.00  0.00    +0.000 A 
ATOM      3  N   UNL     1       3.630   6.225  17.319  0.00  0.00    +0.000 NA
ATOM      4  C   UNL     1       2.879   7.008  18.174  0.00  0.00    +0.000 A 
ATOM      5  C   UNL     1       2.612   8.440  17.899  0.00  0.00    +0.000 C 
ATOM      6  C   UNL     1       2.475   6.283  19.279  0.00  0.00    +0.000 A 
ATOM      7  C   UNL     1       1.645   6.688  20.442  0.00  0.00    +0.000 C 
ATOM      8  N   UNL     1       3.065   5.042  19.123  0.00  0.00    +0.000 N 
BRANCH   8   9
ATOM      9  C   UNL     1       3.025   3.975  20.116  0.00  0.00    +0.000 C 
BRANCH   9  10
ATOM     10  C   UNL     1       1.645   3.318  20.315  0.00  0.00    +0.000 C 
ATOM     11  C   UNL     1       1.182   2.537  19.083  0.00  0.00    +0.000 C 
ATOM     12  C   UNL     1       1.654   2.408  21.544  0.00  0.00    +0.000 C 
ENDBRANCH   9  10
ENDBRANCH   8   9
ENDBRANCH   1   2
BRANCH   1  13
ATOM     13  C   UNL     1       6.180   4.333  16.678  0.00  0.00    +0.000 C 
BRANCH  13  19
ATOM     14  C   UNL     1       8.911  10.993  18.223  0.00  0.00    +0.000 C 
ATOM     15  C   UNL     1       8.461   9.593  18.180  0.00  0.00    +0.000 A 
ATOM     16  C   UNL     1       7.536   8.912  17.438  0.00  0.00    +0.000 A 
ATOM     17  C   UNL     1       7.639   7.569  17.864  0.00  0.00    +0.000 A 
ATOM     18  N   UNL     1       6.898   6.550  17.301  0.00  0.00    +0.000 N 
ATOM     19  C   UNL     1       6.945   5.223  17.653  0.00  0.00    +0.000 C 
ATOM     20  O   UNL     1       7.573   4.730  18.587  0.00  0.00    +0.000 OA
ATOM     21  N   UNL     1       8.560   7.456  18.827  0.00  0.00    +0.000 NA
ATOM     22  O   UNL     1       9.066   8.724  19.024  0.00  0.00    +0.000 OA
ATOM     23  H   UNL     1       6.238   6.826  16.573  0.00  0.00    +0.000 HD
ENDBRANCH  13  19
ENDBRANCH   1  13
TORSDOF 5
ENDMDL
MODEL 3
REMARK VINA RESULT:      -7.4      1.267      2.930
REMARK  Name = 
REMARK  10 active torsions:
REMARK  status: ('A' for Active; 'I' for Inactive)
REMARK    1  A    between atoms: C_1  and  C_2
REMARK    2  A    between atoms: C_6  and  C_8
REMARK    3  A    between atoms: C_8  and  S_9
REMARK    4  A    between atoms: S_9  and  C_10
REMARK    5  A    between atoms: C_12  and  C_13
REMARK    6  A    between atoms: C_14  and  C_15
REMARK    7  A    between atoms: N_16  and  C_17
REMARK    8  A    between atoms: C_17  and  C_18
REMARK    9  A    between atoms: C_18  and  C_19
REMARK   10  A    between atoms: C_18  and  C_20
REMARK                            x       y       z     vdW  Elec       q    Type
REMARK                         _______ _______ _______ _____ _____    ______ ____
ROOT
ATOM      1  S   UNL     1       6.195   5.673  19.572  0.00  0.00    +0.000 S 
ENDROOT
BRANCH   1   2
ATOM      2  C   UNL     1       4.914   4.558  19.217  0.00  0.00    +0.000 A 
ATOM      3  N   UNL     1       5.068   3.295  18.881  0.00  0.00    +0.000 NA
ATOM      4  C   UNL     1       3.796   2.825  18.621  0.00  0.00    +0.000 A 
ATOM      5  C   UNL     1       3.550   1.444  18.141  0.00  0.00    +0.000 C 
ATOM      6  C   UNL     1       2.853   3.811  18.840  0.00  0.00    +0.000 A 
ATOM      7  C   UNL     1       1.373   3.770  18.714  0.00  0.00    +0.000 C 
ATOM      8  N   UNL     1       3.587   4.937  19.168  0.00  0.00    +0.000 N 
BRANCH   8   9
ATOM      9  C   UNL     1       3.021   6.267  19.361  0.00  0.00    +0.000 C 
BRANCH   9  10
ATOM     10  C   UNL     1       2.682   7.029  18.065  0.00  0.00    +0.000 C 
ATOM     11  C   UNL     1       2.094   8.416  18.334  0.00  0.00    +0.000 C 
ATOM     12  C   UNL     1       3.916   7.143  17.169  0.00  0.00    +0.000 C 
ENDBRANCH   9  10
ENDBRANCH   8   9
ENDBRANCH   1   2
BRANCH   1  13
ATOM     13  C   UNL     1       7.586   5.230  18.512  0.00  0.00    +0.000 C 
BRANCH  13  19
ATOM     14  C   UNL     1       5.759   2.871  11.782  0.00  0.00    +0.000 C 
ATOM     15  C   UNL     1       6.142   3.604  12.998  0.00  0.00    +0.000 A 
ATOM     16  C   UNL     1       6.027   3.353  14.338  0.00  0.00    +0.000 A 
ATOM     17  C   UNL     1       6.651   4.448  14.974  0.00  0.00    +0.000 A 
ATOM     18  N   UNL     1       6.790   4.534  16.344  0.00  0.00    +0.000 N 
ATOM     19  C   UNL     1       7.388   5.559  17.036  0.00  0.00    +0.000 C 
ATOM     20  O   UNL     1       7.810   6.616  16.570  0.00  0.00    +0.000 OA
ATOM     21  N   UNL     1       7.096   5.322  14.064  0.00  0.00    +0.000 NA
ATOM     22  O   UNL     1       6.770   4.791  12.832  0.00  0.00    +0.000 OA
ATOM     23  H   UNL     1       6.384   3.770  16.884  0.00  0.00    +0.000 HD
ENDBRANCH  13  19
ENDBRANCH   1  13
TORSDOF 5
ENDMDL
MODEL 4
REMARK VINA RESULT:      -7.3      1.129      1.594
REMARK  Name = 
REMARK  10 active torsions:
REMARK  status: ('A' for Active; 'I' for Inactive)
REMARK    1  A    between atoms: C_1  and  C_2
REMARK    2  A    between atoms: C_6  and  C_8
REMARK    3  A    between atoms: C_8  and  S_9
REMARK    4  A    between atoms: S_9  and  C_10
REMARK    5  A    between atoms: C_12  and  C_13
REMARK    6  A    between atoms: C_14  and  C_15
REMARK    7  A    between atoms: N_16  and  C_17
REMARK    8  A    between atoms: C_17  and  C_18
REMARK    9  A    between atoms: C_18  and  C_19
REMARK   10  A    between atoms: C_18  and  C_20
REMARK                            x       y       z     vdW  Elec       q    Type
REMARK                         _______ _______ _______ _____ _____    ______ ____
ROOT
ATOM      1  S   UNL     1       5.192   4.340  19.131  0.00  0.00    +0.000 S 
ENDROOT
BRANCH   1   2
ATOM      2  C   UNL     1       3.880   5.475  19.201  0.00  0.00    +0.000 A 
ATOM      3  N   UNL     1       3.772   6.566  18.473  0.00  0.00    +0.000 NA
ATOM      4  C   UNL     1       2.622   7.190  18.915  0.00  0.00    +0.000 A 
ATOM      5  C   UNL     1       2.184   8.502  18.382  0.00  0.00    +0.000 C 
ATOM      6  C   UNL     1       2.006   6.445  19.903  0.00  0.00    +0.000 A 
ATOM      7  C   UNL     1       0.750   6.699  20.655  0.00  0.00    +0.000 C 
ATOM      8  N   UNL     1       2.853   5.373  20.118  0.00  0.00    +0.000 N 
BRANCH   8   9
ATOM      9  C   UNL     1       2.678   4.377  21.169  0.00  0.00    +0.000 C 
BRANCH   9  10
ATOM     10  C   UNL     1       1.585   3.325  20.898  0.00  0.00    +0.000 C 
ATOM     11  C   UNL     1       1.798   2.581  19.578  0.00  0.00    +0.000 C 
ATOM     12  C   UNL     1       1.496   2.330  22.056  0.00  0.00    +0.000 C 
ENDBRANCH   9  10
ENDBRANCH   8   9
ENDBRANCH   1   2
BRANCH   1  13
ATOM     13  C   UNL     1       6.707   5.300  18.931  0.00  0.00    +0.000 C 
BRANCH  13  19
ATOM     14  C   UNL     1       6.551   3.426  11.812  0.00  0.00    +0.000 C 
ATOM     15  C   UNL     1       6.692   4.052  13.136  0.00  0.00    +0.000 A 
ATOM     16  C   UNL     1       6.128   3.826  14.362  0.00  0.00    +0.000 A 
ATOM     17  C   UNL     1       6.743   4.757  15.228  0.00  0.00    +0.000 A 
ATOM     18  N   UNL     1       6.477   4.804  16.581  0.00  0.00    +0.000 N 
ATOM     19  C   UNL     1       7.035   5.671  17.488  0.00  0.00    +0.000 C 
ATOM     20  O   UNL     1       7.786   6.613  17.241  0.00  0.00    +0.000 OA
ATOM     21  N   UNL     1       7.611   5.517  14.552  0.00  0.00    +0.000 NA
ATOM     22  O   UNL     1       7.571   5.076  13.245  0.00  0.00    +0.000 OA
ATOM     23  H   UNL     1       5.779   4.143  16.923  0.00  0.00    +0.000 HD
ENDBRANCH  13  19
ENDBRANCH   1  13
TORSDOF 5
ENDMDL
MODEL 5
REMARK VINA RESULT:      -7.3      3.573      5.835
REMARK  Name = 
REMARK  10 active torsions:
REMARK  status: ('A' for Active; 'I' for Inactive)
REMARK    1  A    between atoms: C_1  and  C_2
REMARK    2  A    between atoms: C_6  and  C_8
REMARK    3  A    between atoms: C_8  and  S_9
REMARK    4  A    between atoms: S_9  and  C_10
REMARK    5  A    between atoms: C_12  and  C_13
REMARK    6  A    between atoms: C_14  and  C_15
REMARK    7  A    between atoms: N_16  and  C_17
REMARK    8  A    between atoms: C_17  and  C_18
REMARK    9  A    between atoms: C_18  and  C_19
REMARK   10  A    between atoms: C_18  and  C_20
REMARK                            x       y       z     vdW  Elec       q    Type
REMARK                         _______ _______ _______ _____ _____    ______ ____
ROOT
ATOM      1  S   UNL     1       7.481   4.999  17.993  0.00  0.00    +0.000 S 
ENDROOT
BRANCH   1   2
ATOM      2  C   UNL     1       5.777   4.840  18.278  0.00  0.00    +0.000 A 
ATOM      3  N   UNL     1       5.151   5.172  19.388  0.00  0.00    +0.000 NA
ATOM      4  C   UNL     1       3.834   4.804  19.192  0.00  0.00    +0.000 A 
ATOM      5  C   UNL     1       2.810   4.954  20.253  0.00  0.00    +0.000 C 
ATOM      6  C   UNL     1       3.654   4.273  17.929  0.00  0.00    +0.000 A 
ATOM      7  C   UNL     1       2.425   3.765  17.268  0.00  0.00    +0.000 C 
ATOM      8  N   UNL     1       4.920   4.249  17.371  0.00  0.00    +0.000 N 
BRANCH   8   9
ATOM      9  C   UNL     1       5.245   3.649  16.083  0.00  0.00    +0.000 C 
BRANCH   9  10
ATOM     10  C   UNL     1       5.364   4.641  14.909  0.00  0.00    +0.000 C 
ATOM     11  C   UNL     1       5.196   6.097  15.350  0.00  0.00    +0.000 C 
ATOM     12  C   UNL     1       6.697   4.460  14.184  0.00  0.00    +0.000 C 
ENDBRANCH   9  10
ENDBRANCH   8   9
ENDBRANCH   1   2
BRANCH   1  13
ATOM     13  C   UNL     1       8.062   6.358  19.028  0.00  0.00    +0.000 C 
BRANCH  13  19
ATOM     14  C   UNL     1       9.944  13.469  19.344  0.00  0.00    +0.000 C 
ATOM     15  C   UNL     1       9.516  12.104  18.999  0.00  0.00    +0.000 A 
ATOM     16  C   UNL     1       9.699  10.875  19.572  0.00  0.00    +0.000 A 
ATOM     17  C   UNL     1       8.975   9.977  18.757  0.00  0.00    +0.000 A 
ATOM     18  N   UNL     1       8.867   8.632  19.044  0.00  0.00    +0.000 N 
ATOM     19  C   UNL     1       8.179   7.698  18.308  0.00  0.00    +0.000 C 
ATOM     20  O   UNL     1       7.628   7.874  17.224  0.00  0.00    +0.000 OA
ATOM     21  N   UNL     1       8.409  10.630  17.736  0.00  0.00    +0.000 NA
ATOM     22  O   UNL     1       8.755  11.957  17.890  0.00  0.00    +0.000 OA
ATOM     23  H   UNL     1       9.372   8.308  19.869  0.00  0.00    +0.000 HD
ENDBRANCH  13  19
ENDBRANCH   1  13
TORSDOF 5
ENDMDL
MODEL 6
REMARK VINA RESULT:      -7.2      3.275      5.677
REMARK  Name = 
REMARK  10 active torsions:
REMARK  status: ('A' for Active; 'I' for Inactive)
REMARK    1  A    between atoms: C_1  and  C_2
REMARK    2  A    between atoms: C_6  and  C_8
REMARK    3  A    between atoms: C_8  and  S_9
REMARK    4  A    between atoms: S_9  and  C_10
REMARK    5  A    between atoms: C_12  and  C_13
REMARK    6  A    between atoms: C_14  and  C_15
REMARK    7  A    between atoms: N_16  and  C_17
REMARK    8  A    between atoms: C_17  and  C_18
REMARK    9  A    between atoms: C_18  and  C_19
REMARK   10  A    between atoms: C_18  and  C_20
REMARK                            x       y       z     vdW  Elec       q    Type
REMARK                         _______ _______ _______ _____ _____    ______ ____
ROOT
ATOM      1  S   UNL     1       5.154   6.450  16.856  0.00  0.00    +0.000 S 
ENDROOT
BRANCH   1   2
ATOM      2  C   UNL     1       4.469   5.339  18.000  0.00  0.00    +0.000 A 
ATOM      3  N   UNL     1       5.054   4.251  18.456  0.00  0.00    +0.000 NA
ATOM      4  C   UNL     1       4.120   3.646  19.274  0.00  0.00    +0.000 A 
ATOM      5  C   UNL     1       4.377   2.344  19.932  0.00  0.00    +0.000 C 
ATOM      6  C   UNL     1       2.964   4.400  19.341  0.00  0.00    +0.000 A 
ATOM      7  C   UNL     1       1.708   4.166  20.101  0.00  0.00    +0.000 C 
ATOM      8  N   UNL     1       3.178   5.457  18.475  0.00  0.00    +0.000 N 
BRANCH   8   9
ATOM      9  C   UNL     1       2.174   6.453  18.119  0.00  0.00    +0.000 C 
BRANCH   9  10
ATOM     10  C   UNL     1       2.373   7.840  18.760  0.00  0.00    +0.000 C 
ATOM     11  C   UNL     1       1.782   8.970  17.914  0.00  0.00    +0.000 C 
ATOM     12  C   UNL     1       1.780   7.871  20.169  0.00  0.00    +0.000 C 
ENDBRANCH   9  10
ENDBRANCH   8   9
ENDBRANCH   1   2
BRANCH   1  13
ATOM     13  C   UNL     1       6.943   6.231  16.917  0.00  0.00    +0.000 C 
BRANCH  13  19
ATOM     14  C   UNL     1       9.641  12.905  18.463  0.00  0.00    +0.000 C 
ATOM     15  C   UNL     1       9.182  11.507  18.427  0.00  0.00    +0.000 A 
ATOM     16  C   UNL     1       8.295  10.816  17.649  0.00  0.00    +0.000 A 
ATOM     17  C   UNL     1       8.362   9.482  18.110  0.00  0.00    +0.000 A 
ATOM     18  N   UNL     1       7.644   8.456  17.530  0.00  0.00    +0.000 N 
ATOM     19  C   UNL     1       7.659   7.137  17.913  0.00  0.00    +0.000 C 
ATOM     20  O   UNL     1       8.229   6.661  18.893  0.00  0.00    +0.000 OA
ATOM     21  N   UNL     1       9.225   9.385  19.127  0.00  0.00    +0.000 NA
ATOM     22  O   UNL     1       9.730  10.654  19.323  0.00  0.00    +0.000 OA
ATOM     23  H   UNL     1       7.029   8.720  16.759  0.00  0.00    +0.000 HD
ENDBRANCH  13  19
ENDBRANCH   1  13
TORSDOF 5
ENDMDL
MODEL 7
REMARK VINA RESULT:      -7.0      5.010      7.755
REMARK  Name = 
REMARK  10 active torsions:
REMARK  status: ('A' for Active; 'I' for Inactive)
REMARK    1  A    between atoms: C_1  and  C_2
REMARK    2  A    between atoms: C_6  and  C_8
REMARK    3  A    between atoms: C_8  and  S_9
REMARK    4  A    between atoms: S_9  and  C_10
REMARK    5  A    between atoms: C_12  and  C_13
REMARK    6  A    between atoms: C_14  and  C_15
REMARK    7  A    between atoms: N_16  and  C_17
REMARK    8  A    between atoms: C_17  and  C_18
REMARK    9  A    between atoms: C_18  and  C_19
REMARK   10  A    between atoms: C_18  and  C_20
REMARK                            x       y       z     vdW  Elec       q    Type
REMARK                         _______ _______ _______ _____ _____    ______ ____
ROOT
ATOM      1  S   UNL     1       2.309   7.614  18.941  0.00  0.00    +0.000 S 
ENDROOT
BRANCH   1   2
ATOM      2  C   UNL     1       3.421   6.580  18.102  0.00  0.00    +0.000 A 
ATOM      3  N   UNL     1       4.598   6.939  17.635  0.00  0.00    +0.000 NA
ATOM      4  C   UNL     1       5.092   5.825  16.985  0.00  0.00    +0.000 A 
ATOM      5  C   UNL     1       6.383   5.846  16.259  0.00  0.00    +0.000 C 
ATOM      6  C   UNL     1       4.214   4.763  17.092  0.00  0.00    +0.000 A 
ATOM      7  C   UNL     1       4.321   3.373  16.579  0.00  0.00    +0.000 C 
ATOM      8  N   UNL     1       3.119   5.276  17.764  0.00  0.00    +0.000 N 
BRANCH   8   9
ATOM      9  C   UNL     1       1.876   4.549  17.997  0.00  0.00    +0.000 C 
BRANCH   9  10
ATOM     10  C   UNL     1       1.873   3.639  19.241  0.00  0.00    +0.000 C 
ATOM     11  C   UNL     1       1.069   4.229  20.401  0.00  0.00    +0.000 C 
ATOM     12  C   UNL     1       1.347   2.247  18.888  0.00  0.00    +0.000 C 
ENDBRANCH   9  10
ENDBRANCH   8   9
ENDBRANCH   1   2
BRANCH   1  13
ATOM     13  C   UNL     1       1.965   9.010  17.851  0.00  0.00    +0.000 C 
BRANCH  13  19
ATOM     14  C   UNL     1      -4.893  11.519  16.912  0.00  0.00    +0.000 C 
ATOM     15  C   UNL     1      -3.525  11.185  17.338  0.00  0.00    +0.000 A 
ATOM     16  C   UNL     1      -2.667  10.155  17.066  0.00  0.00    +0.000 A 
ATOM     17  C   UNL     1      -1.480  10.469  17.764  0.00  0.00    +0.000 A 
ATOM     18  N   UNL     1      -0.345   9.690  17.692  0.00  0.00    +0.000 N 
ATOM     19  C   UNL     1       0.847   9.929  18.333  0.00  0.00    +0.000 C 
ATOM     20  O   UNL     1       1.076  10.815  19.154  0.00  0.00    +0.000 OA
ATOM     21  N   UNL     1      -1.628  11.614  18.440  0.00  0.00    +0.000 NA
ATOM     22  O   UNL     1      -2.909  12.053  18.174  0.00  0.00    +0.000 OA
ATOM     23  H   UNL     1      -0.417   8.844  17.125  0.00  0.00    +0.000 HD
ENDBRANCH  13  19
ENDBRANCH   1  13
TORSDOF 5
ENDMDL
MODEL 8
REMARK VINA RESULT:      -7.0      0.941      2.890
REMARK  Name = 
REMARK  10 active torsions:
REMARK  status: ('A' for Active; 'I' for Inactive)
REMARK    1  A    between atoms: C_1  and  C_2
REMARK    2  A    between atoms: C_6  and  C_8
REMARK    3  A    between atoms: C_8  and  S_9
REMARK    4  A    between atoms: S_9  and  C_10
REMARK    5  A    between atoms: C_12  and  C_13
REMARK    6  A    between atoms: C_14  and  C_15
REMARK    7  A    between atoms: N_16  and  C_17
REMARK    8  A    between atoms: C_17  and  C_18
REMARK    9  A    between atoms: C_18  and  C_19
REMARK   10  A    between atoms: C_18  and  C_20
REMARK                            x       y       z     vdW  Elec       q    Type
REMARK                         _______ _______ _______ _____ _____    ______ ____
ROOT
ATOM      1  S   UNL     1       5.670   5.880  19.339  0.00  0.00    +0.000 S 
ENDROOT
BRANCH   1   2
ATOM      2  C   UNL     1       4.562   4.549  19.223  0.00  0.00    +0.000 A 
ATOM      3  N   UNL     1       4.795   3.410  18.607  0.00  0.00    +0.000 NA
ATOM      4  C   UNL     1       3.619   2.691  18.706  0.00  0.00    +0.000 A 
ATOM      5  C   UNL     1       3.454   1.363  18.070  0.00  0.00    +0.000 C 
ATOM      6  C   UNL     1       2.672   3.395  19.425  0.00  0.00    +0.000 A 
ATOM      7  C   UNL     1       1.284   3.023  19.803  0.00  0.00    +0.000 C 
ATOM      8  N   UNL     1       3.269   4.610  19.705  0.00  0.00    +0.000 N 
BRANCH   8   9
ATOM      9  C   UNL     1       2.597   5.736  20.342  0.00  0.00    +0.000 C 
BRANCH   9  10
ATOM     10  C   UNL     1       2.543   7.027  19.503  0.00  0.00    +0.000 C 
ATOM     11  C   UNL     1       2.101   6.773  18.060  0.00  0.00    +0.000 C 
ATOM     12  C   UNL     1       1.628   8.060  20.161  0.00  0.00    +0.000 C 
ENDBRANCH   9  10
ENDBRANCH   8   9
ENDBRANCH   1   2
BRANCH   1  13
ATOM     13  C   UNL     1       7.191   5.371  18.513  0.00  0.00    +0.000 C 
BRANCH  13  19
ATOM     14  C   UNL     1       5.873   2.849  11.723  0.00  0.00    +0.000 C 
ATOM     15  C   UNL     1       6.204   3.601  12.943  0.00  0.00    +0.000 A 
ATOM     16  C   UNL     1       5.899   3.450  14.268  0.00  0.00    +0.000 A 
ATOM     17  C   UNL     1       6.584   4.496  14.925  0.00  0.00    +0.000 A 
ATOM     18  N   UNL     1       6.571   4.648  16.296  0.00  0.00    +0.000 N 
ATOM     19  C   UNL     1       7.213   5.631  17.010  0.00  0.00    +0.000 C 
ATOM     20  O   UNL     1       7.822   6.595  16.552  0.00  0.00    +0.000 OA
ATOM     21  N   UNL     1       7.243   5.249  14.039  0.00  0.00    +0.000 NA
ATOM     22  O   UNL     1       6.998   4.688  12.802  0.00  0.00    +0.000 OA
ATOM     23  H   UNL     1       6.007   3.975  16.817  0.00  0.00    +0.000 HD
ENDBRANCH  13  19
ENDBRANCH   1  13
TORSDOF 5
ENDMDL
MODEL 9
REMARK VINA RESULT:      -6.9      3.520      5.343
REMARK  Name = 
REMARK  10 active torsions:
REMARK  status: ('A' for Active; 'I' for Inactive)
REMARK    1  A    between atoms: C_1  and  C_2
REMARK    2  A    between atoms: C_6  and  C_8
REMARK    3  A    between atoms: C_8  and  S_9
REMARK    4  A    between atoms: S_9  and  C_10
REMARK    5  A    between atoms: C_12  and  C_13
REMARK    6  A    between atoms: C_14  and  C_15
REMARK    7  A    between atoms: N_16  and  C_17
REMARK    8  A    between atoms: C_17  and  C_18
REMARK    9  A    between atoms: C_18  and  C_19
REMARK   10  A    between atoms: C_18  and  C_20
REMARK                            x       y       z     vdW  Elec       q    Type
REMARK                         _______ _______ _______ _____ _____    ______ ____
ROOT
ATOM      1  S   UNL     1       6.633   5.392  17.532  0.00  0.00    +0.000 S 
ENDROOT
BRANCH   1   2
ATOM      2  C   UNL     1       5.027   5.933  17.904  0.00  0.00    +0.000 A 
ATOM      3  N   UNL     1       4.469   7.039  17.462  0.00  0.00    +0.000 NA
ATOM      4  C   UNL     1       3.230   7.096  18.070  0.00  0.00    +0.000 A 
ATOM      5  C   UNL     1       2.311   8.242  17.877  0.00  0.00    +0.000 C 
ATOM      6  C   UNL     1       3.022   5.985  18.866  0.00  0.00    +0.000 A 
ATOM      7  C   UNL     1       1.846   5.601  19.689  0.00  0.00    +0.000 C 
ATOM      8  N   UNL     1       4.205   5.272  18.796  0.00  0.00    +0.000 N 
BRANCH   8   9
ATOM      9  C   UNL     1       4.502   4.081  19.583  0.00  0.00    +0.000 C 
BRANCH   9  10
ATOM     10  C   UNL     1       4.022   2.753  18.964  0.00  0.00    +0.000 C 
ATOM     11  C   UNL     1       2.796   2.180  19.678  0.00  0.00    +0.000 C 
ATOM     12  C   UNL     1       3.732   2.927  17.473  0.00  0.00    +0.000 C 
ENDBRANCH   9  10
ENDBRANCH   8   9
ENDBRANCH   1   2
BRANCH   1  13
ATOM     13  C   UNL     1       7.761   6.337  18.577  0.00  0.00    +0.000 C 
BRANCH  13  19
ATOM     14  C   UNL     1      10.176  13.130  20.068  0.00  0.00    +0.000 C 
ATOM     15  C   UNL     1       9.681  11.868  19.495  0.00  0.00    +0.000 A 
ATOM     16  C   UNL     1       9.690  10.565  19.910  0.00  0.00    +0.000 A 
ATOM     17  C   UNL     1       8.998   9.853  18.906  0.00  0.00    +0.000 A 
ATOM     18  N   UNL     1       8.745   8.500  18.992  0.00  0.00    +0.000 N 
ATOM     19  C   UNL     1       8.075   7.739  18.064  0.00  0.00    +0.000 C 
ATOM     20  O   UNL     1       7.677   8.104  16.961  0.00  0.00    +0.000 OA
ATOM     21  N   UNL     1       8.616  10.682  17.928  0.00  0.00    +0.000 NA
ATOM     22  O   UNL     1       9.051  11.938  18.300  0.00  0.00    +0.000 OA
ATOM     23  H   UNL     1       9.117   8.026  19.816  0.00  0.00    +0.000 HD
ENDBRANCH  13  19
ENDBRANCH   1  13
TORSDOF 5
ENDMDL
