MODEL 1
REMARK VINA RESULT:      -7.0      0.000      0.000
REMARK  Name = 
REMARK  5 active torsions:
REMARK  status: ('A' for Active; 'I' for Inactive)
REMARK    1  A    between atoms: C_1  and  O_2
REMARK    2  A    between atoms: O_2  and  C_3
REMARK    3  A    between atoms: C_10  and  C_11
REMARK    4  A    between atoms: N_12  and  N_13
REMARK    5  A    between atoms: C_14  and  C_16
REMARK                            x       y       z     vdW  Elec       q    Type
REMARK                         _______ _______ _______ _____ _____    ______ ____
ROOT
ATOM      1  C   UNL     1       7.615   6.253  18.206  0.00  0.00    +0.000 C 
ATOM      2  N   UNL     1       7.760   7.493  17.851  0.00  0.00    +0.000 NA
ENDROOT
BRANCH   1  10
ATOM      3  C   UNL     1       5.561   4.761  17.958  0.00  0.00    +0.000 A 
ATOM      4  C   UNL     1       4.732   4.016  17.090  0.00  0.00    +0.000 A 
ATOM      5 BR   UNL     1       3.011   3.314  17.520  0.00  0.00    +0.000 Br
ATOM      6  C   UNL     1       5.095   3.812  15.750  0.00  0.00    +0.000 A 
ATOM      7  C   UNL     1       6.254   4.381  15.242  0.00  0.00    +0.000 A 
ATOM      8 BR   UNL     1       6.714   4.123  13.429  0.00  0.00    +0.000 Br
ATOM      9  C   UNL     1       7.058   5.163  16.057  0.00  0.00    +0.000 A 
ATOM     10  C   UNL     1       6.716   5.363  17.408  0.00  0.00    +0.000 A 
BRANCH   3  12
ATOM     11  C   UNL     1       4.096   5.636  19.647  0.00  0.00    +0.000 C 
ATOM     12  O   UNL     1       5.334   5.029  19.284  0.00  0.00    +0.000 OA
ENDBRANCH   3  12
ENDBRANCH   1  10
BRANCH   2  13
ATOM     13  N   UNL     1       8.557   8.314  18.593  0.00  0.00    +0.000 N 
ATOM     14  C   UNL     1       8.560   9.670  18.267  0.00  0.00    +0.000 C 
ATOM     15  O   UNL     1       7.892  10.174  17.367  0.00  0.00    +0.000 OA
ATOM     16  H   UNL     1       9.023   7.949  19.413  0.00  0.00    +0.000 HD
BRANCH  14  17
ATOM     17  C   UNL     1       9.418  10.574  19.086  0.00  0.00    +0.000 A 
ATOM     18  C   UNL     1       9.185  10.823  20.437  0.00  0.00    +0.000 A 
ATOM     19  C   UNL     1      10.080  11.642  21.107  0.00  0.00    +0.000 A 
ATOM     20  N   UNL     1      11.160  12.212  20.531  0.00  0.00    +0.000 NA
ATOM     21  C   UNL     1      11.374  11.945  19.227  0.00  0.00    +0.000 A 
ATOM     22  C   UNL     1      10.542  11.139  18.472  0.00  0.00    +0.000 A 
ENDBRANCH  14  17
ENDBRANCH   2  13
TORSDOF 4
ENDMDL
MODEL 2
REMARK VINA RESULT:      -6.9      0.189      1.041
REMARK  Name = 
REMARK  5 active torsions:
REMARK  status: ('A' for Active; 'I' for Inactive)
REMARK    1  A    between atoms: C_1  and  O_2
REMARK    2  A    between atoms: O_2  and  C_3
REMARK    3  A    between atoms: C_10  and  C_11
REMARK    4  A    between atoms: N_12  and  N_13
REMARK    5  A    between atoms: C_14  and  C_16
REMARK                            x       y       z     vdW  Elec       q    Type
REMARK                         _______ _______ _______ _____ _____    ______ ____
ROOT
ATOM      1  C   UNL     1       7.581   6.211  18.289  0.00  0.00    +0.000 C 
ATOM      2  N   UNL     1       7.808   7.431  17.909  0.00  0.00    +0.000 NA
ENDROOT
BRANCH   1  10
ATOM      3  C   UNL     1       5.536   4.719  17.976  0.00  0.00    +0.000 A 
ATOM      4  C   UNL     1       4.721   3.992  17.079  0.00  0.00    +0.000 A 
ATOM      5 BR   UNL     1       2.997   3.275  17.467  0.00  0.00    +0.000 Br
ATOM      6  C   UNL     1       5.104   3.823  15.738  0.00  0.00    +0.000 A 
ATOM      7  C   UNL     1       6.267   4.408  15.262  0.00  0.00    +0.000 A 
ATOM      8 BR   UNL     1       6.753   4.197  13.448  0.00  0.00    +0.000 Br
ATOM      9  C   UNL     1       7.057   5.173  16.107  0.00  0.00    +0.000 A 
ATOM     10  C   UNL     1       6.696   5.338  17.457  0.00  0.00    +0.000 A 
BRANCH   3  12
ATOM     11  C   UNL     1       4.105   5.665  19.656  0.00  0.00    +0.000 C 
ATOM     12  O   UNL     1       5.290   4.953  19.305  0.00  0.00    +0.000 OA
ENDBRANCH   3  12
ENDBRANCH   1  10
BRANCH   2  13
ATOM     13  N   UNL     1       8.592   8.238  18.680  0.00  0.00    +0.000 N 
ATOM     14  C   UNL     1       8.620   9.596  18.364  0.00  0.00    +0.000 C 
ATOM     15  O   UNL     1       7.984  10.113  17.448  0.00  0.00    +0.000 OA
ATOM     16  H   UNL     1       9.029   7.862  19.511  0.00  0.00    +0.000 HD
BRANCH  14  17
ATOM     17  C   UNL     1       9.462  10.485  19.214  0.00  0.00    +0.000 A 
ATOM     18  C   UNL     1      10.629  11.092  18.754  0.00  0.00    +0.000 A 
ATOM     19  C   UNL     1      11.302  11.939  19.620  0.00  0.00    +0.000 A 
ATOM     20  N   UNL     1      10.898  12.208  20.880  0.00  0.00    +0.000 NA
ATOM     21  C   UNL     1       9.758  11.622  21.299  0.00  0.00    +0.000 A 
ATOM     22  C   UNL     1       9.013  10.764  20.511  0.00  0.00    +0.000 A 
ENDBRANCH  14  17
ENDBRANCH   2  13
TORSDOF 4
ENDMDL
MODEL 3
REMARK VINA RESULT:      -6.8      1.336      1.355
REMARK  Name = 
REMARK  5 active torsions:
REMARK  status: ('A' for Active; 'I' for Inactive)
REMARK    1  A    between atoms: C_1  and  O_2
REMARK    2  A    between atoms: O_2  and  C_3
REMARK    3  A    between atoms: C_10  and  C_11
REMARK    4  A    between atoms: N_12  and  N_13
REMARK    5  A    between atoms: C_14  and  C_16
REMARK                            x       y       z     vdW  Elec       q    Type
REMARK                         _______ _______ _______ _____ _____    ______ ____
ROOT
ATOM      1  C   UNL     1       6.055   7.319  17.239  0.00  0.00    +0.000 C 
ATOM      2  N   UNL     1       7.268   7.680  16.952  0.00  0.00    +0.000 NA
ENDROOT
BRANCH   1  10
ATOM      3  C   UNL     1       4.697   5.186  17.573  0.00  0.00    +0.000 A 
ATOM      4  C   UNL     1       4.219   3.981  17.011  0.00  0.00    +0.000 A 
ATOM      5 BR   UNL     1       2.864   2.862  17.753  0.00  0.00    +0.000 Br
ATOM      6  C   UNL     1       4.665   3.551  15.751  0.00  0.00    +0.000 A 
ATOM      7  C   UNL     1       5.547   4.329  15.016  0.00  0.00    +0.000 A 
ATOM      8 BR   UNL     1       6.114   3.752  13.309  0.00  0.00    +0.000 Br
ATOM      9  C   UNL     1       5.988   5.543  15.520  0.00  0.00    +0.000 A 
ATOM     10  C   UNL     1       5.564   5.980  16.788  0.00  0.00    +0.000 A 
BRANCH   3  12
ATOM     11  C   UNL     1       3.052   6.279  18.940  0.00  0.00    +0.000 C 
ATOM     12  O   UNL     1       4.355   5.718  18.791  0.00  0.00    +0.000 OA
ENDBRANCH   3  12
ENDBRANCH   1  10
BRANCH   2  13
ATOM     13  N   UNL     1       7.710   8.912  17.338  0.00  0.00    +0.000 N 
ATOM     14  C   UNL     1       8.527   8.975  18.466  0.00  0.00    +0.000 C 
ATOM     15  O   UNL     1       8.879   8.002  19.129  0.00  0.00    +0.000 OA
ATOM     16  H   UNL     1       7.537   9.712  16.744  0.00  0.00    +0.000 HD
BRANCH  14  17
ATOM     17  C   UNL     1       9.026  10.317  18.882  0.00  0.00    +0.000 A 
ATOM     18  C   UNL     1       9.489  10.590  20.168  0.00  0.00    +0.000 A 
ATOM     19  C   UNL     1       9.976  11.862  20.423  0.00  0.00    +0.000 A 
ATOM     20  N   UNL     1      10.027  12.850  19.504  0.00  0.00    +0.000 NA
ATOM     21  C   UNL     1       9.589  12.559  18.263  0.00  0.00    +0.000 A 
ATOM     22  C   UNL     1       9.088  11.320  17.907  0.00  0.00    +0.000 A 
ENDBRANCH  14  17
ENDBRANCH   2  13
TORSDOF 4
ENDMDL
MODEL 4
REMARK VINA RESULT:      -6.8      1.311      1.581
REMARK  Name = 
REMARK  5 active torsions:
REMARK  status: ('A' for Active; 'I' for Inactive)
REMARK    1  A    between atoms: C_1  and  O_2
REMARK    2  A    between atoms: O_2  and  C_3
REMARK    3  A    between atoms: C_10  and  C_11
REMARK    4  A    between atoms: N_12  and  N_13
REMARK    5  A    between atoms: C_14  and  C_16
REMARK                            x       y       z     vdW  Elec       q    Type
REMARK                         _______ _______ _______ _____ _____    ______ ____
ROOT
ATOM      1  C   UNL     1       6.120   7.255  17.195  0.00  0.00    +0.000 C 
ATOM      2  N   UNL     1       7.343   7.633  16.979  0.00  0.00    +0.000 NA
ENDROOT
BRANCH   1  10
ATOM      3  C   UNL     1       5.007   5.009  17.667  0.00  0.00    +0.000 A 
ATOM      4  C   UNL     1       4.572   3.767  17.152  0.00  0.00    +0.000 A 
ATOM      5 BR   UNL     1       3.423   2.531  18.041  0.00  0.00    +0.000 Br
ATOM      6  C   UNL     1       4.895   3.381  15.841  0.00  0.00    +0.000 A 
ATOM      7  C   UNL     1       5.608   4.235  15.014  0.00  0.00    +0.000 A 
ATOM      8 BR   UNL     1       6.009   3.714  13.243  0.00  0.00    +0.000 Br
ATOM      9  C   UNL     1       5.999   5.483  15.475  0.00  0.00    +0.000 A 
ATOM     10  C   UNL     1       5.698   5.878  16.791  0.00  0.00    +0.000 A 
BRANCH   3  12
ATOM     11  C   UNL     1       3.443   5.904  19.254  0.00  0.00    +0.000 C 
ATOM     12  O   UNL     1       4.773   5.506  18.923  0.00  0.00    +0.000 OA
ENDBRANCH   3  12
ENDBRANCH   1  10
BRANCH   2  13
ATOM     13  N   UNL     1       7.724   8.897  17.321  0.00  0.00    +0.000 N 
ATOM     14  C   UNL     1       8.538   9.040  18.445  0.00  0.00    +0.000 C 
ATOM     15  O   UNL     1       8.939   8.108  19.139  0.00  0.00    +0.000 OA
ATOM     16  H   UNL     1       7.511   9.667  16.701  0.00  0.00    +0.000 HD
BRANCH  14  17
ATOM     17  C   UNL     1       8.971  10.418  18.813  0.00  0.00    +0.000 A 
ATOM     18  C   UNL     1       8.897  11.497  17.934  0.00  0.00    +0.000 A 
ATOM     19  C   UNL     1       9.281  12.742  18.406  0.00  0.00    +0.000 A 
ATOM     20  N   UNL     1       9.723  12.972  19.661  0.00  0.00    +0.000 NA
ATOM     21  C   UNL     1       9.772  11.916  20.497  0.00  0.00    +0.000 A 
ATOM     22  C   UNL     1       9.408  10.635  20.125  0.00  0.00    +0.000 A 
ENDBRANCH  14  17
ENDBRANCH   2  13
TORSDOF 4
ENDMDL
MODEL 5
REMARK VINA RESULT:      -6.8      5.873      7.604
REMARK  Name = 
REMARK  5 active torsions:
REMARK  status: ('A' for Active; 'I' for Inactive)
REMARK    1  A    between atoms: C_1  and  O_2
REMARK    2  A    between atoms: O_2  and  C_3
REMARK    3  A    between atoms: C_10  and  C_11
REMARK    4  A    between atoms: N_12  and  N_13
REMARK    5  A    between atoms: C_14  and  C_16
REMARK                            x       y       z     vdW  Elec       q    Type
REMARK                         _______ _______ _______ _____ _____    ______ ____
ROOT
ATOM      1  C   UNL     1       1.813   6.458  20.248  0.00  0.00    +0.000 C 
ATOM      2  N   UNL     1       1.860   7.747  20.105  0.00  0.00    +0.000 NA
ENDROOT
BRANCH   1  10
ATOM      3  C   UNL     1       2.674   4.184  19.479  0.00  0.00    +0.000 A 
ATOM      4  C   UNL     1       3.455   3.461  18.549  0.00  0.00    +0.000 A 
ATOM      5 BR   UNL     1       3.439   1.568  18.309  0.00  0.00    +0.000 Br
ATOM      6  C   UNL     1       4.268   4.131  17.620  0.00  0.00    +0.000 A 
ATOM      7  C   UNL     1       4.281   5.517  17.571  0.00  0.00    +0.000 A 
ATOM      8 BR   UNL     1       5.357   6.404  16.297  0.00  0.00    +0.000 Br
ATOM      9  C   UNL     1       3.482   6.250  18.435  0.00  0.00    +0.000 A 
ATOM     10  C   UNL     1       2.675   5.594  19.382  0.00  0.00    +0.000 A 
BRANCH   3  12
ATOM     11  C   UNL     1       2.443   3.022  21.567  0.00  0.00    +0.000 C 
ATOM     12  O   UNL     1       1.847   3.661  20.440  0.00  0.00    +0.000 OA
ENDBRANCH   3  12
ENDBRANCH   1  10
BRANCH   2  13
ATOM     13  N   UNL     1       1.056   8.537  20.874  0.00  0.00    +0.000 N 
ATOM     14  C   UNL     1       0.487   9.656  20.268  0.00  0.00    +0.000 C 
ATOM     15  O   UNL     1       0.654   9.973  19.092  0.00  0.00    +0.000 OA
ATOM     16  H   UNL     1       0.805   8.234  21.806  0.00  0.00    +0.000 HD
BRANCH  14  17
ATOM     17  C   UNL     1      -0.406  10.512  21.100  0.00  0.00    +0.000 A 
ATOM     18  C   UNL     1      -0.500  10.389  22.485  0.00  0.00    +0.000 A 
ATOM     19  C   UNL     1      -1.326  11.276  23.157  0.00  0.00    +0.000 A 
ATOM     20  N   UNL     1      -2.044  12.247  22.553  0.00  0.00    +0.000 NA
ATOM     21  C   UNL     1      -1.925  12.356  21.215  0.00  0.00    +0.000 A 
ATOM     22  C   UNL     1      -1.126  11.524  20.453  0.00  0.00    +0.000 A 
ENDBRANCH  14  17
ENDBRANCH   2  13
TORSDOF 4
ENDMDL
MODEL 6
REMARK VINA RESULT:      -6.7      5.908      7.725
REMARK  Name = 
REMARK  5 active torsions:
REMARK  status: ('A' for Active; 'I' for Inactive)
REMARK    1  A    between atoms: C_1  and  O_2
REMARK    2  A    between atoms: O_2  and  C_3
REMARK    3  A    between atoms: C_10  and  C_11
REMARK    4  A    between atoms: N_12  and  N_13
REMARK    5  A    between atoms: C_14  and  C_16
REMARK                            x       y       z     vdW  Elec       q    Type
REMARK                         _______ _______ _______ _____ _____    ______ ____
ROOT
ATOM      1  C   UNL     1       1.834   6.755  20.266  0.00  0.00    +0.000 C 
ATOM      2  N   UNL     1       1.775   8.017  19.969  0.00  0.00    +0.000 NA
ENDROOT
BRANCH   1  10
ATOM      3  C   UNL     1       2.520   4.423  19.492  0.00  0.00    +0.000 A 
ATOM      4  C   UNL     1       3.223   3.644  18.546  0.00  0.00    +0.000 A 
ATOM      5 BR   UNL     1       3.075   1.755  18.324  0.00  0.00    +0.000 Br
ATOM      6  C   UNL     1       4.049   4.253  17.588  0.00  0.00    +0.000 A 
ATOM      7  C   UNL     1       4.152   5.634  17.526  0.00  0.00    +0.000 A 
ATOM      8 BR   UNL     1       5.245   6.439  16.212  0.00  0.00    +0.000 Br
ATOM      9  C   UNL     1       3.430   6.425  18.406  0.00  0.00    +0.000 A 
ATOM     10  C   UNL     1       2.610   5.830  19.383  0.00  0.00    +0.000 A 
BRANCH   3  12
ATOM     11  C   UNL     1       2.280   3.341  21.622  0.00  0.00    +0.000 C 
ATOM     12  O   UNL     1       1.690   3.963  20.482  0.00  0.00    +0.000 OA
ENDBRANCH   3  12
ENDBRANCH   1  10
BRANCH   2  13
ATOM     13  N   UNL     1       1.045   8.858  20.757  0.00  0.00    +0.000 N 
ATOM     14  C   UNL     1       0.270   9.825  20.117  0.00  0.00    +0.000 C 
ATOM     15  O   UNL     1       0.195   9.965  18.898  0.00  0.00    +0.000 OA
ATOM     16  H   UNL     1       0.994   8.688  21.753  0.00  0.00    +0.000 HD
BRANCH  14  17
ATOM     17  C   UNL     1      -0.541  10.736  20.974  0.00  0.00    +0.000 A 
ATOM     18  C   UNL     1      -1.300  11.786  20.459  0.00  0.00    +0.000 A 
ATOM     19  C   UNL     1      -2.054  12.534  21.349  0.00  0.00    +0.000 A 
ATOM     20  N   UNL     1      -2.097  12.309  22.680  0.00  0.00    +0.000 NA
ATOM     21  C   UNL     1      -1.368  11.279  23.153  0.00  0.00    +0.000 A 
ATOM     22  C   UNL     1      -0.585  10.471  22.348  0.00  0.00    +0.000 A 
ENDBRANCH  14  17
ENDBRANCH   2  13
TORSDOF 4
ENDMDL
MODEL 7
REMARK VINA RESULT:      -6.7      5.518      7.422
REMARK  Name = 
REMARK  5 active torsions:
REMARK  status: ('A' for Active; 'I' for Inactive)
REMARK    1  A    between atoms: C_1  and  O_2
REMARK    2  A    between atoms: O_2  and  C_3
REMARK    3  A    between atoms: C_10  and  C_11
REMARK    4  A    between atoms: N_12  and  N_13
REMARK    5  A    between atoms: C_14  and  C_16
REMARK                            x       y       z     vdW  Elec       q    Type
REMARK                         _______ _______ _______ _____ _____    ______ ____
ROOT
ATOM      1  C   UNL     1       2.195   7.297  18.390  0.00  0.00    +0.000 C 
ATOM      2  N   UNL     1       2.115   7.840  19.567  0.00  0.00    +0.000 NA
ENDROOT
BRANCH   1  10
ATOM      3  C   UNL     1       2.784   4.816  18.397  0.00  0.00    +0.000 A 
ATOM      4  C   UNL     1       3.729   3.818  18.066  0.00  0.00    +0.000 A 
ATOM      5 BR   UNL     1       3.406   1.938  18.047  0.00  0.00    +0.000 Br
ATOM      6  C   UNL     1       5.011   4.166  17.611  0.00  0.00    +0.000 A 
ATOM      7  C   UNL     1       5.355   5.498  17.434  0.00  0.00    +0.000 A 
ATOM      8 BR   UNL     1       7.073   5.949  16.792  0.00  0.00    +0.000 Br
ATOM      9  C   UNL     1       4.429   6.495  17.698  0.00  0.00    +0.000 A 
ATOM     10  C   UNL     1       3.146   6.164  18.170  0.00  0.00    +0.000 A 
BRANCH   3  12
ATOM     11  C   UNL     1       1.333   4.264  20.228  0.00  0.00    +0.000 C 
ATOM     12  O   UNL     1       1.508   4.619  18.858  0.00  0.00    +0.000 OA
ENDBRANCH   3  12
ENDBRANCH   1  10
BRANCH   2  13
ATOM     13  N   UNL     1       1.269   8.891  19.764  0.00  0.00    +0.000 N 
ATOM     14  C   UNL     1       0.827   9.123  21.066  0.00  0.00    +0.000 C 
ATOM     15  O   UNL     1       1.151   8.451  22.043  0.00  0.00    +0.000 OA
ATOM     16  H   UNL     1       1.083   9.531  19.003  0.00  0.00    +0.000 HD
BRANCH  14  17
ATOM     17  C   UNL     1      -0.085  10.281  21.289  0.00  0.00    +0.000 A 
ATOM     18  C   UNL     1      -0.606  11.049  20.249  0.00  0.00    +0.000 A 
ATOM     19  C   UNL     1      -1.484  12.069  20.576  0.00  0.00    +0.000 A 
ATOM     20  N   UNL     1      -1.863  12.365  21.838  0.00  0.00    +0.000 NA
ATOM     21  C   UNL     1      -1.359  11.599  22.827  0.00  0.00    +0.000 A 
ATOM     22  C   UNL     1      -0.479  10.556  22.605  0.00  0.00    +0.000 A 
ENDBRANCH  14  17
ENDBRANCH   2  13
TORSDOF 4
ENDMDL
MODEL 8
REMARK VINA RESULT:      -6.6      6.205      8.600
REMARK  Name = 
REMARK  5 active torsions:
REMARK  status: ('A' for Active; 'I' for Inactive)
REMARK    1  A    between atoms: C_1  and  O_2
REMARK    2  A    between atoms: O_2  and  C_3
REMARK    3  A    between atoms: C_10  and  C_11
REMARK    4  A    between atoms: N_12  and  N_13
REMARK    5  A    between atoms: C_14  and  C_16
REMARK                            x       y       z     vdW  Elec       q    Type
REMARK                         _______ _______ _______ _____ _____    ______ ____
ROOT
ATOM      1  C   UNL     1       1.275   9.517  18.801  0.00  0.00    +0.000 C 
ATOM      2  N   UNL     1       1.679   8.731  17.850  0.00  0.00    +0.000 NA
ENDROOT
BRANCH   1  10
ATOM      3  C   UNL     1      -0.589  11.005  19.705  0.00  0.00    +0.000 A 
ATOM      4  C   UNL     1      -1.832  11.632  19.462  0.00  0.00    +0.000 A 
ATOM      5 BR   UNL     1      -2.624  12.993  20.539  0.00  0.00    +0.000 Br
ATOM      6  C   UNL     1      -2.562  11.351  18.296  0.00  0.00    +0.000 A 
ATOM      7  C   UNL     1      -2.052  10.486  17.340  0.00  0.00    +0.000 A 
ATOM      8 BR   UNL     1      -3.032  10.142  15.763  0.00  0.00    +0.000 Br
ATOM      9  C   UNL     1      -0.809   9.900  17.527  0.00  0.00    +0.000 A 
ATOM     10  C   UNL     1      -0.072  10.158  18.697  0.00  0.00    +0.000 A 
BRANCH   3  12
ATOM     11  C   UNL     1      -0.163  10.562  22.026  0.00  0.00    +0.000 C 
ATOM     12  O   UNL     1       0.221  11.179  20.798  0.00  0.00    +0.000 OA
ENDBRANCH   3  12
ENDBRANCH   1  10
BRANCH   2  13
ATOM     13  N   UNL     1       2.918   8.166  17.928  0.00  0.00    +0.000 N 
ATOM     14  C   UNL     1       2.985   6.777  18.020  0.00  0.00    +0.000 C 
ATOM     15  O   UNL     1       2.009   6.030  18.029  0.00  0.00    +0.000 OA
ATOM     16  H   UNL     1       3.738   8.745  17.801  0.00  0.00    +0.000 HD
BRANCH  14  17
ATOM     17  C   UNL     1       4.338   6.154  18.089  0.00  0.00    +0.000 A 
ATOM     18  C   UNL     1       5.342   6.414  17.157  0.00  0.00    +0.000 A 
ATOM     19  C   UNL     1       6.577   5.816  17.354  0.00  0.00    +0.000 A 
ATOM     20  N   UNL     1       6.864   4.999  18.389  0.00  0.00    +0.000 NA
ATOM     21  C   UNL     1       5.884   4.775  19.286  0.00  0.00    +0.000 A 
ATOM     22  C   UNL     1       4.620   5.325  19.182  0.00  0.00    +0.000 A 
ENDBRANCH  14  17
ENDBRANCH   2  13
TORSDOF 4
ENDMDL
MODEL 9
REMARK VINA RESULT:      -6.6      5.557      7.343
REMARK  Name = 
REMARK  5 active torsions:
REMARK  status: ('A' for Active; 'I' for Inactive)
REMARK    1  A    between atoms: C_1  and  O_2
REMARK    2  A    between atoms: O_2  and  C_3
REMARK    3  A    between atoms: C_10  and  C_11
REMARK    4  A    between atoms: N_12  and  N_13
REMARK    5  A    between atoms: C_14  and  C_16
REMARK                            x       y       z     vdW  Elec       q    Type
REMARK                         _______ _______ _______ _____ _____    ______ ____
ROOT
ATOM      1  C   UNL     1       2.197   7.188  18.386  0.00  0.00    +0.000 C 
ATOM      2  N   UNL     1       2.197   7.807  19.527  0.00  0.00    +0.000 NA
ENDROOT
BRANCH   1  10
ATOM      3  C   UNL     1       2.779   4.705  18.461  0.00  0.00    +0.000 A 
ATOM      4  C   UNL     1       3.708   3.692  18.135  0.00  0.00    +0.000 A 
ATOM      5 BR   UNL     1       3.378   1.814  18.193  0.00  0.00    +0.000 Br
ATOM      6  C   UNL     1       4.975   4.018  17.626  0.00  0.00    +0.000 A 
ATOM      7  C   UNL     1       5.318   5.341  17.390  0.00  0.00    +0.000 A 
ATOM      8 BR   UNL     1       7.015   5.761  16.676  0.00  0.00    +0.000 Br
ATOM      9  C   UNL     1       4.405   6.351  17.648  0.00  0.00    +0.000 A 
ATOM     10  C   UNL     1       3.137   6.043  18.174  0.00  0.00    +0.000 A 
BRANCH   3  12
ATOM     11  C   UNL     1       1.388   4.215  20.356  0.00  0.00    +0.000 C 
ATOM     12  O   UNL     1       1.518   4.531  18.971  0.00  0.00    +0.000 OA
ENDBRANCH   3  12
ENDBRANCH   1  10
BRANCH   2  13
ATOM     13  N   UNL     1       1.361   8.868  19.713  0.00  0.00    +0.000 N 
ATOM     14  C   UNL     1       0.742   8.986  20.957  0.00  0.00    +0.000 C 
ATOM     15  O   UNL     1       0.903   8.206  21.893  0.00  0.00    +0.000 OA
ATOM     16  H   UNL     1       1.306   9.589  19.005  0.00  0.00    +0.000 HD
BRANCH  14  17
ATOM     17  C   UNL     1      -0.159  10.154  21.171  0.00  0.00    +0.000 A 
ATOM     18  C   UNL     1      -0.436  10.678  22.433  0.00  0.00    +0.000 A 
ATOM     19  C   UNL     1      -1.249  11.798  22.502  0.00  0.00    +0.000 A 
ATOM     20  N   UNL     1      -1.788  12.410  21.426  0.00  0.00    +0.000 NA
ATOM     21  C   UNL     1      -1.494  11.895  20.216  0.00  0.00    +0.000 A 
ATOM     22  C   UNL     1      -0.691  10.783  20.039  0.00  0.00    +0.000 A 
ENDBRANCH  14  17
ENDBRANCH   2  13
TORSDOF 4
ENDMDL
