MODEL 1
REMARK VINA RESULT:      -6.6      0.000      0.000
REMARK  Name = 
REMARK  9 active torsions:
REMARK  status: ('A' for Active; 'I' for Inactive)
REMARK    1  A    between atoms: C_1  and  O_2
REMARK    2  A    between atoms: O_2  and  C_3
REMARK    3  A    between atoms: C_8  and  O_9
REMARK    4  A    between atoms: O_9  and  C_10
REMARK    5  A    between atoms: C_10  and  C_11
REMARK    6  A    between atoms: C_14  and  C_15
REMARK    7  A    between atoms: C_14  and  C_16
REMARK    8  A    between atoms: C_20  and  C_21
REMARK    9  A    between atoms: C_22  and  C_23
REMARK                            x       y       z     vdW  Elec       q    Type
REMARK                         _______ _______ _______ _____ _____    ______ ____
ROOT
ATOM      1  C   UNL     1       6.963  17.274  19.496  0.00  0.00    +0.000 C 
ATOM      2  C   UNL     1       7.859  16.174  18.881  0.00  0.00    +0.000 C 
ATOM      3  C   UNL     1       8.713  15.316  19.893  0.00  0.00    +0.000 C 
ATOM      4  C   UNL     1       7.858  14.918  21.137  0.00  0.00    +0.000 C 
ATOM      5  C   UNL     1       8.753  14.245  22.177  0.00  0.00    +0.000 C 
ATOM      6  C   UNL     1       9.151  12.848  21.689  0.00  0.00    +0.000 C 
ATOM      7  C   UNL     1       9.785  12.938  20.271  0.00  0.00    +0.000 C 
ATOM      8  C   UNL     1      10.418  11.639  19.516  0.00  0.00    +0.000 C 
ATOM      9  C   UNL     1       9.713  10.353  19.947  0.00  0.00    +0.000 C 
ATOM     10  C   UNL     1      10.535  11.389  17.945  0.00  0.00    +0.000 C 
ATOM     11  C   UNL     1      11.880  11.939  19.820  0.00  0.00    +0.000 C 
ATOM     12  C   UNL     1      12.155  13.368  19.149  0.00  0.00    +0.000 C 
ATOM     13  C   UNL     1      10.851  14.288  18.620  0.00  0.00    +0.000 C 
ATOM     14  C   UNL     1       9.382  14.002  19.253  0.00  0.00    +0.000 C 
ATOM     15  C   UNL     1       8.319  13.312  18.355  0.00  0.00    +0.000 C 
ATOM     16  C   UNL     1       7.030  16.067  21.755  0.00  0.00    +0.000 C 
ATOM     17  C   UNL     1       7.855  17.113  22.514  0.00  0.00    +0.000 C 
ATOM     18  C   UNL     1       6.236  16.656  20.634  0.00  0.00    +0.000 C 
ATOM     19  C   UNL     1       4.935  16.528  20.384  0.00  0.00    +0.000 C 
ATOM     20  C   UNL     1       4.736  17.106  19.056  0.00  0.00    +0.000 C 
ATOM     21  O   UNL     1       3.680  17.085  18.450  0.00  0.00    +0.000 OA
ATOM     22  O   UNL     1       5.910  17.625  18.594  0.00  0.00    +0.000 OA
ENDROOT
BRANCH   1  24
ATOM     23  C   UNL     1       8.940  18.629  19.415  0.00  0.00    +0.000 C 
ATOM     24  O   UNL     1       7.667  18.400  19.988  0.00  0.00    +0.000 OA
ENDBRANCH   1  24
BRANCH   6  25
ATOM     25  O   UNL     1       8.052  11.952  21.813  0.00  0.00    +0.000 OA
BRANCH  25  26
ATOM     26  C   UNL     1       7.672  11.770  23.106  0.00  0.00    +0.000 C 
ATOM     27  C   UNL     1       6.258  12.240  23.303  0.00  0.00    +0.000 C 
ATOM     28  O   UNL     1       8.324  11.272  24.004  0.00  0.00    +0.000 OA
ENDBRANCH  25  26
ENDBRANCH   6  25
TORSDOF 3
ENDMDL
MODEL 2
REMARK VINA RESULT:      -6.5      8.884     12.516
REMARK  Name = 
REMARK  9 active torsions:
REMARK  status: ('A' for Active; 'I' for Inactive)
REMARK    1  A    between atoms: C_1  and  O_2
REMARK    2  A    between atoms: O_2  and  C_3
REMARK    3  A    between atoms: C_8  and  O_9
REMARK    4  A    between atoms: O_9  and  C_10
REMARK    5  A    between atoms: C_10  and  C_11
REMARK    6  A    between atoms: C_14  and  C_15
REMARK    7  A    between atoms: C_14  and  C_16
REMARK    8  A    between atoms: C_20  and  C_21
REMARK    9  A    between atoms: C_22  and  C_23
REMARK                            x       y       z     vdW  Elec       q    Type
REMARK                         _______ _______ _______ _____ _____    ______ ____
ROOT
ATOM      1  C   UNL     1       0.453  11.918  20.702  0.00  0.00    +0.000 C 
ATOM      2  C   UNL     1      -0.263  12.927  21.630  0.00  0.00    +0.000 C 
ATOM      3  C   UNL     1      -1.655  13.477  21.129  0.00  0.00    +0.000 C 
ATOM      4  C   UNL     1      -2.522  12.323  20.534  0.00  0.00    +0.000 C 
ATOM      5  C   UNL     1      -3.782  12.908  19.897  0.00  0.00    +0.000 C 
ATOM      6  C   UNL     1      -4.734  13.399  20.993  0.00  0.00    +0.000 C 
ATOM      7  C   UNL     1      -3.993  14.379  21.946  0.00  0.00    +0.000 C 
ATOM      8  C   UNL     1      -4.755  15.167  23.152  0.00  0.00    +0.000 C 
ATOM      9  C   UNL     1      -5.940  14.356  23.677  0.00  0.00    +0.000 C 
ATOM     10  C   UNL     1      -4.130  15.683  24.525  0.00  0.00    +0.000 C 
ATOM     11  C   UNL     1      -4.903  16.504  22.439  0.00  0.00    +0.000 C 
ATOM     12  C   UNL     1      -3.404  16.965  22.114  0.00  0.00    +0.000 C 
ATOM     13  C   UNL     1      -2.151  15.856  22.286  0.00  0.00    +0.000 C 
ATOM     14  C   UNL     1      -2.498  14.269  22.244  0.00  0.00    +0.000 C 
ATOM     15  C   UNL     1      -2.415  13.465  23.570  0.00  0.00    +0.000 C 
ATOM     16  C   UNL     1      -1.777  11.381  19.562  0.00  0.00    +0.000 C 
ATOM     17  C   UNL     1      -1.454  11.996  18.196  0.00  0.00    +0.000 C 
ATOM     18  C   UNL     1      -0.559  10.912  20.290  0.00  0.00    +0.000 C 
ATOM     19  C   UNL     1      -0.324   9.719  20.831  0.00  0.00    +0.000 C 
ATOM     20  C   UNL     1       0.904   9.879  21.608  0.00  0.00    +0.000 C 
ATOM     21  O   UNL     1       1.381   9.015  22.322  0.00  0.00    +0.000 OA
ATOM     22  O   UNL     1       1.397  11.140  21.443  0.00  0.00    +0.000 OA
ENDROOT
BRANCH   1  24
ATOM     23  C   UNL     1       2.073  13.394  19.729  0.00  0.00    +0.000 C 
ATOM     24  O   UNL     1       1.006  12.487  19.530  0.00  0.00    +0.000 OA
ENDBRANCH   1  24
BRANCH   6  25
ATOM     25  O   UNL     1      -5.368  12.292  21.625  0.00  0.00    +0.000 OA
BRANCH  25  26
ATOM     26  C   UNL     1      -6.500  11.902  20.980  0.00  0.00    +0.000 C 
ATOM     27  C   UNL     1      -7.277  13.105  20.522  0.00  0.00    +0.000 C 
ATOM     28  O   UNL     1      -6.862  10.764  20.747  0.00  0.00    +0.000 OA
ENDBRANCH  25  26
ENDBRANCH   6  25
TORSDOF 3
ENDMDL
MODEL 3
REMARK VINA RESULT:      -6.4      6.020      9.593
REMARK  Name = 
REMARK  9 active torsions:
REMARK  status: ('A' for Active; 'I' for Inactive)
REMARK    1  A    between atoms: C_1  and  O_2
REMARK    2  A    between atoms: O_2  and  C_3
REMARK    3  A    between atoms: C_8  and  O_9
REMARK    4  A    between atoms: O_9  and  C_10
REMARK    5  A    between atoms: C_10  and  C_11
REMARK    6  A    between atoms: C_14  and  C_15
REMARK    7  A    between atoms: C_14  and  C_16
REMARK    8  A    between atoms: C_20  and  C_21
REMARK    9  A    between atoms: C_22  and  C_23
REMARK                            x       y       z     vdW  Elec       q    Type
REMARK                         _______ _______ _______ _____ _____    ______ ____
ROOT
ATOM      1  C   UNL     1       0.675  10.510  20.487  0.00  0.00    +0.000 C 
ATOM      2  C   UNL     1       1.704  11.644  20.274  0.00  0.00    +0.000 C 
ATOM      3  C   UNL     1       1.234  12.862  19.387  0.00  0.00    +0.000 C 
ATOM      4  C   UNL     1      -0.222  13.287  19.760  0.00  0.00    +0.000 C 
ATOM      5  C   UNL     1      -0.713  14.343  18.771  0.00  0.00    +0.000 C 
ATOM      6  C   UNL     1       0.010  15.669  19.029  0.00  0.00    +0.000 C 
ATOM      7  C   UNL     1       1.550  15.452  19.009  0.00  0.00    +0.000 C 
ATOM      8  C   UNL     1       2.606  16.685  19.140  0.00  0.00    +0.000 C 
ATOM      9  C   UNL     1       2.018  17.830  19.964  0.00  0.00    +0.000 C 
ATOM     10  C   UNL     1       4.088  16.640  19.729  0.00  0.00    +0.000 C 
ATOM     11  C   UNL     1       2.942  16.803  17.658  0.00  0.00    +0.000 C 
ATOM     12  C   UNL     1       3.549  15.375  17.260  0.00  0.00    +0.000 C 
ATOM     13  C   UNL     1       3.385  14.088  18.331  0.00  0.00    +0.000 C 
ATOM     14  C   UNL     1       2.204  14.142  19.445  0.00  0.00    +0.000 C 
ATOM     15  C   UNL     1       2.605  14.372  20.928  0.00  0.00    +0.000 C 
ATOM     16  C   UNL     1      -1.227  12.122  19.897  0.00  0.00    +0.000 C 
ATOM     17  C   UNL     1      -1.635  11.469  18.571  0.00  0.00    +0.000 C 
ATOM     18  C   UNL     1      -0.612  11.153  20.855  0.00  0.00    +0.000 C 
ATOM     19  C   UNL     1      -0.940  10.921  22.123  0.00  0.00    +0.000 C 
ATOM     20  C   UNL     1       0.120  10.061  22.648  0.00  0.00    +0.000 C 
ATOM     21  O   UNL     1       0.208   9.714  23.812  0.00  0.00    +0.000 OA
ATOM     22  O   UNL     1       1.001   9.751  21.654  0.00  0.00    +0.000 OA
ENDROOT
BRANCH   1  24
ATOM     23  C   UNL     1       1.604   9.292  18.641  0.00  0.00    +0.000 C 
ATOM     24  O   UNL     1       0.448   9.700  19.347  0.00  0.00    +0.000 OA
ENDBRANCH   1  24
BRANCH   6  25
ATOM     25  O   UNL     1      -0.506  16.289  20.202  0.00  0.00    +0.000 OA
BRANCH  25  26
ATOM     26  C   UNL     1      -1.702  16.899  19.986  0.00  0.00    +0.000 C 
ATOM     27  C   UNL     1      -1.585  17.887  18.859  0.00  0.00    +0.000 C 
ATOM     28  O   UNL     1      -2.752  16.690  20.564  0.00  0.00    +0.000 OA
ENDBRANCH  25  26
ENDBRANCH   6  25
TORSDOF 3
ENDMDL
MODEL 4
REMARK VINA RESULT:      -6.4      8.104     10.988
REMARK  Name = 
REMARK  9 active torsions:
REMARK  status: ('A' for Active; 'I' for Inactive)
REMARK    1  A    between atoms: C_1  and  O_2
REMARK    2  A    between atoms: O_2  and  C_3
REMARK    3  A    between atoms: C_8  and  O_9
REMARK    4  A    between atoms: O_9  and  C_10
REMARK    5  A    between atoms: C_10  and  C_11
REMARK    6  A    between atoms: C_14  and  C_15
REMARK    7  A    between atoms: C_14  and  C_16
REMARK    8  A    between atoms: C_20  and  C_21
REMARK    9  A    between atoms: C_22  and  C_23
REMARK                            x       y       z     vdW  Elec       q    Type
REMARK                         _______ _______ _______ _____ _____    ______ ____
ROOT
ATOM      1  C   UNL     1       3.343   5.653  17.804  0.00  0.00    +0.000 C 
ATOM      2  C   UNL     1       2.746   7.061  17.579  0.00  0.00    +0.000 C 
ATOM      3  C   UNL     1       1.624   7.519  18.590  0.00  0.00    +0.000 C 
ATOM      4  C   UNL     1       2.015   7.142  20.054  0.00  0.00    +0.000 C 
ATOM      5  C   UNL     1       0.839   7.434  20.986  0.00  0.00    +0.000 C 
ATOM      6  C   UNL     1       0.675   8.948  21.151  0.00  0.00    +0.000 C 
ATOM      7  C   UNL     1       0.561   9.629  19.758  0.00  0.00    +0.000 C 
ATOM      8  C   UNL     1       0.265  11.223  19.588  0.00  0.00    +0.000 C 
ATOM      9  C   UNL     1       0.818  12.015  20.772  0.00  0.00    +0.000 C 
ATOM     10  C   UNL     1       0.698  12.170  18.381  0.00  0.00    +0.000 C 
ATOM     11  C   UNL     1      -1.222  11.105  19.277  0.00  0.00    +0.000 C 
ATOM     12  C   UNL     1      -1.294  10.214  17.948  0.00  0.00    +0.000 C 
ATOM     13  C   UNL     1       0.083   9.398  17.433  0.00  0.00    +0.000 C 
ATOM     14  C   UNL     1       1.255   9.081  18.512  0.00  0.00    +0.000 C 
ATOM     15  C   UNL     1       2.581   9.882  18.411  0.00  0.00    +0.000 C 
ATOM     16  C   UNL     1       2.546   5.703  20.238  0.00  0.00    +0.000 C 
ATOM     17  C   UNL     1       1.479   4.607  20.119  0.00  0.00    +0.000 C 
ATOM     18  C   UNL     1       3.656   5.540  19.252  0.00  0.00    +0.000 C 
ATOM     19  C   UNL     1       4.967   5.515  19.477  0.00  0.00    +0.000 C 
ATOM     20  C   UNL     1       5.590   5.569  18.156  0.00  0.00    +0.000 C 
ATOM     21  O   UNL     1       6.790   5.657  17.967  0.00  0.00    +0.000 OA
ATOM     22  O   UNL     1       4.629   5.550  17.188  0.00  0.00    +0.000 OA
ENDROOT
BRANCH   1  24
ATOM     23  C   UNL     1       3.112   3.382  17.070  0.00  0.00    +0.000 C 
ATOM     24  O   UNL     1       2.480   4.585  17.460  0.00  0.00    +0.000 OA
ENDBRANCH   1  24
BRANCH   6  25
ATOM     25  O   UNL     1       1.692   9.462  22.004  0.00  0.00    +0.000 OA
BRANCH  25  26
ATOM     26  C   UNL     1       1.333   9.441  23.316  0.00  0.00    +0.000 C 
ATOM     27  C   UNL     1      -0.158   9.583  23.448  0.00  0.00    +0.000 C 
ATOM     28  O   UNL     1       2.062   9.295  24.278  0.00  0.00    +0.000 OA
ENDBRANCH  25  26
ENDBRANCH   6  25
TORSDOF 3
ENDMDL
MODEL 5
REMARK VINA RESULT:      -6.3      9.726     13.216
REMARK  Name = 
REMARK  9 active torsions:
REMARK  status: ('A' for Active; 'I' for Inactive)
REMARK    1  A    between atoms: C_1  and  O_2
REMARK    2  A    between atoms: O_2  and  C_3
REMARK    3  A    between atoms: C_8  and  O_9
REMARK    4  A    between atoms: O_9  and  C_10
REMARK    5  A    between atoms: C_10  and  C_11
REMARK    6  A    between atoms: C_14  and  C_15
REMARK    7  A    between atoms: C_14  and  C_16
REMARK    8  A    between atoms: C_20  and  C_21
REMARK    9  A    between atoms: C_22  and  C_23
REMARK                            x       y       z     vdW  Elec       q    Type
REMARK                         _______ _______ _______ _____ _____    ______ ____
ROOT
ATOM      1  C   UNL     1      -0.080  12.114  20.694  0.00  0.00    +0.000 C 
ATOM      2  C   UNL     1      -1.193  12.811  21.511  0.00  0.00    +0.000 C 
ATOM      3  C   UNL     1      -2.541  13.112  20.749  0.00  0.00    +0.000 C 
ATOM      4  C   UNL     1      -2.965  11.889  19.874  0.00  0.00    +0.000 C 
ATOM      5  C   UNL     1      -4.169  12.271  19.014  0.00  0.00    +0.000 C 
ATOM      6  C   UNL     1      -5.415  12.393  19.896  0.00  0.00    +0.000 C 
ATOM      7  C   UNL     1      -5.144  13.372  21.073  0.00  0.00    +0.000 C 
ATOM      8  C   UNL     1      -6.305  13.807  22.131  0.00  0.00    +0.000 C 
ATOM      9  C   UNL     1      -7.343  12.698  22.298  0.00  0.00    +0.000 C 
ATOM     10  C   UNL     1      -6.119  14.256  23.650  0.00  0.00    +0.000 C 
ATOM     11  C   UNL     1      -6.618  15.166  21.517  0.00  0.00    +0.000 C 
ATOM     12  C   UNL     1      -5.239  15.977  21.589  0.00  0.00    +0.000 C 
ATOM     13  C   UNL     1      -3.821  15.150  21.954  0.00  0.00    +0.000 C 
ATOM     14  C   UNL     1      -3.762  13.546  21.700  0.00  0.00    +0.000 C 
ATOM     15  C   UNL     1      -3.763  12.607  22.937  0.00  0.00    +0.000 C 
ATOM     16  C   UNL     1      -1.832  11.269  19.027  0.00  0.00    +0.000 C 
ATOM     17  C   UNL     1      -1.390  12.118  17.829  0.00  0.00    +0.000 C 
ATOM     18  C   UNL     1      -0.714  10.980  19.976  0.00  0.00    +0.000 C 
ATOM     19  C   UNL     1      -0.317   9.803  20.454  0.00  0.00    +0.000 C 
ATOM     20  C   UNL     1       0.649  10.117  21.505  0.00  0.00    +0.000 C 
ATOM     21  O   UNL     1       1.161   9.287  22.236  0.00  0.00    +0.000 OA
ATOM     22  O   UNL     1       0.849  11.465  21.565  0.00  0.00    +0.000 OA
ENDROOT
BRANCH   1  24
ATOM     23  C   UNL     1       1.963  12.877  19.696  0.00  0.00    +0.000 C 
ATOM     24  O   UNL     1       0.550  12.942  19.733  0.00  0.00    +0.000 OA
ENDBRANCH   1  24
BRANCH   6  25
ATOM     25  O   UNL     1      -5.882  11.101  20.269  0.00  0.00    +0.000 OA
BRANCH  25  26
ATOM     26  C   UNL     1      -6.737  10.572  19.353  0.00  0.00    +0.000 C 
ATOM     27  C   UNL     1      -7.151   9.187  19.769  0.00  0.00    +0.000 C 
ATOM     28  O   UNL     1      -7.166  11.105  18.347  0.00  0.00    +0.000 OA
ENDBRANCH  25  26
ENDBRANCH   6  25
TORSDOF 3
ENDMDL
MODEL 6
REMARK VINA RESULT:      -6.3      2.163      5.609
REMARK  Name = 
REMARK  9 active torsions:
REMARK  status: ('A' for Active; 'I' for Inactive)
REMARK    1  A    between atoms: C_1  and  O_2
REMARK    2  A    between atoms: O_2  and  C_3
REMARK    3  A    between atoms: C_8  and  O_9
REMARK    4  A    between atoms: O_9  and  C_10
REMARK    5  A    between atoms: C_10  and  C_11
REMARK    6  A    between atoms: C_14  and  C_15
REMARK    7  A    between atoms: C_14  and  C_16
REMARK    8  A    between atoms: C_20  and  C_21
REMARK    9  A    between atoms: C_22  and  C_23
REMARK                            x       y       z     vdW  Elec       q    Type
REMARK                         _______ _______ _______ _____ _____    ______ ____
ROOT
ATOM      1  C   UNL     1       7.529  12.596  24.317  0.00  0.00    +0.000 C 
ATOM      2  C   UNL     1       8.491  12.062  23.231  0.00  0.00    +0.000 C 
ATOM      3  C   UNL     1       8.219  12.541  21.752  0.00  0.00    +0.000 C 
ATOM      4  C   UNL     1       7.893  14.068  21.719  0.00  0.00    +0.000 C 
ATOM      5  C   UNL     1       7.461  14.466  20.309  0.00  0.00    +0.000 C 
ATOM      6  C   UNL     1       8.673  14.447  19.373  0.00  0.00    +0.000 C 
ATOM      7  C   UNL     1       9.388  13.068  19.449  0.00  0.00    +0.000 C 
ATOM      8  C   UNL     1      10.649  12.685  18.491  0.00  0.00    +0.000 C 
ATOM      9  C   UNL     1      11.451  13.929  18.112  0.00  0.00    +0.000 C 
ATOM     10  C   UNL     1      11.834  11.664  18.803  0.00  0.00    +0.000 C 
ATOM     11  C   UNL     1       9.872  11.848  17.484  0.00  0.00    +0.000 C 
ATOM     12  C   UNL     1       9.234  10.657  18.345  0.00  0.00    +0.000 C 
ATOM     13  C   UNL     1       9.256  10.757  20.023  0.00  0.00    +0.000 C 
ATOM     14  C   UNL     1       9.406  12.218  20.719  0.00  0.00    +0.000 C 
ATOM     15  C   UNL     1      10.753  12.565  21.411  0.00  0.00    +0.000 C 
ATOM     16  C   UNL     1       6.877  14.541  22.783  0.00  0.00    +0.000 C 
ATOM     17  C   UNL     1       5.429  14.110  22.521  0.00  0.00    +0.000 C 
ATOM     18  C   UNL     1       7.397  14.059  24.098  0.00  0.00    +0.000 C 
ATOM     19  C   UNL     1       7.977  14.762  25.067  0.00  0.00    +0.000 C 
ATOM     20  C   UNL     1       8.493  13.772  26.011  0.00  0.00    +0.000 C 
ATOM     21  O   UNL     1       9.171  14.042  26.986  0.00  0.00    +0.000 OA
ATOM     22  O   UNL     1       8.138  12.518  25.608  0.00  0.00    +0.000 OA
ENDROOT
BRANCH   1  24
ATOM     23  C   UNL     1       5.899  11.187  25.368  0.00  0.00    +0.000 C 
ATOM     24  O   UNL     1       6.232  12.031  24.283  0.00  0.00    +0.000 OA
ENDBRANCH   1  24
BRANCH   6  25
ATOM     25  O   UNL     1       9.499  15.580  19.617  0.00  0.00    +0.000 OA
BRANCH  25  26
ATOM     26  C   UNL     1       9.099  16.678  18.920  0.00  0.00    +0.000 C 
ATOM     27  C   UNL     1       8.963  17.857  19.843  0.00  0.00    +0.000 C 
ATOM     28  O   UNL     1       8.901  16.761  17.723  0.00  0.00    +0.000 OA
ENDBRANCH  25  26
ENDBRANCH   6  25
TORSDOF 3
ENDMDL
MODEL 7
REMARK VINA RESULT:      -6.1      1.974      6.327
REMARK  Name = 
REMARK  9 active torsions:
REMARK  status: ('A' for Active; 'I' for Inactive)
REMARK    1  A    between atoms: C_1  and  O_2
REMARK    2  A    between atoms: O_2  and  C_3
REMARK    3  A    between atoms: C_8  and  O_9
REMARK    4  A    between atoms: O_9  and  C_10
REMARK    5  A    between atoms: C_10  and  C_11
REMARK    6  A    between atoms: C_14  and  C_15
REMARK    7  A    between atoms: C_14  and  C_16
REMARK    8  A    between atoms: C_20  and  C_21
REMARK    9  A    between atoms: C_22  and  C_23
REMARK                            x       y       z     vdW  Elec       q    Type
REMARK                         _______ _______ _______ _____ _____    ______ ____
ROOT
ATOM      1  C   UNL     1      10.048  11.479  19.392  0.00  0.00    +0.000 C 
ATOM      2  C   UNL     1       9.536  12.104  20.710  0.00  0.00    +0.000 C 
ATOM      3  C   UNL     1       9.097  13.618  20.646  0.00  0.00    +0.000 C 
ATOM      4  C   UNL     1       8.258  13.895  19.357  0.00  0.00    +0.000 C 
ATOM      5  C   UNL     1       8.000  15.396  19.230  0.00  0.00    +0.000 C 
ATOM      6  C   UNL     1       6.986  15.837  20.290  0.00  0.00    +0.000 C 
ATOM      7  C   UNL     1       7.462  15.395  21.703  0.00  0.00    +0.000 C 
ATOM      8  C   UNL     1       6.663  15.809  23.062  0.00  0.00    +0.000 C 
ATOM      9  C   UNL     1       5.169  15.985  22.791  0.00  0.00    +0.000 C 
ATOM     10  C   UNL     1       6.612  15.012  24.442  0.00  0.00    +0.000 C 
ATOM     11  C   UNL     1       7.581  16.951  23.479  0.00  0.00    +0.000 C 
ATOM     12  C   UNL     1       9.020  16.273  23.668  0.00  0.00    +0.000 C 
ATOM     13  C   UNL     1       9.270  14.711  23.100  0.00  0.00    +0.000 C 
ATOM     14  C   UNL     1       8.292  14.134  21.937  0.00  0.00    +0.000 C 
ATOM     15  C   UNL     1       7.257  13.043  22.324  0.00  0.00    +0.000 C 
ATOM     16  C   UNL     1       8.846  13.304  18.056  0.00  0.00    +0.000 C 
ATOM     17  C   UNL     1      10.096  14.023  17.535  0.00  0.00    +0.000 C 
ATOM     18  C   UNL     1       9.082  11.854  18.328  0.00  0.00    +0.000 C 
ATOM     19  C   UNL     1       8.387  10.806  17.895  0.00  0.00    +0.000 C 
ATOM     20  C   UNL     1       8.904   9.660  18.641  0.00  0.00    +0.000 C 
ATOM     21  O   UNL     1       8.441   8.535  18.577  0.00  0.00    +0.000 OA
ATOM     22  O   UNL     1       9.939  10.054  19.438  0.00  0.00    +0.000 OA
ENDROOT
BRANCH   1  24
ATOM     23  C   UNL     1      12.333  11.894  19.991  0.00  0.00    +0.000 C 
ATOM     24  O   UNL     1      11.332  11.921  18.991  0.00  0.00    +0.000 OA
ENDBRANCH   1  24
BRANCH   6  25
ATOM     25  O   UNL     1       5.677  15.414  19.924  0.00  0.00    +0.000 OA
BRANCH  25  26
ATOM     26  C   UNL     1       5.115  16.214  18.979  0.00  0.00    +0.000 C 
ATOM     27  C   UNL     1       4.475  15.378  17.905  0.00  0.00    +0.000 C 
ATOM     28  O   UNL     1       5.075  17.430  18.969  0.00  0.00    +0.000 OA
ENDBRANCH  25  26
ENDBRANCH   6  25
TORSDOF 3
ENDMDL
MODEL 8
REMARK VINA RESULT:      -6.1      1.986      6.347
REMARK  Name = 
REMARK  9 active torsions:
REMARK  status: ('A' for Active; 'I' for Inactive)
REMARK    1  A    between atoms: C_1  and  O_2
REMARK    2  A    between atoms: O_2  and  C_3
REMARK    3  A    between atoms: C_8  and  O_9
REMARK    4  A    between atoms: O_9  and  C_10
REMARK    5  A    between atoms: C_10  and  C_11
REMARK    6  A    between atoms: C_14  and  C_15
REMARK    7  A    between atoms: C_14  and  C_16
REMARK    8  A    between atoms: C_20  and  C_21
REMARK    9  A    between atoms: C_22  and  C_23
REMARK                            x       y       z     vdW  Elec       q    Type
REMARK                         _______ _______ _______ _____ _____    ______ ____
ROOT
ATOM      1  C   UNL     1      10.077  11.987  20.036  0.00  0.00    +0.000 C 
ATOM      2  C   UNL     1       9.285  12.318  21.322  0.00  0.00    +0.000 C 
ATOM      3  C   UNL     1       8.923  13.836  21.555  0.00  0.00    +0.000 C 
ATOM      4  C   UNL     1       8.426  14.493  20.228  0.00  0.00    +0.000 C 
ATOM      5  C   UNL     1       8.254  15.997  20.438  0.00  0.00    +0.000 C 
ATOM      6  C   UNL     1       7.031  16.259  21.323  0.00  0.00    +0.000 C 
ATOM      7  C   UNL     1       7.142  15.445  22.643  0.00  0.00    +0.000 C 
ATOM      8  C   UNL     1       6.055  15.587  23.849  0.00  0.00    +0.000 C 
ATOM      9  C   UNL     1       4.676  15.960  23.307  0.00  0.00    +0.000 C 
ATOM     10  C   UNL     1       5.650  14.487  24.930  0.00  0.00    +0.000 C 
ATOM     11  C   UNL     1       6.883  16.504  24.741  0.00  0.00    +0.000 C 
ATOM     12  C   UNL     1       8.212  15.671  25.064  0.00  0.00    +0.000 C 
ATOM     13  C   UNL     1       8.541  14.278  24.182  0.00  0.00    +0.000 C 
ATOM     14  C   UNL     1       7.850  14.094  22.723  0.00  0.00    +0.000 C 
ATOM     15  C   UNL     1       6.718  13.041  22.575  0.00  0.00    +0.000 C 
ATOM     16  C   UNL     1       9.288  14.186  18.984  0.00  0.00    +0.000 C 
ATOM     17  C   UNL     1      10.649  14.892  18.957  0.00  0.00    +0.000 C 
ATOM     18  C   UNL     1       9.406  12.697  18.918  0.00  0.00    +0.000 C 
ATOM     19  C   UNL     1       8.800  11.855  18.085  0.00  0.00    +0.000 C 
ATOM     20  C   UNL     1       9.087  10.519  18.606  0.00  0.00    +0.000 C 
ATOM     21  O   UNL     1       8.617   9.491  18.153  0.00  0.00    +0.000 OA
ATOM     22  O   UNL     1       9.914  10.610  19.687  0.00  0.00    +0.000 OA
ENDROOT
BRANCH   1  24
ATOM     23  C   UNL     1      12.330  11.591  19.316  0.00  0.00    +0.000 C 
ATOM     24  O   UNL     1      11.433  12.393  20.059  0.00  0.00    +0.000 OA
ENDBRANCH   1  24
BRANCH   6  25
ATOM     25  O   UNL     1       5.835  16.059  20.578  0.00  0.00    +0.000 OA
BRANCH  25  26
ATOM     26  C   UNL     1       5.542  17.113  19.770  0.00  0.00    +0.000 C 
ATOM     27  C   UNL     1       4.895  16.630  18.501  0.00  0.00    +0.000 C 
ATOM     28  O   UNL     1       5.721  18.294  20.002  0.00  0.00    +0.000 OA
ENDBRANCH  25  26
ENDBRANCH   6  25
TORSDOF 3
ENDMDL
MODEL 9
REMARK VINA RESULT:      -6.0      9.144     11.540
REMARK  Name = 
REMARK  9 active torsions:
REMARK  status: ('A' for Active; 'I' for Inactive)
REMARK    1  A    between atoms: C_1  and  O_2
REMARK    2  A    between atoms: O_2  and  C_3
REMARK    3  A    between atoms: C_8  and  O_9
REMARK    4  A    between atoms: O_9  and  C_10
REMARK    5  A    between atoms: C_10  and  C_11
REMARK    6  A    between atoms: C_14  and  C_15
REMARK    7  A    between atoms: C_14  and  C_16
REMARK    8  A    between atoms: C_20  and  C_21
REMARK    9  A    between atoms: C_22  and  C_23
REMARK                            x       y       z     vdW  Elec       q    Type
REMARK                         _______ _______ _______ _____ _____    ______ ____
ROOT
ATOM      1  C   UNL     1      -5.104  14.344  23.106  0.00  0.00    +0.000 C 
ATOM      2  C   UNL     1      -4.441  14.047  21.741  0.00  0.00    +0.000 C 
ATOM      3  C   UNL     1      -2.897  13.720  21.766  0.00  0.00    +0.000 C 
ATOM      4  C   UNL     1      -2.557  12.753  22.944  0.00  0.00    +0.000 C 
ATOM      5  C   UNL     1      -1.041  12.596  23.053  0.00  0.00    +0.000 C 
ATOM      6  C   UNL     1      -0.523  11.757  21.881  0.00  0.00    +0.000 C 
ATOM      7  C   UNL     1      -1.000  12.369  20.533  0.00  0.00    +0.000 C 
ATOM      8  C   UNL     1      -0.525  11.776  19.091  0.00  0.00    +0.000 C 
ATOM      9  C   UNL     1      -0.235  10.278  19.178  0.00  0.00    +0.000 C 
ATOM     10  C   UNL     1      -1.316  11.835  17.707  0.00  0.00    +0.000 C 
ATOM     11  C   UNL     1       0.542  12.823  18.800  0.00  0.00    +0.000 C 
ATOM     12  C   UNL     1      -0.244  14.218  18.782  0.00  0.00    +0.000 C 
ATOM     13  C   UNL     1      -1.821  14.277  19.362  0.00  0.00    +0.000 C 
ATOM     14  C   UNL     1      -2.321  13.122  20.390  0.00  0.00    +0.000 C 
ATOM     15  C   UNL     1      -3.329  12.062  19.868  0.00  0.00    +0.000 C 
ATOM     16  C   UNL     1      -3.192  13.129  24.301  0.00  0.00    +0.000 C 
ATOM     17  C   UNL     1      -2.571  14.357  24.980  0.00  0.00    +0.000 C 
ATOM     18  C   UNL     1      -4.656  13.286  24.047  0.00  0.00    +0.000 C 
ATOM     19  C   UNL     1      -5.648  12.464  24.381  0.00  0.00    +0.000 C 
ATOM     20  C   UNL     1      -6.829  12.980  23.693  0.00  0.00    +0.000 C 
ATOM     21  O   UNL     1      -7.916  12.429  23.689  0.00  0.00    +0.000 OA
ATOM     22  O   UNL     1      -6.516  14.132  23.033  0.00  0.00    +0.000 OA
ENDROOT
BRANCH   1  24
ATOM     23  C   UNL     1      -5.807  16.282  24.331  0.00  0.00    +0.000 C 
ATOM     24  O   UNL     1      -4.763  15.599  23.665  0.00  0.00    +0.000 OA
ENDBRANCH   1  24
BRANCH   6  25
ATOM     25  O   UNL     1      -0.845  10.385  22.080  0.00  0.00    +0.000 OA
BRANCH  25  26
ATOM     26  C   UNL     1       0.078   9.738  22.841  0.00  0.00    +0.000 C 
ATOM     27  C   UNL     1       1.125   9.107  21.965  0.00  0.00    +0.000 C 
ATOM     28  O   UNL     1       0.121   9.675  24.055  0.00  0.00    +0.000 OA
ENDBRANCH  25  26
ENDBRANCH   6  25
TORSDOF 3
ENDMDL
