MODEL 1
REMARK VINA RESULT:      -8.2      0.000      0.000
REMARK  Name = 
REMARK  9 active torsions:
REMARK  status: ('A' for Active; 'I' for Inactive)
REMARK    1  A    between atoms: C_1  and  C_2
REMARK    2  A    between atoms: C_2  and  N_3
REMARK    3  A    between atoms: C_11  and  S_12
REMARK    4  A    between atoms: S_12  and  N_15
REMARK    5  A    between atoms: N_15  and  C_19
REMARK    6  A    between atoms: C_16  and  C_17
REMARK    7  A    between atoms: C_22  and  O_23
REMARK    8  A    between atoms: O_23  and  C_24
REMARK    9  A    between atoms: C_24  and  C_25
REMARK                            x       y       z     vdW  Elec       q    Type
REMARK                         _______ _______ _______ _____ _____    ______ ____
ROOT
ATOM      1  S   UNL     1       0.790   9.213  20.523  0.00  0.00    +0.000 S 
ATOM      2  O   UNL     1      -0.469   8.496  20.670  0.00  0.00    +0.000 OA
ATOM      3  O   UNL     1       1.567   9.543  21.704  0.00  0.00    +0.000 OA
ENDROOT
BRANCH   1  12
ATOM      4  N   UNL     1       4.165   5.606  17.230  0.00  0.00    +0.000 N 
ATOM      5  C   UNL     1       4.011   4.385  17.929  0.00  0.00    +0.000 C 
ATOM      6  O   UNL     1       4.526   3.316  17.633  0.00  0.00    +0.000 OA
ATOM      7  C   UNL     1       3.137   4.757  19.022  0.00  0.00    +0.000 A 
ATOM      8  C   UNL     1       2.647   3.984  20.069  0.00  0.00    +0.000 A 
ATOM      9  C   UNL     1       1.913   4.656  21.053  0.00  0.00    +0.000 A 
ATOM     10  C   UNL     1       1.630   6.033  20.949  0.00  0.00    +0.000 A 
ATOM     11  C   UNL     1       2.032   6.797  19.824  0.00  0.00    +0.000 A 
ATOM     12  C   UNL     1       1.788   8.156  19.473  0.00  0.00    +0.000 A 
ATOM     13  C   UNL     1       2.432   8.730  18.345  0.00  0.00    +0.000 A 
ATOM     14  C   UNL     1       3.298   7.981  17.515  0.00  0.00    +0.000 A 
ATOM     15  C   UNL     1       3.443   6.641  17.837  0.00  0.00    +0.000 A 
ATOM     16  C   UNL     1       2.813   6.104  18.940  0.00  0.00    +0.000 A 
BRANCH   4  18
ATOM     17  C   UNL     1       6.492   5.911  16.463  0.00  0.00    +0.000 C 
ATOM     18  C   UNL     1       5.033   5.716  16.077  0.00  0.00    +0.000 C 
ENDBRANCH   4  18
ENDBRANCH   1  12
BRANCH   1  19
ATOM     19  N   UNL     1       0.527  10.664  19.616  0.00  0.00    +0.000 N 
ATOM     20  C   UNL     1       0.993  11.924  20.124  0.00  0.00    +0.000 C 
ATOM     21  C   UNL     1       0.757  13.162  19.277  0.00  0.00    +0.000 C 
ATOM     22  O   UNL     1       1.642  12.018  21.162  0.00  0.00    +0.000 OA
BRANCH  19  23
ATOM     23  C   UNL     1      -0.787  10.697  19.001  0.00  0.00    +0.000 A 
ATOM     24  C   UNL     1      -1.035  10.088  17.764  0.00  0.00    +0.000 A 
ATOM     25  C   UNL     1      -2.270  10.259  17.128  0.00  0.00    +0.000 A 
ATOM     26  C   UNL     1      -3.240  11.079  17.703  0.00  0.00    +0.000 A 
ATOM     27  C   UNL     1      -2.989  11.728  18.907  0.00  0.00    +0.000 A 
ATOM     28  C   UNL     1      -1.779  11.505  19.567  0.00  0.00    +0.000 A 
BRANCH  26  29
ATOM     29  O   UNL     1      -4.421  11.259  16.953  0.00  0.00    +0.000 OA
BRANCH  29  30
ATOM     30  C   UNL     1      -5.653  11.499  17.557  0.00  0.00    +0.000 C 
ATOM     31  C   UNL     1      -6.151  12.856  17.155  0.00  0.00    +0.000 C 
ATOM     32  O   UNL     1      -6.290  10.728  18.260  0.00  0.00    +0.000 OA
ENDBRANCH  29  30
ENDBRANCH  26  29
ENDBRANCH  19  23
ENDBRANCH   1  19
TORSDOF 6
ENDMDL
MODEL 2
REMARK VINA RESULT:      -7.9      0.513      1.070
REMARK  Name = 
REMARK  9 active torsions:
REMARK  status: ('A' for Active; 'I' for Inactive)
REMARK    1  A    between atoms: C_1  and  C_2
REMARK    2  A    between atoms: C_2  and  N_3
REMARK    3  A    between atoms: C_11  and  S_12
REMARK    4  A    between atoms: S_12  and  N_15
REMARK    5  A    between atoms: N_15  and  C_19
REMARK    6  A    between atoms: C_16  and  C_17
REMARK    7  A    between atoms: C_22  and  O_23
REMARK    8  A    between atoms: O_23  and  C_24
REMARK    9  A    between atoms: C_24  and  C_25
REMARK                            x       y       z     vdW  Elec       q    Type
REMARK                         _______ _______ _______ _____ _____    ______ ____
ROOT
ATOM      1  S   UNL     1       0.721   9.466  20.467  0.00  0.00    +0.000 S 
ATOM      2  O   UNL     1      -0.560   8.781  20.563  0.00  0.00    +0.000 OA
ATOM      3  O   UNL     1       1.458   9.776  21.679  0.00  0.00    +0.000 OA
ENDROOT
BRANCH   1  12
ATOM      4  N   UNL     1       4.142   5.782  17.309  0.00  0.00    +0.000 N 
ATOM      5  C   UNL     1       3.975   4.576  18.032  0.00  0.00    +0.000 C 
ATOM      6  O   UNL     1       4.493   3.501  17.768  0.00  0.00    +0.000 OA
ATOM      7  C   UNL     1       3.084   4.974  19.103  0.00  0.00    +0.000 A 
ATOM      8  C   UNL     1       2.576   4.226  20.159  0.00  0.00    +0.000 A 
ATOM      9  C   UNL     1       1.828   4.920  21.116  0.00  0.00    +0.000 A 
ATOM     10  C   UNL     1       1.550   6.295  20.977  0.00  0.00    +0.000 A 
ATOM     11  C   UNL     1       1.970   7.033  19.842  0.00  0.00    +0.000 A 
ATOM     12  C   UNL     1       1.734   8.384  19.456  0.00  0.00    +0.000 A 
ATOM     13  C   UNL     1       2.397   8.932  18.327  0.00  0.00    +0.000 A 
ATOM     14  C   UNL     1       3.274   8.164  17.528  0.00  0.00    +0.000 A 
ATOM     15  C   UNL     1       3.412   6.830  17.881  0.00  0.00    +0.000 A 
ATOM     16  C   UNL     1       2.764   6.319  18.986  0.00  0.00    +0.000 A 
BRANCH   4  18
ATOM     17  C   UNL     1       6.455   6.212  16.563  0.00  0.00    +0.000 C 
ATOM     18  C   UNL     1       5.028   5.865  16.167  0.00  0.00    +0.000 C 
ENDBRANCH   4  18
ENDBRANCH   1  12
BRANCH   1  19
ATOM     19  N   UNL     1       0.531  10.923  19.552  0.00  0.00    +0.000 N 
ATOM     20  C   UNL     1       0.986  12.174  20.091  0.00  0.00    +0.000 C 
ATOM     21  C   UNL     1       0.816  13.418  19.235  0.00  0.00    +0.000 C 
ATOM     22  O   UNL     1       1.576  12.256  21.163  0.00  0.00    +0.000 OA
BRANCH  19  23
ATOM     23  C   UNL     1      -0.745  10.977  18.863  0.00  0.00    +0.000 A 
ATOM     24  C   UNL     1      -1.847  11.646  19.410  0.00  0.00    +0.000 A 
ATOM     25  C   UNL     1      -3.101  11.559  18.795  0.00  0.00    +0.000 A 
ATOM     26  C   UNL     1      -3.266  10.762  17.662  0.00  0.00    +0.000 A 
ATOM     27  C   UNL     1      -2.191  10.054  17.137  0.00  0.00    +0.000 A 
ATOM     28  C   UNL     1      -0.929  10.193  17.718  0.00  0.00    +0.000 A 
BRANCH  26  29
ATOM     29  O   UNL     1      -4.580  10.669  17.159  0.00  0.00    +0.000 OA
BRANCH  29  30
ATOM     30  C   UNL     1      -5.583  11.560  17.533  0.00  0.00    +0.000 C 
ATOM     31  C   UNL     1      -6.523  10.885  18.486  0.00  0.00    +0.000 C 
ATOM     32  O   UNL     1      -5.681  12.735  17.208  0.00  0.00    +0.000 OA
ENDBRANCH  29  30
ENDBRANCH  26  29
ENDBRANCH  19  23
ENDBRANCH   1  19
TORSDOF 6
ENDMDL
MODEL 3
REMARK VINA RESULT:      -7.3      3.042      9.321
REMARK  Name = 
REMARK  9 active torsions:
REMARK  status: ('A' for Active; 'I' for Inactive)
REMARK    1  A    between atoms: C_1  and  C_2
REMARK    2  A    between atoms: C_2  and  N_3
REMARK    3  A    between atoms: C_11  and  S_12
REMARK    4  A    between atoms: S_12  and  N_15
REMARK    5  A    between atoms: N_15  and  C_19
REMARK    6  A    between atoms: C_16  and  C_17
REMARK    7  A    between atoms: C_22  and  O_23
REMARK    8  A    between atoms: O_23  and  C_24
REMARK    9  A    between atoms: C_24  and  C_25
REMARK                            x       y       z     vdW  Elec       q    Type
REMARK                         _______ _______ _______ _____ _____    ______ ____
ROOT
ATOM      1  S   UNL     1      -1.503  11.176  18.502  0.00  0.00    +0.000 S 
ATOM      2  O   UNL     1      -1.798   9.751  18.515  0.00  0.00    +0.000 OA
ATOM      3  O   UNL     1      -1.561  11.906  17.248  0.00  0.00    +0.000 OA
ENDROOT
BRANCH   1  12
ATOM      4  N   UNL     1      -5.596  13.622  22.039  0.00  0.00    +0.000 N 
ATOM      5  C   UNL     1      -6.780  13.329  21.320  0.00  0.00    +0.000 C 
ATOM      6  O   UNL     1      -7.916  13.635  21.649  0.00  0.00    +0.000 OA
ATOM      7  C   UNL     1      -6.275  12.624  20.160  0.00  0.00    +0.000 A 
ATOM      8  C   UNL     1      -6.963  12.104  19.069  0.00  0.00    +0.000 A 
ATOM      9  C   UNL     1      -6.186  11.576  18.032  0.00  0.00    +0.000 A 
ATOM     10  C   UNL     1      -4.780  11.516  18.122  0.00  0.00    +0.000 A 
ATOM     11  C   UNL     1      -4.086  11.941  19.284  0.00  0.00    +0.000 A 
ATOM     12  C   UNL     1      -2.703  11.895  19.624  0.00  0.00    +0.000 A 
ATOM     13  C   UNL     1      -2.237  12.527  20.807  0.00  0.00    +0.000 A 
ATOM     14  C   UNL     1      -3.113  13.184  21.700  0.00  0.00    +0.000 A 
ATOM     15  C   UNL     1      -4.460  13.133  21.382  0.00  0.00    +0.000 A 
ATOM     16  C   UNL     1      -4.893  12.520  20.225  0.00  0.00    +0.000 A 
BRANCH   4  18
ATOM     17  C   UNL     1      -5.455  15.886  23.012  0.00  0.00    +0.000 C 
ATOM     18  C   UNL     1      -5.623  14.394  23.263  0.00  0.00    +0.000 C 
ENDBRANCH   4  18
ENDBRANCH   1  12
BRANCH   1  19
ATOM     19  N   UNL     1       0.044  11.454  19.227  0.00  0.00    +0.000 N 
ATOM     20  C   UNL     1       0.763  12.665  18.946  0.00  0.00    +0.000 C 
ATOM     21  C   UNL     1       2.105  12.868  19.628  0.00  0.00    +0.000 C 
ATOM     22  O   UNL     1       0.296  13.565  18.254  0.00  0.00    +0.000 OA
BRANCH  19  23
ATOM     23  C   UNL     1       0.856  10.252  19.267  0.00  0.00    +0.000 A 
ATOM     24  C   UNL     1       1.502   9.763  18.124  0.00  0.00    +0.000 A 
ATOM     25  C   UNL     1       2.157   8.527  18.158  0.00  0.00    +0.000 A 
ATOM     26  C   UNL     1       2.124   7.755  19.319  0.00  0.00    +0.000 A 
ATOM     27  C   UNL     1       1.446   8.206  20.446  0.00  0.00    +0.000 A 
ATOM     28  C   UNL     1       0.847   9.467  20.426  0.00  0.00    +0.000 A 
BRANCH  26  29
ATOM     29  O   UNL     1       2.740   6.488  19.237  0.00  0.00    +0.000 OA
BRANCH  29  30
ATOM     30  C   UNL     1       2.626   5.681  18.107  0.00  0.00    +0.000 C 
ATOM     31  C   UNL     1       3.953   5.602  17.413  0.00  0.00    +0.000 C 
ATOM     32  O   UNL     1       1.635   5.065  17.740  0.00  0.00    +0.000 OA
ENDBRANCH  29  30
ENDBRANCH  26  29
ENDBRANCH  19  23
ENDBRANCH   1  19
TORSDOF 6
ENDMDL
MODEL 4
REMARK VINA RESULT:      -7.3      3.172      9.008
REMARK  Name = 
REMARK  9 active torsions:
REMARK  status: ('A' for Active; 'I' for Inactive)
REMARK    1  A    between atoms: C_1  and  C_2
REMARK    2  A    between atoms: C_2  and  N_3
REMARK    3  A    between atoms: C_11  and  S_12
REMARK    4  A    between atoms: S_12  and  N_15
REMARK    5  A    between atoms: N_15  and  C_19
REMARK    6  A    between atoms: C_16  and  C_17
REMARK    7  A    between atoms: C_22  and  O_23
REMARK    8  A    between atoms: O_23  and  C_24
REMARK    9  A    between atoms: C_24  and  C_25
REMARK                            x       y       z     vdW  Elec       q    Type
REMARK                         _______ _______ _______ _____ _____    ______ ____
ROOT
ATOM      1  S   UNL     1       0.317  11.803  20.674  0.00  0.00    +0.000 S 
ATOM      2  O   UNL     1       1.681  11.707  21.174  0.00  0.00    +0.000 OA
ATOM      3  O   UNL     1      -0.792  11.489  21.557  0.00  0.00    +0.000 OA
ENDROOT
BRANCH   1  12
ATOM      4  N   UNL     1      -0.014  17.477  18.958  0.00  0.00    +0.000 N 
ATOM      5  C   UNL     1       1.179  17.597  18.204  0.00  0.00    +0.000 C 
ATOM      6  O   UNL     1       1.569  18.604  17.632  0.00  0.00    +0.000 OA
ATOM      7  C   UNL     1       1.756  16.274  18.317  0.00  0.00    +0.000 A 
ATOM      8  C   UNL     1       2.952  15.781  17.807  0.00  0.00    +0.000 A 
ATOM      9  C   UNL     1       3.307  14.482  18.186  0.00  0.00    +0.000 A 
ATOM     10  C   UNL     1       2.461  13.693  18.990  0.00  0.00    +0.000 A 
ATOM     11  C   UNL     1       1.189  14.154  19.416  0.00  0.00    +0.000 A 
ATOM     12  C   UNL     1       0.150  13.509  20.148  0.00  0.00    +0.000 A 
ATOM     13  C   UNL     1      -0.985  14.247  20.578  0.00  0.00    +0.000 A 
ATOM     14  C   UNL     1      -1.148  15.617  20.272  0.00  0.00    +0.000 A 
ATOM     15  C   UNL     1      -0.161  16.188  19.485  0.00  0.00    +0.000 A 
ATOM     16  C   UNL     1       0.937  15.456  19.082  0.00  0.00    +0.000 A 
BRANCH   4  18
ATOM     17  C   UNL     1      -2.063  18.627  18.200  0.00  0.00    +0.000 C 
ATOM     18  C   UNL     1      -0.893  18.606  19.174  0.00  0.00    +0.000 C 
ENDBRANCH   4  18
ENDBRANCH   1  12
BRANCH   1  19
ATOM     19  N   UNL     1       0.160  10.851  19.236  0.00  0.00    +0.000 N 
ATOM     20  C   UNL     1      -1.136  10.635  18.656  0.00  0.00    +0.000 C 
ATOM     21  C   UNL     1      -1.214   9.812  17.381  0.00  0.00    +0.000 C 
ATOM     22  O   UNL     1      -2.154  11.157  19.099  0.00  0.00    +0.000 OA
BRANCH  19  23
ATOM     23  C   UNL     1       1.030   9.690  19.248  0.00  0.00    +0.000 A 
ATOM     24  C   UNL     1       1.817   9.350  18.140  0.00  0.00    +0.000 A 
ATOM     25  C   UNL     1       2.534   8.148  18.126  0.00  0.00    +0.000 A 
ATOM     26  C   UNL     1       2.427   7.262  19.198  0.00  0.00    +0.000 A 
ATOM     27  C   UNL     1       1.612   7.566  20.284  0.00  0.00    +0.000 A 
ATOM     28  C   UNL     1       0.948   8.793  20.319  0.00  0.00    +0.000 A 
BRANCH  26  29
ATOM     29  O   UNL     1       3.119   6.041  19.062  0.00  0.00    +0.000 OA
BRANCH  29  30
ATOM     30  C   UNL     1       2.472   4.859  18.708  0.00  0.00    +0.000 C 
ATOM     31  C   UNL     1       2.875   3.766  19.653  0.00  0.00    +0.000 C 
ATOM     32  O   UNL     1       1.652   4.708  17.814  0.00  0.00    +0.000 OA
ENDBRANCH  29  30
ENDBRANCH  26  29
ENDBRANCH  19  23
ENDBRANCH   1  19
TORSDOF 6
ENDMDL
MODEL 5
REMARK VINA RESULT:      -7.2      3.058      9.493
REMARK  Name = 
REMARK  9 active torsions:
REMARK  status: ('A' for Active; 'I' for Inactive)
REMARK    1  A    between atoms: C_1  and  C_2
REMARK    2  A    between atoms: C_2  and  N_3
REMARK    3  A    between atoms: C_11  and  S_12
REMARK    4  A    between atoms: S_12  and  N_15
REMARK    5  A    between atoms: N_15  and  C_19
REMARK    6  A    between atoms: C_16  and  C_17
REMARK    7  A    between atoms: C_22  and  O_23
REMARK    8  A    between atoms: O_23  and  C_24
REMARK    9  A    between atoms: C_24  and  C_25
REMARK                            x       y       z     vdW  Elec       q    Type
REMARK                         _______ _______ _______ _____ _____    ______ ____
ROOT
ATOM      1  S   UNL     1      -1.688  11.196  18.374  0.00  0.00    +0.000 S 
ATOM      2  O   UNL     1      -2.175   9.826  18.463  0.00  0.00    +0.000 OA
ATOM      3  O   UNL     1      -1.599  11.840  17.076  0.00  0.00    +0.000 OA
ENDROOT
BRANCH   1  12
ATOM      4  N   UNL     1      -5.574  14.352  21.566  0.00  0.00    +0.000 N 
ATOM      5  C   UNL     1      -6.799  13.900  21.018  0.00  0.00    +0.000 C 
ATOM      6  O   UNL     1      -7.916  14.266  21.353  0.00  0.00    +0.000 OA
ATOM      7  C   UNL     1      -6.362  12.955  20.011  0.00  0.00    +0.000 A 
ATOM      8  C   UNL     1      -7.114  12.200  19.117  0.00  0.00    +0.000 A 
ATOM      9  C   UNL     1      -6.400  11.458  18.170  0.00  0.00    +0.000 A 
ATOM     10  C   UNL     1      -4.991  11.426  18.169  0.00  0.00    +0.000 A 
ATOM     11  C   UNL     1      -4.226  12.104  19.152  0.00  0.00    +0.000 A 
ATOM     12  C   UNL     1      -2.822  12.142  19.392  0.00  0.00    +0.000 A 
ATOM     13  C   UNL     1      -2.287  13.025  20.367  0.00  0.00    +0.000 A 
ATOM     14  C   UNL     1      -3.112  13.862  21.153  0.00  0.00    +0.000 A 
ATOM     15  C   UNL     1      -4.477  13.734  20.953  0.00  0.00    +0.000 A 
ATOM     16  C   UNL     1      -4.977  12.875  19.997  0.00  0.00    +0.000 A 
BRANCH   4  18
ATOM     17  C   UNL     1      -5.592  14.805  23.992  0.00  0.00    +0.000 C 
ATOM     18  C   UNL     1      -5.532  15.379  22.584  0.00  0.00    +0.000 C 
ENDBRANCH   4  18
ENDBRANCH   1  12
BRANCH   1  19
ATOM     19  N   UNL     1      -0.147  11.314  19.153  0.00  0.00    +0.000 N 
ATOM     20  C   UNL     1       0.707  12.438  18.888  0.00  0.00    +0.000 C 
ATOM     21  C   UNL     1       2.039  12.504  19.617  0.00  0.00    +0.000 C 
ATOM     22  O   UNL     1       0.364  13.375  18.173  0.00  0.00    +0.000 OA
BRANCH  19  23
ATOM     23  C   UNL     1       0.530  10.033  19.230  0.00  0.00    +0.000 A 
ATOM     24  C   UNL     1       0.670   9.348  20.444  0.00  0.00    +0.000 A 
ATOM     25  C   UNL     1       1.450   8.188  20.514  0.00  0.00    +0.000 A 
ATOM     26  C   UNL     1       2.132   7.740  19.383  0.00  0.00    +0.000 A 
ATOM     27  C   UNL     1       2.039   8.437  18.183  0.00  0.00    +0.000 A 
ATOM     28  C   UNL     1       1.211   9.558  18.104  0.00  0.00    +0.000 A 
BRANCH  26  29
ATOM     29  O   UNL     1       2.958   6.612  19.566  0.00  0.00    +0.000 OA
BRANCH  29  30
ATOM     30  C   UNL     1       2.499   5.314  19.354  0.00  0.00    +0.000 C 
ATOM     31  C   UNL     1       2.064   4.719  20.660  0.00  0.00    +0.000 C 
ATOM     32  O   UNL     1       2.391   4.738  18.281  0.00  0.00    +0.000 OA
ENDBRANCH  29  30
ENDBRANCH  26  29
ENDBRANCH  19  23
ENDBRANCH   1  19
TORSDOF 6
ENDMDL
MODEL 6
REMARK VINA RESULT:      -7.2      2.702      5.347
REMARK  Name = 
REMARK  9 active torsions:
REMARK  status: ('A' for Active; 'I' for Inactive)
REMARK    1  A    between atoms: C_1  and  C_2
REMARK    2  A    between atoms: C_2  and  N_3
REMARK    3  A    between atoms: C_11  and  S_12
REMARK    4  A    between atoms: S_12  and  N_15
REMARK    5  A    between atoms: N_15  and  C_19
REMARK    6  A    between atoms: C_16  and  C_17
REMARK    7  A    between atoms: C_22  and  O_23
REMARK    8  A    between atoms: O_23  and  C_24
REMARK    9  A    between atoms: C_24  and  C_25
REMARK                            x       y       z     vdW  Elec       q    Type
REMARK                         _______ _______ _______ _____ _____    ______ ____
ROOT
ATOM      1  S   UNL     1       1.282  10.102  18.497  0.00  0.00    +0.000 S 
ATOM      2  O   UNL     1       2.548  10.673  18.059  0.00  0.00    +0.000 OA
ATOM      3  O   UNL     1       0.216   9.900  17.531  0.00  0.00    +0.000 OA
ENDROOT
BRANCH   1  12
ATOM      4  N   UNL     1       2.762   4.739  20.570  0.00  0.00    +0.000 N 
ATOM      5  C   UNL     1       3.736   4.346  19.620  0.00  0.00    +0.000 C 
ATOM      6  O   UNL     1       4.351   3.289  19.616  0.00  0.00    +0.000 OA
ATOM      7  C   UNL     1       3.772   5.480  18.720  0.00  0.00    +0.000 A 
ATOM      8  C   UNL     1       4.523   5.673  17.566  0.00  0.00    +0.000 A 
ATOM      9  C   UNL     1       4.253   6.831  16.829  0.00  0.00    +0.000 A 
ATOM     10  C   UNL     1       3.315   7.784  17.273  0.00  0.00    +0.000 A 
ATOM     11  C   UNL     1       2.633   7.643  18.509  0.00  0.00    +0.000 A 
ATOM     12  C   UNL     1       1.723   8.506  19.186  0.00  0.00    +0.000 A 
ATOM     13  C   UNL     1       1.057   8.063  20.359  0.00  0.00    +0.000 A 
ATOM     14  C   UNL     1       1.292   6.787  20.918  0.00  0.00    +0.000 A 
ATOM     15  C   UNL     1       2.247   6.009  20.282  0.00  0.00    +0.000 A 
ATOM     16  C   UNL     1       2.879   6.454  19.140  0.00  0.00    +0.000 A 
BRANCH   4  18
ATOM     17  C   UNL     1       1.281   2.869  21.202  0.00  0.00    +0.000 C 
ATOM     18  C   UNL     1       2.348   3.860  21.642  0.00  0.00    +0.000 C 
ENDBRANCH   4  18
ENDBRANCH   1  12
BRANCH   1  19
ATOM     19  N   UNL     1       0.656  11.028  19.819  0.00  0.00    +0.000 N 
ATOM     20  C   UNL     1      -0.711  10.865  20.227  0.00  0.00    +0.000 C 
ATOM     21  C   UNL     1      -1.202  11.685  21.408  0.00  0.00    +0.000 C 
ATOM     22  O   UNL     1      -1.458  10.034  19.718  0.00  0.00    +0.000 OA
BRANCH  19  23
ATOM     23  C   UNL     1       1.134  12.398  19.805  0.00  0.00    +0.000 A 
ATOM     24  C   UNL     1       0.780  13.290  18.784  0.00  0.00    +0.000 A 
ATOM     25  C   UNL     1       1.371  14.557  18.719  0.00  0.00    +0.000 A 
ATOM     26  C   UNL     1       2.352  14.916  19.642  0.00  0.00    +0.000 A 
ATOM     27  C   UNL     1       2.747  14.022  20.632  0.00  0.00    +0.000 A 
ATOM     28  C   UNL     1       2.111  12.783  20.730  0.00  0.00    +0.000 A 
BRANCH  26  29
ATOM     29  O   UNL     1       2.950  16.178  19.451  0.00  0.00    +0.000 OA
BRANCH  29  30
ATOM     30  C   UNL     1       3.551  16.538  18.246  0.00  0.00    +0.000 C 
ATOM     31  C   UNL     1       4.794  15.724  18.045  0.00  0.00    +0.000 C 
ATOM     32  O   UNL     1       3.130  17.341  17.425  0.00  0.00    +0.000 OA
ENDBRANCH  29  30
ENDBRANCH  26  29
ENDBRANCH  19  23
ENDBRANCH   1  19
TORSDOF 6
ENDMDL
MODEL 7
REMARK VINA RESULT:      -7.1      2.879      5.102
REMARK  Name = 
REMARK  9 active torsions:
REMARK  status: ('A' for Active; 'I' for Inactive)
REMARK    1  A    between atoms: C_1  and  C_2
REMARK    2  A    between atoms: C_2  and  N_3
REMARK    3  A    between atoms: C_11  and  S_12
REMARK    4  A    between atoms: S_12  and  N_15
REMARK    5  A    between atoms: N_15  and  C_19
REMARK    6  A    between atoms: C_16  and  C_17
REMARK    7  A    between atoms: C_22  and  O_23
REMARK    8  A    between atoms: O_23  and  C_24
REMARK    9  A    between atoms: C_24  and  C_25
REMARK                            x       y       z     vdW  Elec       q    Type
REMARK                         _______ _______ _______ _____ _____    ______ ____
ROOT
ATOM      1  S   UNL     1       1.245  10.004  18.575  0.00  0.00    +0.000 S 
ATOM      2  O   UNL     1       2.450  10.509  17.932  0.00  0.00    +0.000 OA
ATOM      3  O   UNL     1       0.037   9.829  17.790  0.00  0.00    +0.000 OA
ENDROOT
BRANCH   1  12
ATOM      4  N   UNL     1       2.847   4.636  20.542  0.00  0.00    +0.000 N 
ATOM      5  C   UNL     1       3.816   4.276  19.575  0.00  0.00    +0.000 C 
ATOM      6  O   UNL     1       4.450   3.231  19.546  0.00  0.00    +0.000 OA
ATOM      7  C   UNL     1       3.822   5.425  18.693  0.00  0.00    +0.000 A 
ATOM      8  C   UNL     1       4.556   5.651  17.534  0.00  0.00    +0.000 A 
ATOM      9  C   UNL     1       4.257   6.816  16.820  0.00  0.00    +0.000 A 
ATOM     10  C   UNL     1       3.306   7.744  17.291  0.00  0.00    +0.000 A 
ATOM     11  C   UNL     1       2.641   7.571  18.531  0.00  0.00    +0.000 A 
ATOM     12  C   UNL     1       1.723   8.405  19.233  0.00  0.00    +0.000 A 
ATOM     13  C   UNL     1       1.079   7.931  20.406  0.00  0.00    +0.000 A 
ATOM     14  C   UNL     1       1.343   6.650  20.940  0.00  0.00    +0.000 A 
ATOM     15  C   UNL     1       2.305   5.900  20.281  0.00  0.00    +0.000 A 
ATOM     16  C   UNL     1       2.916   6.376  19.139  0.00  0.00    +0.000 A 
BRANCH   4  18
ATOM     17  C   UNL     1       1.263   2.871  21.228  0.00  0.00    +0.000 C 
ATOM     18  C   UNL     1       2.461   3.731  21.603  0.00  0.00    +0.000 C 
ENDBRANCH   4  18
ENDBRANCH   1  12
BRANCH   1  19
ATOM     19  N   UNL     1       0.869  10.985  19.951  0.00  0.00    +0.000 N 
ATOM     20  C   UNL     1      -0.361  10.780  20.664  0.00  0.00    +0.000 C 
ATOM     21  C   UNL     1      -0.630  11.652  21.878  0.00  0.00    +0.000 C 
ATOM     22  O   UNL     1      -1.146   9.880  20.382  0.00  0.00    +0.000 OA
BRANCH  19  23
ATOM     23  C   UNL     1       1.243  12.373  19.755  0.00  0.00    +0.000 A 
ATOM     24  C   UNL     1       2.280  12.965  20.488  0.00  0.00    +0.000 A 
ATOM     25  C   UNL     1       2.522  14.339  20.382  0.00  0.00    +0.000 A 
ATOM     26  C   UNL     1       1.698  15.132  19.584  0.00  0.00    +0.000 A 
ATOM     27  C   UNL     1       0.635  14.564  18.888  0.00  0.00    +0.000 A 
ATOM     28  C   UNL     1       0.436  13.184  18.949  0.00  0.00    +0.000 A 
BRANCH  26  29
ATOM     29  O   UNL     1       1.965  16.516  19.603  0.00  0.00    +0.000 OA
BRANCH  29  30
ATOM     30  C   UNL     1       2.131  17.254  18.433  0.00  0.00    +0.000 C 
ATOM     31  C   UNL     1       3.207  16.629  17.595  0.00  0.00    +0.000 C 
ATOM     32  O   UNL     1       1.481  18.227  18.078  0.00  0.00    +0.000 OA
ENDBRANCH  29  30
ENDBRANCH  26  29
ENDBRANCH  19  23
ENDBRANCH   1  19
TORSDOF 6
ENDMDL
MODEL 8
REMARK VINA RESULT:      -7.1      2.572      8.686
REMARK  Name = 
REMARK  9 active torsions:
REMARK  status: ('A' for Active; 'I' for Inactive)
REMARK    1  A    between atoms: C_1  and  C_2
REMARK    2  A    between atoms: C_2  and  N_3
REMARK    3  A    between atoms: C_11  and  S_12
REMARK    4  A    between atoms: S_12  and  N_15
REMARK    5  A    between atoms: N_15  and  C_19
REMARK    6  A    between atoms: C_16  and  C_17
REMARK    7  A    between atoms: C_22  and  O_23
REMARK    8  A    between atoms: O_23  and  C_24
REMARK    9  A    between atoms: C_24  and  C_25
REMARK                            x       y       z     vdW  Elec       q    Type
REMARK                         _______ _______ _______ _____ _____    ______ ____
ROOT
ATOM      1  S   UNL     1       2.620   6.415  19.802  0.00  0.00    +0.000 S 
ATOM      2  O   UNL     1       3.982   6.864  20.057  0.00  0.00    +0.000 OA
ATOM      3  O   UNL     1       1.911   5.667  20.825  0.00  0.00    +0.000 OA
ENDROOT
BRANCH   1  12
ATOM      4  N   UNL     1      -0.549  11.352  18.885  0.00  0.00    +0.000 N 
ATOM      5  C   UNL     1      -0.858  11.721  20.217  0.00  0.00    +0.000 C 
ATOM      6  O   UNL     1      -1.512  12.695  20.560  0.00  0.00    +0.000 OA
ATOM      7  C   UNL     1      -0.226  10.671  20.988  0.00  0.00    +0.000 A 
ATOM      8  C   UNL     1      -0.205  10.471  22.365  0.00  0.00    +0.000 A 
ATOM      9  C   UNL     1       0.391   9.289  22.817  0.00  0.00    +0.000 A 
ATOM     10  C   UNL     1       0.997   8.381  21.924  0.00  0.00    +0.000 A 
ATOM     11  C   UNL     1       1.077   8.641  20.532  0.00  0.00    +0.000 A 
ATOM     12  C   UNL     1       1.704   7.922  19.474  0.00  0.00    +0.000 A 
ATOM     13  C   UNL     1       1.513   8.323  18.125  0.00  0.00    +0.000 A 
ATOM     14  C   UNL     1       0.737   9.453  17.782  0.00  0.00    +0.000 A 
ATOM     15  C   UNL     1       0.214  10.179  18.841  0.00  0.00    +0.000 A 
ATOM     16  C   UNL     1       0.406   9.770  20.145  0.00  0.00    +0.000 A 
BRANCH   4  18
ATOM     17  C   UNL     1      -2.336  11.517  17.191  0.00  0.00    +0.000 C 
ATOM     18  C   UNL     1      -1.049  12.102  17.754  0.00  0.00    +0.000 C 
ENDBRANCH   4  18
ENDBRANCH   1  12
BRANCH   1  19
ATOM     19  N   UNL     1       2.576   5.508  18.329  0.00  0.00    +0.000 N 
ATOM     20  C   UNL     1       1.800   4.301  18.251  0.00  0.00    +0.000 C 
ATOM     21  C   UNL     1       1.777   3.557  16.927  0.00  0.00    +0.000 C 
ATOM     22  O   UNL     1       1.098   3.907  19.177  0.00  0.00    +0.000 OA
BRANCH  19  23
ATOM     23  C   UNL     1       3.872   5.449  17.680  0.00  0.00    +0.000 A 
ATOM     24  C   UNL     1       4.259   6.395  16.723  0.00  0.00    +0.000 A 
ATOM     25  C   UNL     1       5.453   6.231  16.011  0.00  0.00    +0.000 A 
ATOM     26  C   UNL     1       6.236   5.096  16.219  0.00  0.00    +0.000 A 
ATOM     27  C   UNL     1       5.839   4.125  17.132  0.00  0.00    +0.000 A 
ATOM     28  C   UNL     1       4.679   4.324  17.883  0.00  0.00    +0.000 A 
BRANCH  26  29
ATOM     29  O   UNL     1       7.377   4.973  15.399  0.00  0.00    +0.000 OA
BRANCH  29  30
ATOM     30  C   UNL     1       7.290   4.927  14.010  0.00  0.00    +0.000 C 
ATOM     31  C   UNL     1       6.265   3.909  13.606  0.00  0.00    +0.000 C 
ATOM     32  O   UNL     1       7.891   5.631  13.211  0.00  0.00    +0.000 OA
ENDBRANCH  29  30
ENDBRANCH  26  29
ENDBRANCH  19  23
ENDBRANCH   1  19
TORSDOF 6
ENDMDL
MODEL 9
REMARK VINA RESULT:      -7.1      2.062      8.652
REMARK  Name = 
REMARK  9 active torsions:
REMARK  status: ('A' for Active; 'I' for Inactive)
REMARK    1  A    between atoms: C_1  and  C_2
REMARK    2  A    between atoms: C_2  and  N_3
REMARK    3  A    between atoms: C_11  and  S_12
REMARK    4  A    between atoms: S_12  and  N_15
REMARK    5  A    between atoms: N_15  and  C_19
REMARK    6  A    between atoms: C_16  and  C_17
REMARK    7  A    between atoms: C_22  and  O_23
REMARK    8  A    between atoms: O_23  and  C_24
REMARK    9  A    between atoms: C_24  and  C_25
REMARK                            x       y       z     vdW  Elec       q    Type
REMARK                         _______ _______ _______ _____ _____    ______ ____
ROOT
ATOM      1  S   UNL     1       0.469  10.386  18.845  0.00  0.00    +0.000 S 
ATOM      2  O   UNL     1       0.420   9.498  17.692  0.00  0.00    +0.000 OA
ATOM      3  O   UNL     1       1.388  11.509  18.844  0.00  0.00    +0.000 OA
ENDROOT
BRANCH   1  12
ATOM      4  N   UNL     1      -5.053  12.552  19.102  0.00  0.00    +0.000 N 
ATOM      5  C   UNL     1      -5.578  12.090  17.870  0.00  0.00    +0.000 C 
ATOM      6  O   UNL     1      -6.710  12.285  17.452  0.00  0.00    +0.000 OA
ATOM      7  C   UNL     1      -4.453  11.383  17.295  0.00  0.00    +0.000 A 
ATOM      8  C   UNL     1      -4.346  10.731  16.071  0.00  0.00    +0.000 A 
ATOM      9  C   UNL     1      -3.081  10.237  15.733  0.00  0.00    +0.000 A 
ATOM     10  C   UNL     1      -1.990  10.338  16.619  0.00  0.00    +0.000 A 
ATOM     11  C   UNL     1      -2.127  10.900  17.914  0.00  0.00    +0.000 A 
ATOM     12  C   UNL     1      -1.200  11.027  18.989  0.00  0.00    +0.000 A 
ATOM     13  C   UNL     1      -1.546  11.770  20.148  0.00  0.00    +0.000 A 
ATOM     14  C   UNL     1      -2.815  12.374  20.300  0.00  0.00    +0.000 A 
ATOM     15  C   UNL     1      -3.721  12.157  19.273  0.00  0.00    +0.000 A 
ATOM     16  C   UNL     1      -3.363  11.437  18.152  0.00  0.00    +0.000 A 
BRANCH   4  18
ATOM     17  C   UNL     1      -6.501  12.579  21.100  0.00  0.00    +0.000 C 
ATOM     18  C   UNL     1      -5.832  13.382  19.995  0.00  0.00    +0.000 C 
ENDBRANCH   4  18
ENDBRANCH   1  12
BRANCH   1  19
ATOM     19  N   UNL     1       0.741   9.456  20.280  0.00  0.00    +0.000 N 
ATOM     20  C   UNL     1       1.083  10.115  21.509  0.00  0.00    +0.000 C 
ATOM     21  C   UNL     1       1.287   9.253  22.743  0.00  0.00    +0.000 C 
ATOM     22  O   UNL     1       1.129  11.337  21.613  0.00  0.00    +0.000 OA
BRANCH  19  23
ATOM     23  C   UNL     1       1.475   8.233  20.011  0.00  0.00    +0.000 A 
ATOM     24  C   UNL     1       2.301   8.104  18.887  0.00  0.00    +0.000 A 
ATOM     25  C   UNL     1       2.881   6.869  18.577  0.00  0.00    +0.000 A 
ATOM     26  C   UNL     1       2.596   5.751  19.360  0.00  0.00    +0.000 A 
ATOM     27  C   UNL     1       1.740   5.855  20.451  0.00  0.00    +0.000 A 
ATOM     28  C   UNL     1       1.213   7.102  20.792  0.00  0.00    +0.000 A 
BRANCH  26  29
ATOM     29  O   UNL     1       3.158   4.532  18.925  0.00  0.00    +0.000 OA
BRANCH  29  30
ATOM     30  C   UNL     1       2.849   3.974  17.687  0.00  0.00    +0.000 C 
ATOM     31  C   UNL     1       4.114   3.732  16.917  0.00  0.00    +0.000 C 
ATOM     32  O   UNL     1       1.741   3.657  17.278  0.00  0.00    +0.000 OA
ENDBRANCH  29  30
ENDBRANCH  26  29
ENDBRANCH  19  23
ENDBRANCH   1  19
TORSDOF 6
ENDMDL
