MODEL 1
REMARK VINA RESULT:      -9.4      0.000      0.000
REMARK  Name = 
REMARK  5 active torsions:
REMARK  status: ('A' for Active; 'I' for Inactive)
REMARK    1  A    between atoms: C_1  and  O_2
REMARK    2  A    between atoms: O_2  and  C_3
REMARK    3  A    between atoms: C_6  and  C_7
REMARK    4  A    between atoms: C_9  and  C_10
REMARK    5  A    between atoms: C_17  and  N_18
REMARK                            x       y       z     vdW  Elec       q    Type
REMARK                         _______ _______ _______ _____ _____    ______ ____
ROOT
ATOM      1  C   UNL     1       1.692   7.409  20.290  0.00  0.00    +0.000 A 
ATOM      2  C   UNL     1       1.428   6.219  20.968  0.00  0.00    +0.000 A 
ATOM      3  C   UNL     1       1.962   5.020  20.504  0.00  0.00    +0.000 A 
ATOM      4  C   UNL     1       2.772   5.120  19.372  0.00  0.00    +0.000 A 
ATOM      5  N   UNL     1       3.395   4.154  18.617  0.00  0.00    +0.000 N 
ATOM      6  C   UNL     1       4.099   4.719  17.582  0.00  0.00    +0.000 A 
ATOM      7  C   UNL     1       4.838   4.116  16.555  0.00  0.00    +0.000 A 
ATOM      8  C   UNL     1       5.551   4.918  15.647  0.00  0.00    +0.000 A 
ATOM      9  C   UNL     1       5.490   6.307  15.813  0.00  0.00    +0.000 A 
ATOM     10  C   UNL     1       4.698   6.911  16.809  0.00  0.00    +0.000 A 
ATOM     11  C   UNL     1       3.978   6.103  17.710  0.00  0.00    +0.000 A 
ATOM     12  C   UNL     1       3.072   6.346  18.790  0.00  0.00    +0.000 A 
ATOM     13  N   UNL     1       2.541   7.511  19.239  0.00  0.00    +0.000 NA
ATOM     14  H   UNL     1       3.325   3.162  18.814  0.00  0.00    +0.000 HD
ENDROOT
BRANCH   1  18
ATOM     15  C   UNL     1      -0.310  11.033  21.497  0.00  0.00    +0.000 A 
ATOM     16  C   UNL     1       0.131  10.877  20.179  0.00  0.00    +0.000 A 
ATOM     17  C   UNL     1       0.769   9.695  19.775  0.00  0.00    +0.000 A 
ATOM     18  C   UNL     1       0.990   8.648  20.682  0.00  0.00    +0.000 A 
ATOM     19  C   UNL     1       0.512   8.809  21.991  0.00  0.00    +0.000 A 
ATOM     20  C   UNL     1      -0.110   9.984  22.390  0.00  0.00    +0.000 A 
ATOM     21  F   UNL     1      -0.524  10.051  23.663  0.00  0.00    +0.000 F 
BRANCH  15  23
ATOM     22  C   UNL     1      -1.840  12.697  20.770  0.00  0.00    +0.000 C 
ATOM     23  O   UNL     1      -0.937  12.218  21.764  0.00  0.00    +0.000 OA
ENDBRANCH  15  23
ENDBRANCH   1  18
BRANCH   8  24
ATOM     24  N   UNL     1       6.284   4.333  14.637  0.00  0.00    +0.000 N 
ATOM     25  C   UNL     1       7.568   4.859  14.167  0.00  0.00    +0.000 C 
ATOM     26  C   UNL     1       7.502   5.166  12.664  0.00  0.00    +0.000 C 
ATOM     27  O   UNL     1       7.045   4.031  11.908  0.00  0.00    +0.000 OA
ATOM     28  C   UNL     1       5.734   3.636  12.348  0.00  0.00    +0.000 C 
ATOM     29  C   UNL     1       5.733   3.233  13.832  0.00  0.00    +0.000 C 
ENDBRANCH   8  24
BRANCH   3  30
ATOM     30  C   UNL     1       1.672   3.707  21.115  0.00  0.00    +0.000 C 
ATOM     31  N   UNL     1       0.683   2.931  20.591  0.00  0.00    +0.000 N 
ATOM     32  O   UNL     1       2.324   3.312  22.089  0.00  0.00    +0.000 OA
ATOM     33  H   UNL     1       0.109   3.170  19.795  0.00  0.00    +0.000 HD
ATOM     34  H   UNL     1       0.517   2.033  21.027  0.00  0.00    +0.000 HD
ENDBRANCH   3  30
TORSDOF 4
ENDMDL
MODEL 2
REMARK VINA RESULT:      -9.4      0.960      1.289
REMARK  Name = 
REMARK  5 active torsions:
REMARK  status: ('A' for Active; 'I' for Inactive)
REMARK    1  A    between atoms: C_1  and  O_2
REMARK    2  A    between atoms: O_2  and  C_3
REMARK    3  A    between atoms: C_6  and  C_7
REMARK    4  A    between atoms: C_9  and  C_10
REMARK    5  A    between atoms: C_17  and  N_18
REMARK                            x       y       z     vdW  Elec       q    Type
REMARK                         _______ _______ _______ _____ _____    ______ ____
ROOT
ATOM      1  C   UNL     1       1.731   7.404  20.320  0.00  0.00    +0.000 A 
ATOM      2  C   UNL     1       1.445   6.208  20.979  0.00  0.00    +0.000 A 
ATOM      3  C   UNL     1       1.958   5.007  20.498  0.00  0.00    +0.000 A 
ATOM      4  C   UNL     1       2.772   5.110  19.368  0.00  0.00    +0.000 A 
ATOM      5  N   UNL     1       3.379   4.145  18.600  0.00  0.00    +0.000 N 
ATOM      6  C   UNL     1       4.094   4.714  17.575  0.00  0.00    +0.000 A 
ATOM      7  C   UNL     1       4.824   4.113  16.539  0.00  0.00    +0.000 A 
ATOM      8  C   UNL     1       5.553   4.916  15.644  0.00  0.00    +0.000 A 
ATOM      9  C   UNL     1       5.516   6.304  15.832  0.00  0.00    +0.000 A 
ATOM     10  C   UNL     1       4.733   6.906  16.835  0.00  0.00    +0.000 A 
ATOM     11  C   UNL     1       3.998   6.097  17.723  0.00  0.00    +0.000 A 
ATOM     12  C   UNL     1       3.094   6.339  18.806  0.00  0.00    +0.000 A 
ATOM     13  N   UNL     1       2.583   7.507  19.271  0.00  0.00    +0.000 NA
ATOM     14  H   UNL     1       3.292   3.151  18.781  0.00  0.00    +0.000 HD
ENDROOT
BRANCH   1  18
ATOM     15  C   UNL     1      -0.312  11.027  21.457  0.00  0.00    +0.000 A 
ATOM     16  C   UNL     1      -0.014  10.055  22.417  0.00  0.00    +0.000 A 
ATOM     17  C   UNL     1       0.665   8.881  22.059  0.00  0.00    +0.000 A 
ATOM     18  C   UNL     1       1.050   8.648  20.730  0.00  0.00    +0.000 A 
ATOM     19  C   UNL     1       0.772   9.648  19.786  0.00  0.00    +0.000 A 
ATOM     20  C   UNL     1       0.091  10.805  20.144  0.00  0.00    +0.000 A 
ATOM     21  F   UNL     1      -0.139  11.700  19.173  0.00  0.00    +0.000 F 
BRANCH  15  23
ATOM     22  C   UNL     1      -1.915  11.921  22.963  0.00  0.00    +0.000 C 
ATOM     23  O   UNL     1      -0.955  12.137  21.932  0.00  0.00    +0.000 OA
ENDBRANCH  15  23
ENDBRANCH   1  18
BRANCH   8  24
ATOM     24  N   UNL     1       6.277   4.334  14.626  0.00  0.00    +0.000 N 
ATOM     25  C   UNL     1       7.561   4.856  14.153  0.00  0.00    +0.000 C 
ATOM     26  C   UNL     1       7.489   5.174  12.653  0.00  0.00    +0.000 C 
ATOM     27  O   UNL     1       7.021   4.046  11.891  0.00  0.00    +0.000 OA
ATOM     28  C   UNL     1       5.711   3.655  12.336  0.00  0.00    +0.000 C 
ATOM     29  C   UNL     1       5.716   3.243  13.817  0.00  0.00    +0.000 C 
ENDBRANCH   8  24
BRANCH   3  30
ATOM     30  C   UNL     1       1.645   3.690  21.088  0.00  0.00    +0.000 C 
ATOM     31  N   UNL     1       0.683   2.915  20.515  0.00  0.00    +0.000 N 
ATOM     32  O   UNL     1       2.252   3.292  22.088  0.00  0.00    +0.000 OA
ATOM     33  H   UNL     1       0.145   3.156  19.695  0.00  0.00    +0.000 HD
ATOM     34  H   UNL     1       0.499   2.014  20.938  0.00  0.00    +0.000 HD
ENDBRANCH   3  30
TORSDOF 4
ENDMDL
MODEL 3
REMARK VINA RESULT:      -8.8      2.754      9.215
REMARK  Name = 
REMARK  5 active torsions:
REMARK  status: ('A' for Active; 'I' for Inactive)
REMARK    1  A    between atoms: C_1  and  O_2
REMARK    2  A    between atoms: O_2  and  C_3
REMARK    3  A    between atoms: C_6  and  C_7
REMARK    4  A    between atoms: C_9  and  C_10
REMARK    5  A    between atoms: C_17  and  N_18
REMARK                            x       y       z     vdW  Elec       q    Type
REMARK                         _______ _______ _______ _____ _____    ______ ____
ROOT
ATOM      1  C   UNL     1       3.731   5.736  18.367  0.00  0.00    +0.000 A 
ATOM      2  C   UNL     1       3.265   4.697  19.172  0.00  0.00    +0.000 A 
ATOM      3  C   UNL     1       2.337   4.956  20.177  0.00  0.00    +0.000 A 
ATOM      4  C   UNL     1       1.916   6.283  20.278  0.00  0.00    +0.000 A 
ATOM      5  N   UNL     1       1.079   6.900  21.179  0.00  0.00    +0.000 N 
ATOM      6  C   UNL     1       0.947   8.235  20.888  0.00  0.00    +0.000 A 
ATOM      7  C   UNL     1       0.235   9.241  21.559  0.00  0.00    +0.000 A 
ATOM      8  C   UNL     1       0.180  10.536  21.015  0.00  0.00    +0.000 A 
ATOM      9  C   UNL     1       0.850  10.767  19.807  0.00  0.00    +0.000 A 
ATOM     10  C   UNL     1       1.614   9.770  19.168  0.00  0.00    +0.000 A 
ATOM     11  C   UNL     1       1.673   8.478  19.723  0.00  0.00    +0.000 A 
ATOM     12  C   UNL     1       2.349   7.261  19.391  0.00  0.00    +0.000 A 
ATOM     13  N   UNL     1       3.261   7.006  18.419  0.00  0.00    +0.000 NA
ATOM     14  H   UNL     1       0.634   6.414  21.950  0.00  0.00    +0.000 HD
ENDROOT
BRANCH   1  18
ATOM     15  C   UNL     1       6.967   4.943  15.628  0.00  0.00    +0.000 A 
ATOM     16  C   UNL     1       5.774   5.509  15.166  0.00  0.00    +0.000 A 
ATOM     17  C   UNL     1       4.724   5.785  16.052  0.00  0.00    +0.000 A 
ATOM     18  C   UNL     1       4.837   5.490  17.420  0.00  0.00    +0.000 A 
ATOM     19  C   UNL     1       6.051   4.953  17.871  0.00  0.00    +0.000 A 
ATOM     20  C   UNL     1       7.086   4.672  16.988  0.00  0.00    +0.000 A 
ATOM     21  F   UNL     1       8.205   4.150  17.509  0.00  0.00    +0.000 F 
BRANCH  15  23
ATOM     22  C   UNL     1       7.529   4.966  13.322  0.00  0.00    +0.000 C 
ATOM     23  O   UNL     1       7.924   4.742  14.673  0.00  0.00    +0.000 OA
ENDBRANCH  15  23
ENDBRANCH   1  18
BRANCH   8  24
ATOM     24  N   UNL     1      -0.521  11.528  21.665  0.00  0.00    +0.000 N 
ATOM     25  C   UNL     1      -0.957  11.424  23.059  0.00  0.00    +0.000 C 
ATOM     26  C   UNL     1      -2.481  11.582  23.157  0.00  0.00    +0.000 C 
ATOM     27  O   UNL     1      -2.934  12.785  22.511  0.00  0.00    +0.000 OA
ATOM     28  C   UNL     1      -2.567  12.772  21.120  0.00  0.00    +0.000 C 
ATOM     29  C   UNL     1      -1.042  12.695  20.939  0.00  0.00    +0.000 C 
ENDBRANCH   8  24
BRANCH   3  30
ATOM     30  C   UNL     1       1.848   3.931  21.121  0.00  0.00    +0.000 C 
ATOM     31  N   UNL     1       0.750   3.195  20.795  0.00  0.00    +0.000 N 
ATOM     32  O   UNL     1       2.430   3.740  22.195  0.00  0.00    +0.000 OA
ATOM     33  H   UNL     1       0.220   3.278  19.940  0.00  0.00    +0.000 HD
ATOM     34  H   UNL     1       0.446   2.495  21.460  0.00  0.00    +0.000 HD
ENDBRANCH   3  30
TORSDOF 4
ENDMDL
MODEL 4
REMARK VINA RESULT:      -8.7      2.773      9.285
REMARK  Name = 
REMARK  5 active torsions:
REMARK  status: ('A' for Active; 'I' for Inactive)
REMARK    1  A    between atoms: C_1  and  O_2
REMARK    2  A    between atoms: O_2  and  C_3
REMARK    3  A    between atoms: C_6  and  C_7
REMARK    4  A    between atoms: C_9  and  C_10
REMARK    5  A    between atoms: C_17  and  N_18
REMARK                            x       y       z     vdW  Elec       q    Type
REMARK                         _______ _______ _______ _____ _____    ______ ____
ROOT
ATOM      1  C   UNL     1       3.357   5.743  18.156  0.00  0.00    +0.000 A 
ATOM      2  C   UNL     1       2.968   4.700  18.996  0.00  0.00    +0.000 A 
ATOM      3  C   UNL     1       2.185   4.962  20.116  0.00  0.00    +0.000 A 
ATOM      4  C   UNL     1       1.818   6.297  20.294  0.00  0.00    +0.000 A 
ATOM      5  N   UNL     1       1.121   6.916  21.306  0.00  0.00    +0.000 N 
ATOM      6  C   UNL     1       0.991   8.261  21.059  0.00  0.00    +0.000 A 
ATOM      7  C   UNL     1       0.401   9.270  21.832  0.00  0.00    +0.000 A 
ATOM      8  C   UNL     1       0.314  10.577  21.323  0.00  0.00    +0.000 A 
ATOM      9  C   UNL     1       0.829  10.816  20.043  0.00  0.00    +0.000 A 
ATOM     10  C   UNL     1       1.476   9.814  19.294  0.00  0.00    +0.000 A 
ATOM     11  C   UNL     1       1.569   8.508  19.813  0.00  0.00    +0.000 A 
ATOM     12  C   UNL     1       2.161   7.281  19.376  0.00  0.00    +0.000 A 
ATOM     13  N   UNL     1       2.934   7.023  18.290  0.00  0.00    +0.000 NA
ATOM     14  H   UNL     1       0.766   6.426  22.119  0.00  0.00    +0.000 HD
ENDROOT
BRANCH   1  18
ATOM     15  C   UNL     1       6.132   4.943  14.954  0.00  0.00    +0.000 A 
ATOM     16  C   UNL     1       5.746   6.257  15.240  0.00  0.00    +0.000 A 
ATOM     17  C   UNL     1       4.856   6.527  16.290  0.00  0.00    +0.000 A 
ATOM     18  C   UNL     1       4.324   5.488  17.070  0.00  0.00    +0.000 A 
ATOM     19  C   UNL     1       4.748   4.181  16.789  0.00  0.00    +0.000 A 
ATOM     20  C   UNL     1       5.621   3.917  15.742  0.00  0.00    +0.000 A 
ATOM     21  F   UNL     1       5.962   2.636  15.543  0.00  0.00    +0.000 F 
BRANCH  15  23
ATOM     22  C   UNL     1       6.604   4.002  12.825  0.00  0.00    +0.000 C 
ATOM     23  O   UNL     1       7.021   4.810  13.923  0.00  0.00    +0.000 OA
ENDBRANCH  15  23
ENDBRANCH   1  18
BRANCH   8  24
ATOM     24  N   UNL     1      -0.269  11.574  22.075  0.00  0.00    +0.000 N 
ATOM     25  C   UNL     1      -1.254  11.314  23.128  0.00  0.00    +0.000 C 
ATOM     26  C   UNL     1      -2.561  12.064  22.835  0.00  0.00    +0.000 C 
ATOM     27  O   UNL     1      -2.332  13.466  22.608  0.00  0.00    +0.000 OA
ATOM     28  C   UNL     1      -1.443  13.650  21.492  0.00  0.00    +0.000 C 
ATOM     29  C   UNL     1      -0.076  12.992  21.744  0.00  0.00    +0.000 C 
ENDBRANCH   8  24
BRANCH   3  30
ATOM     30  C   UNL     1       1.791   3.931  21.098  0.00  0.00    +0.000 C 
ATOM     31  N   UNL     1       0.781   3.070  20.791  0.00  0.00    +0.000 N 
ATOM     32  O   UNL     1       2.374   3.845  22.184  0.00  0.00    +0.000 OA
ATOM     33  H   UNL     1       0.258   3.062  19.928  0.00  0.00    +0.000 HD
ATOM     34  H   UNL     1       0.543   2.369  21.482  0.00  0.00    +0.000 HD
ENDBRANCH   3  30
TORSDOF 4
ENDMDL
MODEL 5
REMARK VINA RESULT:      -8.6      2.944      9.280
REMARK  Name = 
REMARK  5 active torsions:
REMARK  status: ('A' for Active; 'I' for Inactive)
REMARK    1  A    between atoms: C_1  and  O_2
REMARK    2  A    between atoms: O_2  and  C_3
REMARK    3  A    between atoms: C_6  and  C_7
REMARK    4  A    between atoms: C_9  and  C_10
REMARK    5  A    between atoms: C_17  and  N_18
REMARK                            x       y       z     vdW  Elec       q    Type
REMARK                         _______ _______ _______ _____ _____    ______ ____
ROOT
ATOM      1  C   UNL     1       4.523   4.611  16.658  0.00  0.00    +0.000 A 
ATOM      2  C   UNL     1       4.527   3.580  17.597  0.00  0.00    +0.000 A 
ATOM      3  C   UNL     1       3.977   3.784  18.859  0.00  0.00    +0.000 A 
ATOM      4  C   UNL     1       3.421   5.046  19.076  0.00  0.00    +0.000 A 
ATOM      5  N   UNL     1       2.864   5.608  20.201  0.00  0.00    +0.000 N 
ATOM      6  C   UNL     1       2.439   6.889  19.949  0.00  0.00    +0.000 A 
ATOM      7  C   UNL     1       1.861   7.835  20.806  0.00  0.00    +0.000 A 
ATOM      8  C   UNL     1       1.425   9.068  20.291  0.00  0.00    +0.000 A 
ATOM      9  C   UNL     1       1.592   9.299  18.919  0.00  0.00    +0.000 A 
ATOM     10  C   UNL     1       2.229   8.371  18.073  0.00  0.00    +0.000 A 
ATOM     11  C   UNL     1       2.671   7.142  18.597  0.00  0.00    +0.000 A 
ATOM     12  C   UNL     1       3.366   6.006  18.073  0.00  0.00    +0.000 A 
ATOM     13  N   UNL     1       3.913   5.806  16.847  0.00  0.00    +0.000 NA
ATOM     14  H   UNL     1       2.793   5.124  21.089  0.00  0.00    +0.000 HD
ENDROOT
BRANCH   1  18
ATOM     15  C   UNL     1       6.729   4.117  12.986  0.00  0.00    +0.000 A 
ATOM     16  C   UNL     1       5.494   3.482  13.157  0.00  0.00    +0.000 A 
ATOM     17  C   UNL     1       4.763   3.651  14.342  0.00  0.00    +0.000 A 
ATOM     18  C   UNL     1       5.255   4.448  15.386  0.00  0.00    +0.000 A 
ATOM     19  C   UNL     1       6.479   5.102  15.184  0.00  0.00    +0.000 A 
ATOM     20  C   UNL     1       7.205   4.925  14.013  0.00  0.00    +0.000 A 
ATOM     21  F   UNL     1       8.369   5.582  13.914  0.00  0.00    +0.000 F 
BRANCH  15  23
ATOM     22  C   UNL     1       7.306   2.555  11.293  0.00  0.00    +0.000 C 
ATOM     23  O   UNL     1       7.334   3.894  11.780  0.00  0.00    +0.000 OA
ENDBRANCH  15  23
ENDBRANCH   1  18
BRANCH   8  24
ATOM     24  N   UNL     1       0.851  10.002  21.126  0.00  0.00    +0.000 N 
ATOM     25  C   UNL     1       0.600   9.762  22.550  0.00  0.00    +0.000 C 
ATOM     26  C   UNL     1      -0.891   9.940  22.868  0.00  0.00    +0.000 C 
ATOM     27  O   UNL     1      -1.384  11.213  22.413  0.00  0.00    +0.000 OA
ATOM     28  C   UNL     1      -1.205  11.337  20.992  0.00  0.00    +0.000 C 
ATOM     29  C   UNL     1       0.278  11.248  20.598  0.00  0.00    +0.000 C 
ENDBRANCH   8  24
BRANCH   3  30
ATOM     30  C   UNL     1       4.006   2.774  19.937  0.00  0.00    +0.000 C 
ATOM     31  N   UNL     1       5.067   1.924  20.025  0.00  0.00    +0.000 N 
ATOM     32  O   UNL     1       3.080   2.702  20.753  0.00  0.00    +0.000 OA
ATOM     33  H   UNL     1       5.867   1.917  19.409  0.00  0.00    +0.000 HD
ATOM     34  H   UNL     1       5.060   1.250  20.780  0.00  0.00    +0.000 HD
ENDBRANCH   3  30
TORSDOF 4
ENDMDL
MODEL 6
REMARK VINA RESULT:      -8.5      3.017      9.299
REMARK  Name = 
REMARK  5 active torsions:
REMARK  status: ('A' for Active; 'I' for Inactive)
REMARK    1  A    between atoms: C_1  and  O_2
REMARK    2  A    between atoms: O_2  and  C_3
REMARK    3  A    between atoms: C_6  and  C_7
REMARK    4  A    between atoms: C_9  and  C_10
REMARK    5  A    between atoms: C_17  and  N_18
REMARK                            x       y       z     vdW  Elec       q    Type
REMARK                         _______ _______ _______ _____ _____    ______ ____
ROOT
ATOM      1  C   UNL     1       4.525   4.553  16.709  0.00  0.00    +0.000 A 
ATOM      2  C   UNL     1       4.517   3.529  17.655  0.00  0.00    +0.000 A 
ATOM      3  C   UNL     1       3.959   3.745  18.912  0.00  0.00    +0.000 A 
ATOM      4  C   UNL     1       3.407   5.011  19.114  0.00  0.00    +0.000 A 
ATOM      5  N   UNL     1       2.844   5.585  20.231  0.00  0.00    +0.000 N 
ATOM      6  C   UNL     1       2.427   6.866  19.965  0.00  0.00    +0.000 A 
ATOM      7  C   UNL     1       1.846   7.821  20.811  0.00  0.00    +0.000 A 
ATOM      8  C   UNL     1       1.420   9.052  20.282  0.00  0.00    +0.000 A 
ATOM      9  C   UNL     1       1.598   9.271  18.910  0.00  0.00    +0.000 A 
ATOM     10  C   UNL     1       2.238   8.334  18.076  0.00  0.00    +0.000 A 
ATOM     11  C   UNL     1       2.671   7.107  18.613  0.00  0.00    +0.000 A 
ATOM     12  C   UNL     1       3.364   5.964  18.104  0.00  0.00    +0.000 A 
ATOM     13  N   UNL     1       3.919   5.752  16.884  0.00  0.00    +0.000 NA
ATOM     14  H   UNL     1       2.764   5.108  21.122  0.00  0.00    +0.000 HD
ENDROOT
BRANCH   1  18
ATOM     15  C   UNL     1       6.634   4.081  12.977  0.00  0.00    +0.000 A 
ATOM     16  C   UNL     1       7.312   4.523  14.118  0.00  0.00    +0.000 A 
ATOM     17  C   UNL     1       6.636   4.663  15.340  0.00  0.00    +0.000 A 
ATOM     18  C   UNL     1       5.267   4.376  15.444  0.00  0.00    +0.000 A 
ATOM     19  C   UNL     1       4.612   3.904  14.297  0.00  0.00    +0.000 A 
ATOM     20  C   UNL     1       5.281   3.775  13.087  0.00  0.00    +0.000 A 
ATOM     21  F   UNL     1       4.571   3.326  12.043  0.00  0.00    +0.000 F 
BRANCH  15  23
ATOM     22  C   UNL     1       7.509   2.657  11.290  0.00  0.00    +0.000 C 
ATOM     23  O   UNL     1       7.405   3.962  11.853  0.00  0.00    +0.000 OA
ENDBRANCH  15  23
ENDBRANCH   1  18
BRANCH   8  24
ATOM     24  N   UNL     1       0.843   9.995  21.106  0.00  0.00    +0.000 N 
ATOM     25  C   UNL     1       0.613   9.780  22.537  0.00  0.00    +0.000 C 
ATOM     26  C   UNL     1      -0.877   9.946  22.869  0.00  0.00    +0.000 C 
ATOM     27  O   UNL     1      -1.391  11.203  22.396  0.00  0.00    +0.000 OA
ATOM     28  C   UNL     1      -1.231  11.301  20.970  0.00  0.00    +0.000 C 
ATOM     29  C   UNL     1       0.249  11.223  20.560  0.00  0.00    +0.000 C 
ENDBRANCH   8  24
BRANCH   3  30
ATOM     30  C   UNL     1       3.975   2.744  19.997  0.00  0.00    +0.000 C 
ATOM     31  N   UNL     1       5.057   1.928  20.136  0.00  0.00    +0.000 N 
ATOM     32  O   UNL     1       3.019   2.648  20.775  0.00  0.00    +0.000 OA
ATOM     33  H   UNL     1       5.882   1.943  19.553  0.00  0.00    +0.000 HD
ATOM     34  H   UNL     1       5.040   1.259  20.895  0.00  0.00    +0.000 HD
ENDBRANCH   3  30
TORSDOF 4
ENDMDL
MODEL 7
REMARK VINA RESULT:      -8.3      2.747      9.172
REMARK  Name = 
REMARK  5 active torsions:
REMARK  status: ('A' for Active; 'I' for Inactive)
REMARK    1  A    between atoms: C_1  and  O_2
REMARK    2  A    between atoms: O_2  and  C_3
REMARK    3  A    between atoms: C_6  and  C_7
REMARK    4  A    between atoms: C_9  and  C_10
REMARK    5  A    between atoms: C_17  and  N_18
REMARK                            x       y       z     vdW  Elec       q    Type
REMARK                         _______ _______ _______ _____ _____    ______ ____
ROOT
ATOM      1  C   UNL     1       3.674   5.863  18.363  0.00  0.00    +0.000 A 
ATOM      2  C   UNL     1       3.303   4.831  19.224  0.00  0.00    +0.000 A 
ATOM      3  C   UNL     1       2.358   5.060  20.220  0.00  0.00    +0.000 A 
ATOM      4  C   UNL     1       1.821   6.348  20.255  0.00  0.00    +0.000 A 
ATOM      5  N   UNL     1       0.935   6.936  21.127  0.00  0.00    +0.000 N 
ATOM      6  C   UNL     1       0.685   8.237  20.769  0.00  0.00    +0.000 A 
ATOM      7  C   UNL     1      -0.111   9.210  21.390  0.00  0.00    +0.000 A 
ATOM      8  C   UNL     1      -0.281  10.465  20.780  0.00  0.00    +0.000 A 
ATOM      9  C   UNL     1       0.364  10.690  19.557  0.00  0.00    +0.000 A 
ATOM     10  C   UNL     1       1.211   9.732  18.966  0.00  0.00    +0.000 A 
ATOM     11  C   UNL     1       1.385   8.481  19.587  0.00  0.00    +0.000 A 
ATOM     12  C   UNL     1       2.164   7.312  19.315  0.00  0.00    +0.000 A 
ATOM     13  N   UNL     1       3.094   7.088  18.352  0.00  0.00    +0.000 NA
ATOM     14  H   UNL     1       0.536   6.454  21.926  0.00  0.00    +0.000 HD
ENDROOT
BRANCH   1  18
ATOM     15  C   UNL     1       6.950   5.209  15.636  0.00  0.00    +0.000 A 
ATOM     16  C   UNL     1       5.798   5.875  15.206  0.00  0.00    +0.000 A 
ATOM     17  C   UNL     1       4.734   6.106  16.091  0.00  0.00    +0.000 A 
ATOM     18  C   UNL     1       4.795   5.666  17.422  0.00  0.00    +0.000 A 
ATOM     19  C   UNL     1       5.971   5.029  17.844  0.00  0.00    +0.000 A 
ATOM     20  C   UNL     1       7.018   4.794  16.962  0.00  0.00    +0.000 A 
ATOM     21  F   UNL     1       8.098   4.169  17.453  0.00  0.00    +0.000 F 
BRANCH  15  23
ATOM     22  C   UNL     1       7.487   4.956  13.337  0.00  0.00    +0.000 C 
ATOM     23  O   UNL     1       7.926   5.065  14.689  0.00  0.00    +0.000 OA
ENDBRANCH  15  23
ENDBRANCH   1  18
BRANCH   8  24
ATOM     24  N   UNL     1      -1.066  11.425  21.382  0.00  0.00    +0.000 N 
ATOM     25  C   UNL     1      -2.134  12.144  20.683  0.00  0.00    +0.000 C 
ATOM     26  C   UNL     1      -1.884  13.657  20.736  0.00  0.00    +0.000 C 
ATOM     27  O   UNL     1      -1.681  14.117  22.085  0.00  0.00    +0.000 OA
ATOM     28  C   UNL     1      -0.551  13.449  22.672  0.00  0.00    +0.000 C 
ATOM     29  C   UNL     1      -0.760  11.927  22.728  0.00  0.00    +0.000 C 
ENDBRANCH   8  24
BRANCH   3  30
ATOM     30  C   UNL     1       1.962   4.048  21.220  0.00  0.00    +0.000 C 
ATOM     31  N   UNL     1       0.886   3.251  20.972  0.00  0.00    +0.000 N 
ATOM     32  O   UNL     1       2.603   3.921  22.270  0.00  0.00    +0.000 OA
ATOM     33  H   UNL     1       0.313   3.279  20.141  0.00  0.00    +0.000 HD
ATOM     34  H   UNL     1       0.648   2.561  21.673  0.00  0.00    +0.000 HD
ENDBRANCH   3  30
TORSDOF 4
ENDMDL
MODEL 8
REMARK VINA RESULT:      -8.2      2.848      9.212
REMARK  Name = 
REMARK  5 active torsions:
REMARK  status: ('A' for Active; 'I' for Inactive)
REMARK    1  A    between atoms: C_1  and  O_2
REMARK    2  A    between atoms: O_2  and  C_3
REMARK    3  A    between atoms: C_6  and  C_7
REMARK    4  A    between atoms: C_9  and  C_10
REMARK    5  A    between atoms: C_17  and  N_18
REMARK                            x       y       z     vdW  Elec       q    Type
REMARK                         _______ _______ _______ _____ _____    ______ ____
ROOT
ATOM      1  C   UNL     1       3.964   5.636  17.867  0.00  0.00    +0.000 A 
ATOM      2  C   UNL     1       3.589   4.616  18.741  0.00  0.00    +0.000 A 
ATOM      3  C   UNL     1       2.720   4.885  19.794  0.00  0.00    +0.000 A 
ATOM      4  C   UNL     1       2.257   6.200  19.872  0.00  0.00    +0.000 A 
ATOM      5  N   UNL     1       1.459   6.825  20.801  0.00  0.00    +0.000 N 
ATOM      6  C   UNL     1       1.260   8.142  20.469  0.00  0.00    +0.000 A 
ATOM      7  C   UNL     1       0.558   9.150  21.145  0.00  0.00    +0.000 A 
ATOM      8  C   UNL     1       0.421  10.419  20.556  0.00  0.00    +0.000 A 
ATOM      9  C   UNL     1       1.002  10.622  19.298  0.00  0.00    +0.000 A 
ATOM     10  C   UNL     1       1.758   9.627  18.649  0.00  0.00    +0.000 A 
ATOM     11  C   UNL     1       1.900   8.361  19.248  0.00  0.00    +0.000 A 
ATOM     12  C   UNL     1       2.596   7.154  18.920  0.00  0.00    +0.000 A 
ATOM     13  N   UNL     1       3.452   6.891  17.901  0.00  0.00    +0.000 NA
ATOM     14  H   UNL     1       1.083   6.357  21.618  0.00  0.00    +0.000 HD
ENDROOT
BRANCH   1  18
ATOM     15  C   UNL     1       6.979   4.939  14.864  0.00  0.00    +0.000 A 
ATOM     16  C   UNL     1       7.285   5.678  16.012  0.00  0.00    +0.000 A 
ATOM     17  C   UNL     1       6.315   5.896  17.000  0.00  0.00    +0.000 A 
ATOM     18  C   UNL     1       5.014   5.389  16.858  0.00  0.00    +0.000 A 
ATOM     19  C   UNL     1       4.735   4.623  15.717  0.00  0.00    +0.000 A 
ATOM     20  C   UNL     1       5.696   4.417  14.736  0.00  0.00    +0.000 A 
ATOM     21  F   UNL     1       5.335   3.680  13.676  0.00  0.00    +0.000 F 
BRANCH  15  23
ATOM     22  C   UNL     1       7.866   5.392  12.709  0.00  0.00    +0.000 C 
ATOM     23  O   UNL     1       8.014   4.775  13.985  0.00  0.00    +0.000 OA
ENDBRANCH  15  23
ENDBRANCH   1  18
BRANCH   8  24
ATOM     24  N   UNL     1      -0.272  11.413  21.212  0.00  0.00    +0.000 N 
ATOM     25  C   UNL     1      -0.562  11.379  22.648  0.00  0.00    +0.000 C 
ATOM     26  C   UNL     1      -2.076  11.460  22.890  0.00  0.00    +0.000 C 
ATOM     27  O   UNL     1      -2.662  12.592  22.221  0.00  0.00    +0.000 OA
ATOM     28  C   UNL     1      -2.433  12.505  20.804  0.00  0.00    +0.000 C 
ATOM     29  C   UNL     1      -0.932  12.499  20.473  0.00  0.00    +0.000 C 
ENDBRANCH   8  24
BRANCH   3  30
ATOM     30  C   UNL     1       2.330   3.884  20.808  0.00  0.00    +0.000 C 
ATOM     31  N   UNL     1       1.893   2.660  20.402  0.00  0.00    +0.000 N 
ATOM     32  O   UNL     1       2.403   4.152  22.013  0.00  0.00    +0.000 OA
ATOM     33  H   UNL     1       1.810   2.354  19.444  0.00  0.00    +0.000 HD
ATOM     34  H   UNL     1       1.643   1.994  21.123  0.00  0.00    +0.000 HD
ENDBRANCH   3  30
TORSDOF 4
ENDMDL
MODEL 9
REMARK VINA RESULT:      -8.2      3.520      4.932
REMARK  Name = 
REMARK  5 active torsions:
REMARK  status: ('A' for Active; 'I' for Inactive)
REMARK    1  A    between atoms: C_1  and  O_2
REMARK    2  A    between atoms: O_2  and  C_3
REMARK    3  A    between atoms: C_6  and  C_7
REMARK    4  A    between atoms: C_9  and  C_10
REMARK    5  A    between atoms: C_17  and  N_18
REMARK                            x       y       z     vdW  Elec       q    Type
REMARK                         _______ _______ _______ _____ _____    ______ ____
ROOT
ATOM      1  C   UNL     1      -0.769  10.015  19.060  0.00  0.00    +0.000 A 
ATOM      2  C   UNL     1      -0.695  10.109  20.449  0.00  0.00    +0.000 A 
ATOM      3  C   UNL     1       0.286   9.407  21.144  0.00  0.00    +0.000 A 
ATOM      4  C   UNL     1       1.164   8.662  20.356  0.00  0.00    +0.000 A 
ATOM      5  N   UNL     1       2.189   7.811  20.701  0.00  0.00    +0.000 N 
ATOM      6  C   UNL     1       2.791   7.292  19.581  0.00  0.00    +0.000 A 
ATOM      7  C   UNL     1       3.835   6.363  19.464  0.00  0.00    +0.000 A 
ATOM      8  C   UNL     1       4.345   6.046  18.193  0.00  0.00    +0.000 A 
ATOM      9  C   UNL     1       3.778   6.684  17.082  0.00  0.00    +0.000 A 
ATOM     10  C   UNL     1       2.690   7.570  17.199  0.00  0.00    +0.000 A 
ATOM     11  C   UNL     1       2.177   7.876  18.474  0.00  0.00    +0.000 A 
ATOM     12  C   UNL     1       1.097   8.675  18.968  0.00  0.00    +0.000 A 
ATOM     13  N   UNL     1       0.133   9.352  18.295  0.00  0.00    +0.000 NA
ATOM     14  H   UNL     1       2.443   7.604  21.660  0.00  0.00    +0.000 HD
ENDROOT
BRANCH   1  18
ATOM     15  C   UNL     1      -4.116  11.711  16.935  0.00  0.00    +0.000 A 
ATOM     16  C   UNL     1      -3.970  11.928  18.309  0.00  0.00    +0.000 A 
ATOM     17  C   UNL     1      -2.876  11.393  19.005  0.00  0.00    +0.000 A 
ATOM     18  C   UNL     1      -1.909  10.620  18.343  0.00  0.00    +0.000 A 
ATOM     19  C   UNL     1      -2.054  10.440  16.960  0.00  0.00    +0.000 A 
ATOM     20  C   UNL     1      -3.145  10.963  16.277  0.00  0.00    +0.000 A 
ATOM     21  F   UNL     1      -3.204  10.732  14.958  0.00  0.00    +0.000 F 
BRANCH  15  23
ATOM     22  C   UNL     1      -6.238  12.726  17.257  0.00  0.00    +0.000 C 
ATOM     23  O   UNL     1      -5.210  12.302  16.366  0.00  0.00    +0.000 OA
ENDBRANCH  15  23
ENDBRANCH   1  18
BRANCH   8  24
ATOM     24  N   UNL     1       5.375   5.137  18.069  0.00  0.00    +0.000 N 
ATOM     25  C   UNL     1       6.466   5.022  19.040  0.00  0.00    +0.000 C 
ATOM     26  C   UNL     1       7.821   5.232  18.349  0.00  0.00    +0.000 C 
ATOM     27  O   UNL     1       7.979   4.363  17.213  0.00  0.00    +0.000 OA
ATOM     28  C   UNL     1       6.937   4.606  16.252  0.00  0.00    +0.000 C 
ATOM     29  C   UNL     1       5.545   4.339  16.847  0.00  0.00    +0.000 C 
ENDBRANCH   8  24
BRANCH   3  30
ATOM     30  C   UNL     1       0.391   9.391  22.618  0.00  0.00    +0.000 C 
ATOM     31  N   UNL     1      -0.745   9.316  23.365  0.00  0.00    +0.000 N 
ATOM     32  O   UNL     1       1.497   9.440  23.167  0.00  0.00    +0.000 OA
ATOM     33  H   UNL     1      -1.686   9.263  23.001  0.00  0.00    +0.000 HD
ATOM     34  H   UNL     1      -0.638   9.297  24.372  0.00  0.00    +0.000 HD
ENDBRANCH   3  30
TORSDOF 4
ENDMDL
