MODEL 1
REMARK VINA RESULT:      -8.5      0.000      0.000
REMARK  Name = 
REMARK  8 active torsions:
REMARK  status: ('A' for Active; 'I' for Inactive)
REMARK    1  A    between atoms: C_1  and  C_2
REMARK    2  A    between atoms: C_2  and  C_3
REMARK    3  A    between atoms: N_11  and  C_12
REMARK    4  A    between atoms: C_15  and  C_16
REMARK    5  A    between atoms: C_16  and  C_17
REMARK    6  A    between atoms: N_19  and  C_20
REMARK    7  A    between atoms: C_21  and  C_22
REMARK    8  A    between atoms: C_26  and  C_27
REMARK                            x       y       z     vdW  Elec       q    Type
REMARK                         _______ _______ _______ _____ _____    ______ ____
ROOT
ATOM      1  C   UNL     1       2.575   7.126  18.450  0.00  0.00    +0.000 A 
ATOM      2  C   UNL     1       2.239   8.206  17.630  0.00  0.00    +0.000 A 
ATOM      3  C   UNL     1       1.561   9.305  18.159  0.00  0.00    +0.000 A 
ATOM      4  C   UNL     1       1.227   9.353  19.517  0.00  0.00    +0.000 A 
ATOM      5  C   UNL     1       1.599   8.287  20.346  0.00  0.00    +0.000 A 
ATOM      6  C   UNL     1       2.264   7.179  19.816  0.00  0.00    +0.000 A 
ENDROOT
BRANCH   1  15
ATOM      7  C   UNL     1       2.723   4.706  17.720  0.00  0.00    +0.000 A 
ATOM      8  N   UNL     1       3.645   3.875  17.263  0.00  0.00    +0.000 NA
ATOM      9  C   UNL     1       4.765   4.631  17.073  0.00  0.00    +0.000 A 
ATOM     10  C   UNL     1       6.033   4.279  16.601  0.00  0.00    +0.000 A 
ATOM     11  C   UNL     1       7.000   5.284  16.534  0.00  0.00    +0.000 A 
ATOM     12  C   UNL     1       6.661   6.570  16.935  0.00  0.00    +0.000 A 
ATOM     13  N   UNL     1       5.450   6.962  17.391  0.00  0.00    +0.000 NA
ATOM     14  C   UNL     1       4.545   5.958  17.434  0.00  0.00    +0.000 A 
ATOM     15  N   UNL     1       3.237   5.993  17.903  0.00  0.00    +0.000 N 
BRANCH   7  17
ATOM     16  C   UNL     1       1.071   3.409  19.100  0.00  0.00    +0.000 C 
ATOM     17  C   UNL     1       1.281   4.337  17.914  0.00  0.00    +0.000 C 
ENDBRANCH   7  17
ENDBRANCH   1  15
BRANCH   4  18
ATOM     18  C   UNL     1       0.542  10.572  20.080  0.00  0.00    +0.000 C 
BRANCH  18  19
ATOM     19  C   UNL     1      -0.489  11.182  19.155  0.00  0.00    +0.000 C 
ATOM     20  O   UNL     1      -0.186  12.098  18.391  0.00  0.00    +0.000 OA
ATOM     21  N   UNL     1      -1.749  10.619  19.269  0.00  0.00    +0.000 N 
ATOM     22  H   UNL     1      -1.987  10.311  20.203  0.00  0.00    +0.000 HD
BRANCH  21  23
ATOM     23  C   UNL     1      -2.824  11.020  18.439  0.00  0.00    +0.000 A 
ATOM     24  C   UNL     1      -2.945  10.557  17.110  0.00  0.00    +0.000 A 
ATOM     25  C   UNL     1      -1.980   9.605  16.454  0.00  0.00    +0.000 C 
ATOM     26  C   UNL     1      -4.026  11.001  16.328  0.00  0.00    +0.000 A 
ATOM     27  C   UNL     1      -4.999  11.841  16.861  0.00  0.00    +0.000 A 
ATOM     28  C   UNL     1      -4.892  12.275  18.178  0.00  0.00    +0.000 A 
ATOM     29  C   UNL     1      -3.803  11.887  18.975  0.00  0.00    +0.000 A 
ATOM     30  C   UNL     1      -3.640  12.528  20.328  0.00  0.00    +0.000 C 
ENDBRANCH  21  23
ENDBRANCH  18  19
ENDBRANCH   4  18
TORSDOF 5
ENDMDL
MODEL 2
REMARK VINA RESULT:      -8.4      1.074      2.757
REMARK  Name = 
REMARK  8 active torsions:
REMARK  status: ('A' for Active; 'I' for Inactive)
REMARK    1  A    between atoms: C_1  and  C_2
REMARK    2  A    between atoms: C_2  and  C_3
REMARK    3  A    between atoms: N_11  and  C_12
REMARK    4  A    between atoms: C_15  and  C_16
REMARK    5  A    between atoms: C_16  and  C_17
REMARK    6  A    between atoms: N_19  and  C_20
REMARK    7  A    between atoms: C_21  and  C_22
REMARK    8  A    between atoms: C_26  and  C_27
REMARK                            x       y       z     vdW  Elec       q    Type
REMARK                         _______ _______ _______ _____ _____    ______ ____
ROOT
ATOM      1  C   UNL     1       2.271   7.124  18.754  0.00  0.00    +0.000 A 
ATOM      2  C   UNL     1       2.017   8.114  17.802  0.00  0.00    +0.000 A 
ATOM      3  C   UNL     1       1.483   9.343  18.193  0.00  0.00    +0.000 A 
ATOM      4  C   UNL     1       1.216   9.610  19.540  0.00  0.00    +0.000 A 
ATOM      5  C   UNL     1       1.507   8.631  20.497  0.00  0.00    +0.000 A 
ATOM      6  C   UNL     1       2.026   7.394  20.108  0.00  0.00    +0.000 A 
ENDROOT
BRANCH   1  15
ATOM      7  C   UNL     1       3.912   5.605  17.567  0.00  0.00    +0.000 A 
ATOM      8  N   UNL     1       4.047   4.313  17.314  0.00  0.00    +0.000 NA
ATOM      9  C   UNL     1       3.037   3.695  17.993  0.00  0.00    +0.000 A 
ATOM     10  C   UNL     1       2.700   2.342  18.093  0.00  0.00    +0.000 A 
ATOM     11  C   UNL     1       1.581   2.009  18.858  0.00  0.00    +0.000 A 
ATOM     12  C   UNL     1       0.864   3.025  19.477  0.00  0.00    +0.000 A 
ATOM     13  N   UNL     1       1.152   4.345  19.418  0.00  0.00    +0.000 NA
ATOM     14  C   UNL     1       2.245   4.620  18.671  0.00  0.00    +0.000 A 
ATOM     15  N   UNL     1       2.783   5.860  18.350  0.00  0.00    +0.000 N 
BRANCH   7  17
ATOM     16  C   UNL     1       5.080   6.729  15.646  0.00  0.00    +0.000 C 
ATOM     17  C   UNL     1       4.909   6.649  17.155  0.00  0.00    +0.000 C 
ENDBRANCH   7  17
ENDBRANCH   1  15
BRANCH   4  18
ATOM     18  C   UNL     1       0.690  10.963  19.948  0.00  0.00    +0.000 C 
BRANCH  18  19
ATOM     19  C   UNL     1      -0.434  11.477  19.075  0.00  0.00    +0.000 C 
ATOM     20  O   UNL     1      -0.250  12.413  18.298  0.00  0.00    +0.000 OA
ATOM     21  N   UNL     1      -1.633  10.805  19.249  0.00  0.00    +0.000 N 
ATOM     22  H   UNL     1      -1.797  10.479  20.193  0.00  0.00    +0.000 HD
BRANCH  21  23
ATOM     23  C   UNL     1      -2.778  11.106  18.472  0.00  0.00    +0.000 A 
ATOM     24  C   UNL     1      -2.962  10.559  17.183  0.00  0.00    +0.000 A 
ATOM     25  C   UNL     1      -1.997   9.614  16.519  0.00  0.00    +0.000 C 
ATOM     26  C   UNL     1      -4.112  10.907  16.453  0.00  0.00    +0.000 A 
ATOM     27  C   UNL     1      -5.088  11.733  17.001  0.00  0.00    +0.000 A 
ATOM     28  C   UNL     1      -4.917  12.250  18.281  0.00  0.00    +0.000 A 
ATOM     29  C   UNL     1      -3.760  11.959  19.023  0.00  0.00    +0.000 A 
ATOM     30  C   UNL     1      -3.542  12.688  20.324  0.00  0.00    +0.000 C 
ENDBRANCH  21  23
ENDBRANCH  18  19
ENDBRANCH   4  18
TORSDOF 5
ENDMDL
MODEL 3
REMARK VINA RESULT:      -8.4      1.056      3.204
REMARK  Name = 
REMARK  8 active torsions:
REMARK  status: ('A' for Active; 'I' for Inactive)
REMARK    1  A    between atoms: C_1  and  C_2
REMARK    2  A    between atoms: C_2  and  C_3
REMARK    3  A    between atoms: N_11  and  C_12
REMARK    4  A    between atoms: C_15  and  C_16
REMARK    5  A    between atoms: C_16  and  C_17
REMARK    6  A    between atoms: N_19  and  C_20
REMARK    7  A    between atoms: C_21  and  C_22
REMARK    8  A    between atoms: C_26  and  C_27
REMARK                            x       y       z     vdW  Elec       q    Type
REMARK                         _______ _______ _______ _____ _____    ______ ____
ROOT
ATOM      1  C   UNL     1       2.228   7.216  18.763  0.00  0.00    +0.000 A 
ATOM      2  C   UNL     1       2.063   8.236  17.823  0.00  0.00    +0.000 A 
ATOM      3  C   UNL     1       1.559   9.477  18.216  0.00  0.00    +0.000 A 
ATOM      4  C   UNL     1       1.233   9.725  19.554  0.00  0.00    +0.000 A 
ATOM      5  C   UNL     1       1.435   8.713  20.501  0.00  0.00    +0.000 A 
ATOM      6  C   UNL     1       1.925   7.465  20.108  0.00  0.00    +0.000 A 
ENDROOT
BRANCH   1  15
ATOM      7  C   UNL     1       3.777   5.665  17.493  0.00  0.00    +0.000 A 
ATOM      8  N   UNL     1       3.895   4.367  17.266  0.00  0.00    +0.000 NA
ATOM      9  C   UNL     1       2.942   3.768  18.038  0.00  0.00    +0.000 A 
ATOM     10  C   UNL     1       2.617   2.418  18.201  0.00  0.00    +0.000 A 
ATOM     11  C   UNL     1       1.561   2.106  19.059  0.00  0.00    +0.000 A 
ATOM     12  C   UNL     1       0.892   3.138  19.704  0.00  0.00    +0.000 A 
ATOM     13  N   UNL     1       1.171   4.456  19.586  0.00  0.00    +0.000 NA
ATOM     14  C   UNL     1       2.203   4.711  18.750  0.00  0.00    +0.000 A 
ATOM     15  N   UNL     1       2.711   5.942  18.354  0.00  0.00    +0.000 N 
BRANCH   7  17
ATOM     16  C   UNL     1       5.304   6.337  15.614  0.00  0.00    +0.000 C 
ATOM     17  C   UNL     1       4.736   6.699  16.977  0.00  0.00    +0.000 C 
ENDBRANCH   7  17
ENDBRANCH   1  15
BRANCH   4  18
ATOM     18  C   UNL     1       0.740  11.088  19.968  0.00  0.00    +0.000 C 
BRANCH  18  19
ATOM     19  C   UNL     1      -0.411  11.607  19.133  0.00  0.00    +0.000 C 
ATOM     20  O   UNL     1      -0.269  12.588  18.405  0.00  0.00    +0.000 OA
ATOM     21  N   UNL     1      -1.584  10.886  19.284  0.00  0.00    +0.000 N 
ATOM     22  H   UNL     1      -1.726  10.507  20.212  0.00  0.00    +0.000 HD
BRANCH  21  23
ATOM     23  C   UNL     1      -2.748  11.187  18.535  0.00  0.00    +0.000 A 
ATOM     24  C   UNL     1      -3.768  12.016  19.055  0.00  0.00    +0.000 A 
ATOM     25  C   UNL     1      -3.724  12.659  20.415  0.00  0.00    +0.000 C 
ATOM     26  C   UNL     1      -4.907  12.267  18.271  0.00  0.00    +0.000 A 
ATOM     27  C   UNL     1      -5.017  11.759  16.981  0.00  0.00    +0.000 A 
ATOM     28  C   UNL     1      -4.000  10.965  16.461  0.00  0.00    +0.000 A 
ATOM     29  C   UNL     1      -2.867  10.657  17.231  0.00  0.00    +0.000 A 
ATOM     30  C   UNL     1      -1.886   9.649  16.691  0.00  0.00    +0.000 C 
ENDBRANCH  21  23
ENDBRANCH  18  19
ENDBRANCH   4  18
TORSDOF 5
ENDMDL
MODEL 4
REMARK VINA RESULT:      -8.3      0.148      1.855
REMARK  Name = 
REMARK  8 active torsions:
REMARK  status: ('A' for Active; 'I' for Inactive)
REMARK    1  A    between atoms: C_1  and  C_2
REMARK    2  A    between atoms: C_2  and  C_3
REMARK    3  A    between atoms: N_11  and  C_12
REMARK    4  A    between atoms: C_15  and  C_16
REMARK    5  A    between atoms: C_16  and  C_17
REMARK    6  A    between atoms: N_19  and  C_20
REMARK    7  A    between atoms: C_21  and  C_22
REMARK    8  A    between atoms: C_26  and  C_27
REMARK                            x       y       z     vdW  Elec       q    Type
REMARK                         _______ _______ _______ _____ _____    ______ ____
ROOT
ATOM      1  C   UNL     1       2.562   7.167  18.501  0.00  0.00    +0.000 A 
ATOM      2  C   UNL     1       2.224   7.208  19.856  0.00  0.00    +0.000 A 
ATOM      3  C   UNL     1       1.580   8.327  20.385  0.00  0.00    +0.000 A 
ATOM      4  C   UNL     1       1.243   9.411  19.567  0.00  0.00    +0.000 A 
ATOM      5  C   UNL     1       1.547   9.352  18.202  0.00  0.00    +0.000 A 
ATOM      6  C   UNL     1       2.206   8.240  17.672  0.00  0.00    +0.000 A 
ENDROOT
BRANCH   1  15
ATOM      7  C   UNL     1       2.765   4.737  17.818  0.00  0.00    +0.000 A 
ATOM      8  N   UNL     1       3.705   3.920  17.369  0.00  0.00    +0.000 NA
ATOM      9  C   UNL     1       4.803   4.700  17.155  0.00  0.00    +0.000 A 
ATOM     10  C   UNL     1       6.076   4.371  16.680  0.00  0.00    +0.000 A 
ATOM     11  C   UNL     1       7.017   5.398  16.586  0.00  0.00    +0.000 A 
ATOM     12  C   UNL     1       6.649   6.683  16.964  0.00  0.00    +0.000 A 
ATOM     13  N   UNL     1       5.432   7.053  17.422  0.00  0.00    +0.000 NA
ATOM     14  C   UNL     1       4.552   6.028  17.492  0.00  0.00    +0.000 A 
ATOM     15  N   UNL     1       3.248   6.039  17.970  0.00  0.00    +0.000 N 
BRANCH   7  17
ATOM     16  C   UNL     1       1.130   3.572  19.329  0.00  0.00    +0.000 C 
ATOM     17  C   UNL     1       1.334   4.335  18.030  0.00  0.00    +0.000 C 
ENDBRANCH   7  17
ENDBRANCH   1  15
BRANCH   4  18
ATOM     18  C   UNL     1       0.499  10.587  20.147  0.00  0.00    +0.000 C 
BRANCH  18  19
ATOM     19  C   UNL     1      -0.511  11.204  19.203  0.00  0.00    +0.000 C 
ATOM     20  O   UNL     1      -0.201  12.152  18.482  0.00  0.00    +0.000 OA
ATOM     21  N   UNL     1      -1.761  10.609  19.250  0.00  0.00    +0.000 N 
ATOM     22  H   UNL     1      -2.026  10.264  20.164  0.00  0.00    +0.000 HD
BRANCH  21  23
ATOM     23  C   UNL     1      -2.813  11.013  18.393  0.00  0.00    +0.000 A 
ATOM     24  C   UNL     1      -3.836  11.880  18.835  0.00  0.00    +0.000 A 
ATOM     25  C   UNL     1      -3.910  12.463  20.221  0.00  0.00    +0.000 C 
ATOM     26  C   UNL     1      -4.863  12.234  17.944  0.00  0.00    +0.000 A 
ATOM     27  C   UNL     1      -4.855  11.788  16.626  0.00  0.00    +0.000 A 
ATOM     28  C   UNL     1      -3.832  10.955  16.184  0.00  0.00    +0.000 A 
ATOM     29  C   UNL     1      -2.813  10.545  17.059  0.00  0.00    +0.000 A 
ATOM     30  C   UNL     1      -1.836   9.502  16.583  0.00  0.00    +0.000 C 
ENDBRANCH  21  23
ENDBRANCH  18  19
ENDBRANCH   4  18
TORSDOF 5
ENDMDL
MODEL 5
REMARK VINA RESULT:      -8.3      0.920      3.277
REMARK  Name = 
REMARK  8 active torsions:
REMARK  status: ('A' for Active; 'I' for Inactive)
REMARK    1  A    between atoms: C_1  and  C_2
REMARK    2  A    between atoms: C_2  and  C_3
REMARK    3  A    between atoms: N_11  and  C_12
REMARK    4  A    between atoms: C_15  and  C_16
REMARK    5  A    between atoms: C_16  and  C_17
REMARK    6  A    between atoms: N_19  and  C_20
REMARK    7  A    between atoms: C_21  and  C_22
REMARK    8  A    between atoms: C_26  and  C_27
REMARK                            x       y       z     vdW  Elec       q    Type
REMARK                         _______ _______ _______ _____ _____    ______ ____
ROOT
ATOM      1  C   UNL     1       2.286   7.272  18.679  0.00  0.00    +0.000 A 
ATOM      2  C   UNL     1       2.004   7.468  20.033  0.00  0.00    +0.000 A 
ATOM      3  C   UNL     1       1.493   8.689  20.474  0.00  0.00    +0.000 A 
ATOM      4  C   UNL     1       1.236   9.726  19.569  0.00  0.00    +0.000 A 
ATOM      5  C   UNL     1       1.485   9.514  18.207  0.00  0.00    +0.000 A 
ATOM      6  C   UNL     1       2.010   8.298  17.765  0.00  0.00    +0.000 A 
ENDROOT
BRANCH   1  15
ATOM      7  C   UNL     1       3.986   5.841  17.464  0.00  0.00    +0.000 A 
ATOM      8  N   UNL     1       4.158   4.563  17.165  0.00  0.00    +0.000 NA
ATOM      9  C   UNL     1       3.153   3.895  17.802  0.00  0.00    +0.000 A 
ATOM     10  C   UNL     1       2.848   2.532  17.843  0.00  0.00    +0.000 A 
ATOM     11  C   UNL     1       1.725   2.142  18.575  0.00  0.00    +0.000 A 
ATOM     12  C   UNL     1       0.972   3.115  19.219  0.00  0.00    +0.000 A 
ATOM     13  N   UNL     1       1.227   4.443  19.215  0.00  0.00    +0.000 NA
ATOM     14  C   UNL     1       2.326   4.773  18.500  0.00  0.00    +0.000 A 
ATOM     15  N   UNL     1       2.838   6.038  18.236  0.00  0.00    +0.000 N 
BRANCH   7  17
ATOM     16  C   UNL     1       6.394   6.562  17.479  0.00  0.00    +0.000 C 
ATOM     17  C   UNL     1       4.964   6.925  17.111  0.00  0.00    +0.000 C 
ENDBRANCH   7  17
ENDBRANCH   1  15
BRANCH   4  18
ATOM     18  C   UNL     1       0.635  11.018  20.057  0.00  0.00    +0.000 C 
BRANCH  18  19
ATOM     19  C   UNL     1      -0.480  11.549  19.182  0.00  0.00    +0.000 C 
ATOM     20  O   UNL     1      -0.298  12.523  18.452  0.00  0.00    +0.000 OA
ATOM     21  N   UNL     1      -1.669  10.848  19.300  0.00  0.00    +0.000 N 
ATOM     22  H   UNL     1      -1.847  10.478  20.225  0.00  0.00    +0.000 HD
BRANCH  21  23
ATOM     23  C   UNL     1      -2.803  11.162  18.511  0.00  0.00    +0.000 A 
ATOM     24  C   UNL     1      -3.830  12.003  18.995  0.00  0.00    +0.000 A 
ATOM     25  C   UNL     1      -3.826  12.647  20.355  0.00  0.00    +0.000 C 
ATOM     26  C   UNL     1      -4.939  12.267  18.172  0.00  0.00    +0.000 A 
ATOM     27  C   UNL     1      -5.010  11.759  16.879  0.00  0.00    +0.000 A 
ATOM     28  C   UNL     1      -3.985  10.953  16.395  0.00  0.00    +0.000 A 
ATOM     29  C   UNL     1      -2.883  10.632  17.204  0.00  0.00    +0.000 A 
ATOM     30  C   UNL     1      -1.896   9.613  16.698  0.00  0.00    +0.000 C 
ENDBRANCH  21  23
ENDBRANCH  18  19
ENDBRANCH   4  18
TORSDOF 5
ENDMDL
MODEL 6
REMARK VINA RESULT:      -8.3      0.887      2.050
REMARK  Name = 
REMARK  8 active torsions:
REMARK  status: ('A' for Active; 'I' for Inactive)
REMARK    1  A    between atoms: C_1  and  C_2
REMARK    2  A    between atoms: C_2  and  C_3
REMARK    3  A    between atoms: N_11  and  C_12
REMARK    4  A    between atoms: C_15  and  C_16
REMARK    5  A    between atoms: C_16  and  C_17
REMARK    6  A    between atoms: N_19  and  C_20
REMARK    7  A    between atoms: C_21  and  C_22
REMARK    8  A    between atoms: C_26  and  C_27
REMARK                            x       y       z     vdW  Elec       q    Type
REMARK                         _______ _______ _______ _____ _____    ______ ____
ROOT
ATOM      1  C   UNL     1       2.790   6.881  18.313  0.00  0.00    +0.000 A 
ATOM      2  C   UNL     1       2.418   6.916  19.658  0.00  0.00    +0.000 A 
ATOM      3  C   UNL     1       1.836   8.066  20.196  0.00  0.00    +0.000 A 
ATOM      4  C   UNL     1       1.598   9.188  19.395  0.00  0.00    +0.000 A 
ATOM      5  C   UNL     1       1.937   9.137  18.037  0.00  0.00    +0.000 A 
ATOM      6  C   UNL     1       2.533   7.994  17.500  0.00  0.00    +0.000 A 
ENDROOT
BRANCH   1  15
ATOM      7  C   UNL     1       2.847   4.457  17.582  0.00  0.00    +0.000 A 
ATOM      8  N   UNL     1       3.740   3.587  17.139  0.00  0.00    +0.000 NA
ATOM      9  C   UNL     1       4.894   4.295  16.969  0.00  0.00    +0.000 A 
ATOM     10  C   UNL     1       6.154   3.890  16.518  0.00  0.00    +0.000 A 
ATOM     11  C   UNL     1       7.164   4.853  16.469  0.00  0.00    +0.000 A 
ATOM     12  C   UNL     1       6.873   6.151  16.866  0.00  0.00    +0.000 A 
ATOM     13  N   UNL     1       5.673   6.595  17.302  0.00  0.00    +0.000 NA
ATOM     14  C   UNL     1       4.724   5.631  17.328  0.00  0.00    +0.000 A 
ATOM     15  N   UNL     1       3.412   5.721  17.774  0.00  0.00    +0.000 N 
BRANCH   7  17
ATOM     16  C   UNL     1       1.147   2.888  18.563  0.00  0.00    +0.000 C 
ATOM     17  C   UNL     1       1.386   4.150  17.750  0.00  0.00    +0.000 C 
ENDBRANCH   7  17
ENDBRANCH   1  15
BRANCH   4  18
ATOM     18  C   UNL     1       0.921  10.400  19.981  0.00  0.00    +0.000 C 
BRANCH  18  19
ATOM     19  C   UNL     1      -0.587  10.390  19.847  0.00  0.00    +0.000 C 
ATOM     20  O   UNL     1      -1.272   9.608  20.504  0.00  0.00    +0.000 OA
ATOM     21  N   UNL     1      -1.076  11.315  18.939  0.00  0.00    +0.000 N 
ATOM     22  H   UNL     1      -0.471  11.483  18.145  0.00  0.00    +0.000 HD
BRANCH  21  23
ATOM     23  C   UNL     1      -2.465  11.491  18.727  0.00  0.00    +0.000 A 
ATOM     24  C   UNL     1      -3.254  12.267  19.605  0.00  0.00    +0.000 A 
ATOM     25  C   UNL     1      -2.718  12.980  20.818  0.00  0.00    +0.000 C 
ATOM     26  C   UNL     1      -4.631  12.394  19.353  0.00  0.00    +0.000 A 
ATOM     27  C   UNL     1      -5.211  11.815  18.229  0.00  0.00    +0.000 A 
ATOM     28  C   UNL     1      -4.428  11.073  17.351  0.00  0.00    +0.000 A 
ATOM     29  C   UNL     1      -3.057  10.888  17.595  0.00  0.00    +0.000 A 
ATOM     30  C   UNL     1      -2.296   9.929  16.717  0.00  0.00    +0.000 C 
ENDBRANCH  21  23
ENDBRANCH  18  19
ENDBRANCH   4  18
TORSDOF 5
ENDMDL
MODEL 7
REMARK VINA RESULT:      -8.2      0.912      1.902
REMARK  Name = 
REMARK  8 active torsions:
REMARK  status: ('A' for Active; 'I' for Inactive)
REMARK    1  A    between atoms: C_1  and  C_2
REMARK    2  A    between atoms: C_2  and  C_3
REMARK    3  A    between atoms: N_11  and  C_12
REMARK    4  A    between atoms: C_15  and  C_16
REMARK    5  A    between atoms: C_16  and  C_17
REMARK    6  A    between atoms: N_19  and  C_20
REMARK    7  A    between atoms: C_21  and  C_22
REMARK    8  A    between atoms: C_26  and  C_27
REMARK                            x       y       z     vdW  Elec       q    Type
REMARK                         _______ _______ _______ _____ _____    ______ ____
ROOT
ATOM      1  C   UNL     1       2.153   7.471  19.059  0.00  0.00    +0.000 A 
ATOM      2  C   UNL     1       1.956   8.454  18.086  0.00  0.00    +0.000 A 
ATOM      3  C   UNL     1       1.397   9.685  18.435  0.00  0.00    +0.000 A 
ATOM      4  C   UNL     1       1.047   9.960  19.762  0.00  0.00    +0.000 A 
ATOM      5  C   UNL     1       1.281   8.988  20.742  0.00  0.00    +0.000 A 
ATOM      6  C   UNL     1       1.826   7.750  20.393  0.00  0.00    +0.000 A 
ENDROOT
BRANCH   1  15
ATOM      7  C   UNL     1       2.365   4.953  19.219  0.00  0.00    +0.000 A 
ATOM      8  N   UNL     1       3.125   3.998  18.709  0.00  0.00    +0.000 NA
ATOM      9  C   UNL     1       3.920   4.612  17.785  0.00  0.00    +0.000 A 
ATOM     10  C   UNL     1       4.905   4.091  16.940  0.00  0.00    +0.000 A 
ATOM     11  C   UNL     1       5.576   4.984  16.102  0.00  0.00    +0.000 A 
ATOM     12  C   UNL     1       5.238   6.330  16.146  0.00  0.00    +0.000 A 
ATOM     13  N   UNL     1       4.290   6.881  16.937  0.00  0.00    +0.000 NA
ATOM     14  C   UNL     1       3.663   5.980  17.727  0.00  0.00    +0.000 A 
ATOM     15  N   UNL     1       2.693   6.206  18.695  0.00  0.00    +0.000 N 
BRANCH   7  17
ATOM     16  C   UNL     1       1.100   3.240  20.554  0.00  0.00    +0.000 C 
ATOM     17  C   UNL     1       1.221   4.703  20.160  0.00  0.00    +0.000 C 
ENDBRANCH   7  17
ENDBRANCH   1  15
BRANCH   4  18
ATOM     18  C   UNL     1       0.494  11.314  20.127  0.00  0.00    +0.000 C 
BRANCH  18  19
ATOM     19  C   UNL     1      -0.637  11.780  19.236  0.00  0.00    +0.000 C 
ATOM     20  O   UNL     1      -0.480  12.722  18.460  0.00  0.00    +0.000 OA
ATOM     21  N   UNL     1      -1.810  11.060  19.393  0.00  0.00    +0.000 N 
ATOM     22  H   UNL     1      -1.975  10.730  20.336  0.00  0.00    +0.000 HD
BRANCH  21  23
ATOM     23  C   UNL     1      -2.954  11.313  18.599  0.00  0.00    +0.000 A 
ATOM     24  C   UNL     1      -4.021  12.110  19.071  0.00  0.00    +0.000 A 
ATOM     25  C   UNL     1      -4.052  12.766  20.425  0.00  0.00    +0.000 C 
ATOM     26  C   UNL     1      -5.139  12.313  18.242  0.00  0.00    +0.000 A 
ATOM     27  C   UNL     1      -5.181  11.790  16.954  0.00  0.00    +0.000 A 
ATOM     28  C   UNL     1      -4.118  11.028  16.481  0.00  0.00    +0.000 A 
ATOM     29  C   UNL     1      -3.005  10.767  17.297  0.00  0.00    +0.000 A 
ATOM     30  C   UNL     1      -1.969   9.790  16.804  0.00  0.00    +0.000 C 
ENDBRANCH  21  23
ENDBRANCH  18  19
ENDBRANCH   4  18
TORSDOF 5
ENDMDL
MODEL 8
REMARK VINA RESULT:      -8.2      0.888      1.321
REMARK  Name = 
REMARK  8 active torsions:
REMARK  status: ('A' for Active; 'I' for Inactive)
REMARK    1  A    between atoms: C_1  and  C_2
REMARK    2  A    between atoms: C_2  and  C_3
REMARK    3  A    between atoms: N_11  and  C_12
REMARK    4  A    between atoms: C_15  and  C_16
REMARK    5  A    between atoms: C_16  and  C_17
REMARK    6  A    between atoms: N_19  and  C_20
REMARK    7  A    between atoms: C_21  and  C_22
REMARK    8  A    between atoms: C_26  and  C_27
REMARK                            x       y       z     vdW  Elec       q    Type
REMARK                         _______ _______ _______ _____ _____    ______ ____
ROOT
ATOM      1  C   UNL     1       2.135   7.421  19.010  0.00  0.00    +0.000 A 
ATOM      2  C   UNL     1       1.827   7.708  20.341  0.00  0.00    +0.000 A 
ATOM      3  C   UNL     1       1.320   8.961  20.690  0.00  0.00    +0.000 A 
ATOM      4  C   UNL     1       1.093   9.938  19.714  0.00  0.00    +0.000 A 
ATOM      5  C   UNL     1       1.367   9.635  18.374  0.00  0.00    +0.000 A 
ATOM      6  C   UNL     1       1.889   8.387  18.024  0.00  0.00    +0.000 A 
ENDROOT
BRANCH   1  15
ATOM      7  C   UNL     1       2.335   4.902  19.171  0.00  0.00    +0.000 A 
ATOM      8  N   UNL     1       3.109   3.946  18.683  0.00  0.00    +0.000 NA
ATOM      9  C   UNL     1       3.935   4.560  17.786  0.00  0.00    +0.000 A 
ATOM     10  C   UNL     1       4.945   4.038  16.973  0.00  0.00    +0.000 A 
ATOM     11  C   UNL     1       5.645   4.931  16.159  0.00  0.00    +0.000 A 
ATOM     12  C   UNL     1       5.309   6.278  16.195  0.00  0.00    +0.000 A 
ATOM     13  N   UNL     1       4.338   6.830  16.956  0.00  0.00    +0.000 NA
ATOM     14  C   UNL     1       3.684   5.929  17.724  0.00  0.00    +0.000 A 
ATOM     15  N   UNL     1       2.683   6.155  18.661  0.00  0.00    +0.000 N 
BRANCH   7  17
ATOM     16  C   UNL     1       1.264   3.326  20.810  0.00  0.00    +0.000 C 
ATOM     17  C   UNL     1       1.161   4.653  20.075  0.00  0.00    +0.000 C 
ENDBRANCH   7  17
ENDBRANCH   1  15
BRANCH   4  18
ATOM     18  C   UNL     1       0.495  11.265  20.103  0.00  0.00    +0.000 C 
BRANCH  18  19
ATOM     19  C   UNL     1      -0.625  11.727  19.196  0.00  0.00    +0.000 C 
ATOM     20  O   UNL     1      -0.451  12.649  18.400  0.00  0.00    +0.000 OA
ATOM     21  N   UNL     1      -1.809  11.028  19.364  0.00  0.00    +0.000 N 
ATOM     22  H   UNL     1      -1.983  10.721  20.313  0.00  0.00    +0.000 HD
BRANCH  21  23
ATOM     23  C   UNL     1      -2.946  11.279  18.559  0.00  0.00    +0.000 A 
ATOM     24  C   UNL     1      -3.065  10.741  17.258  0.00  0.00    +0.000 A 
ATOM     25  C   UNL     1      -2.033   9.857  16.611  0.00  0.00    +0.000 C 
ATOM     26  C   UNL     1      -4.210  11.038  16.499  0.00  0.00    +0.000 A 
ATOM     27  C   UNL     1      -5.243  11.804  17.029  0.00  0.00    +0.000 A 
ATOM     28  C   UNL     1      -5.136  12.312  18.320  0.00  0.00    +0.000 A 
ATOM     29  C   UNL     1      -3.987  12.072  19.091  0.00  0.00    +0.000 A 
ATOM     30  C   UNL     1      -3.844  12.793  20.406  0.00  0.00    +0.000 C 
ENDBRANCH  21  23
ENDBRANCH  18  19
ENDBRANCH   4  18
TORSDOF 5
ENDMDL
MODEL 9
REMARK VINA RESULT:      -8.2      0.851      1.267
REMARK  Name = 
REMARK  8 active torsions:
REMARK  status: ('A' for Active; 'I' for Inactive)
REMARK    1  A    between atoms: C_1  and  C_2
REMARK    2  A    between atoms: C_2  and  C_3
REMARK    3  A    between atoms: N_11  and  C_12
REMARK    4  A    between atoms: C_15  and  C_16
REMARK    5  A    between atoms: C_16  and  C_17
REMARK    6  A    between atoms: N_19  and  C_20
REMARK    7  A    between atoms: C_21  and  C_22
REMARK    8  A    between atoms: C_26  and  C_27
REMARK                            x       y       z     vdW  Elec       q    Type
REMARK                         _______ _______ _______ _____ _____    ______ ____
ROOT
ATOM      1  C   UNL     1       2.725   7.098  18.354  0.00  0.00    +0.000 A 
ATOM      2  C   UNL     1       2.326   7.206  19.688  0.00  0.00    +0.000 A 
ATOM      3  C   UNL     1       1.628   8.334  20.123  0.00  0.00    +0.000 A 
ATOM      4  C   UNL     1       1.300   9.360  19.229  0.00  0.00    +0.000 A 
ATOM      5  C   UNL     1       1.668   9.232  17.884  0.00  0.00    +0.000 A 
ATOM      6  C   UNL     1       2.379   8.111  17.450  0.00  0.00    +0.000 A 
ENDROOT
BRANCH   1  15
ATOM      7  C   UNL     1       3.008   4.651  17.768  0.00  0.00    +0.000 A 
ATOM      8  N   UNL     1       3.989   3.831  17.428  0.00  0.00    +0.000 NA
ATOM      9  C   UNL     1       5.096   4.617  17.284  0.00  0.00    +0.000 A 
ATOM     10  C   UNL     1       6.407   4.288  16.930  0.00  0.00    +0.000 A 
ATOM     11  C   UNL     1       7.344   5.323  16.884  0.00  0.00    +0.000 A 
ATOM     12  C   UNL     1       6.933   6.614  17.188  0.00  0.00    +0.000 A 
ATOM     13  N   UNL     1       5.678   6.985  17.529  0.00  0.00    +0.000 NA
ATOM     14  C   UNL     1       4.805   5.952  17.556  0.00  0.00    +0.000 A 
ATOM     15  N   UNL     1       3.464   5.963  17.920  0.00  0.00    +0.000 N 
BRANCH   7  17
ATOM     16  C   UNL     1       1.277   3.443  19.132  0.00  0.00    +0.000 C 
ATOM     17  C   UNL     1       1.567   4.240  17.870  0.00  0.00    +0.000 C 
ENDBRANCH   7  17
ENDBRANCH   1  15
BRANCH   4  18
ATOM     18  C   UNL     1       0.500  10.545  19.707  0.00  0.00    +0.000 C 
BRANCH  18  19
ATOM     19  C   UNL     1      -0.972  10.475  19.361  0.00  0.00    +0.000 C 
ATOM     20  O   UNL     1      -1.604   9.430  19.507  0.00  0.00    +0.000 OA
ATOM     21  N   UNL     1      -1.493  11.665  18.880  0.00  0.00    +0.000 N 
ATOM     22  H   UNL     1      -0.843  12.217  18.335  0.00  0.00    +0.000 HD
BRANCH  21  23
ATOM     23  C   UNL     1      -2.866  11.805  18.564  0.00  0.00    +0.000 A 
ATOM     24  C   UNL     1      -3.380  11.415  17.307  0.00  0.00    +0.000 A 
ATOM     25  C   UNL     1      -2.551  10.813  16.204  0.00  0.00    +0.000 C 
ATOM     26  C   UNL     1      -4.750  11.593  17.045  0.00  0.00    +0.000 A 
ATOM     27  C   UNL     1      -5.607  12.093  18.019  0.00  0.00    +0.000 A 
ATOM     28  C   UNL     1      -5.104  12.452  19.265  0.00  0.00    +0.000 A 
ATOM     29  C   UNL     1      -3.734  12.330  19.548  0.00  0.00    +0.000 A 
ATOM     30  C   UNL     1      -3.215  12.901  20.841  0.00  0.00    +0.000 C 
ENDBRANCH  21  23
ENDBRANCH  18  19
ENDBRANCH   4  18
TORSDOF 5
ENDMDL
