MODEL 1
REMARK VINA RESULT:      -7.5      0.000      0.000
REMARK  Name = 
REMARK  5 active torsions:
REMARK  status: ('A' for Active; 'I' for Inactive)
REMARK    1  A    between atoms: C_1  and  O_2
REMARK    2  A    between atoms: O_2  and  C_3
REMARK    3  A    between atoms: C_7  and  N_8
REMARK    4  A    between atoms: C_9  and  C_12
REMARK    5  A    between atoms: N_10  and  O_11
REMARK                            x       y       z     vdW  Elec       q    Type
REMARK                         _______ _______ _______ _____ _____    ______ ____
ROOT
ATOM      1  N   UNL     1       4.003   3.927  16.908  0.00  0.00    +0.000 N 
ATOM      2  C   UNL     1       5.354   4.125  17.174  0.00  0.00    +0.000 C 
ATOM      3  N   UNL     1       6.122   4.039  18.218  0.00  0.00    +0.000 NA
ATOM      4  H   UNL     1       3.767   3.906  15.919  0.00  0.00    +0.000 HD
ENDROOT
BRANCH   2   5
ATOM      5  C   UNL     1       6.082   4.455  15.942  0.00  0.00    +0.000 A 
ATOM      6  N   UNL     1       5.956   3.714  14.821  0.00  0.00    +0.000 NA
ATOM      7  O   UNL     1       6.828   4.297  13.906  0.00  0.00    +0.000 OA
ATOM      8  N   UNL     1       7.496   5.375  14.454  0.00  0.00    +0.000 NA
ATOM      9  C   UNL     1       7.040   5.478  15.699  0.00  0.00    +0.000 A 
ATOM     10  N   UNL     1       7.459   6.403  16.590  0.00  0.00    +0.000 N 
ATOM     11  H   UNL     1       8.319   6.905  16.405  0.00  0.00    +0.000 HD
ATOM     12  H   UNL     1       7.250   6.265  17.577  0.00  0.00    +0.000 HD
ENDBRANCH   2   5
BRANCH   1  17
ATOM     13  C   UNL     1       1.494   4.291  19.649  0.00  0.00    +0.000 A 
ATOM     14  C   UNL     1       0.992   2.993  19.695  0.00  0.00    +0.000 A 
ATOM     15  C   UNL     1       1.391   2.054  18.747  0.00  0.00    +0.000 A 
ATOM     16  C   UNL     1       2.355   2.396  17.795  0.00  0.00    +0.000 A 
ATOM     17  C   UNL     1       2.907   3.687  17.753  0.00  0.00    +0.000 A 
ATOM     18  C   UNL     1       2.392   4.640  18.638  0.00  0.00    +0.000 A 
BRANCH  13  20
ATOM     19  C   UNL     1       1.659   6.411  20.715  0.00  0.00    +0.000 C 
ATOM     20  O   UNL     1       1.063   5.118  20.650  0.00  0.00    +0.000 OA
ENDBRANCH  13  20
ENDBRANCH   1  17
BRANCH   3  21
ATOM     21  O   UNL     1       5.506   3.534  19.355  0.00  0.00    +0.000 OA
ATOM     22  H   UNL     1       4.580   3.814  19.240  0.00  0.00    +0.000 HD
ENDBRANCH   3  21
TORSDOF 4
ENDMDL
MODEL 2
REMARK VINA RESULT:      -7.3      1.832      2.971
REMARK  Name = 
REMARK  5 active torsions:
REMARK  status: ('A' for Active; 'I' for Inactive)
REMARK    1  A    between atoms: C_1  and  O_2
REMARK    2  A    between atoms: O_2  and  C_3
REMARK    3  A    between atoms: C_7  and  N_8
REMARK    4  A    between atoms: C_9  and  C_12
REMARK    5  A    between atoms: N_10  and  O_11
REMARK                            x       y       z     vdW  Elec       q    Type
REMARK                         _______ _______ _______ _____ _____    ______ ____
ROOT
ATOM      1  N   UNL     1       5.338   4.608  15.808  0.00  0.00    +0.000 N 
ATOM      2  C   UNL     1       6.727   4.625  15.765  0.00  0.00    +0.000 C 
ATOM      3  N   UNL     1       7.689   4.468  16.624  0.00  0.00    +0.000 NA
ATOM      4  H   UNL     1       4.888   4.587  14.895  0.00  0.00    +0.000 HD
ENDROOT
BRANCH   2   5
ATOM      5  C   UNL     1       7.202   4.810  14.389  0.00  0.00    +0.000 A 
ATOM      6  N   UNL     1       8.090   5.773  14.065  0.00  0.00    +0.000 NA
ATOM      7  O   UNL     1       8.246   5.669  12.686  0.00  0.00    +0.000 OA
ATOM      8  N   UNL     1       7.457   4.666  12.157  0.00  0.00    +0.000 NA
ATOM      9  C   UNL     1       6.819   4.134  13.197  0.00  0.00    +0.000 A 
ATOM     10  N   UNL     1       5.924   3.126  13.106  0.00  0.00    +0.000 N 
ATOM     11  H   UNL     1       5.532   2.901  12.200  0.00  0.00    +0.000 HD
ATOM     12  H   UNL     1       5.306   2.945  13.895  0.00  0.00    +0.000 HD
ENDBRANCH   2   5
BRANCH   1  17
ATOM     13  C   UNL     1       2.798   3.351  18.240  0.00  0.00    +0.000 A 
ATOM     14  C   UNL     1       2.323   4.559  18.743  0.00  0.00    +0.000 A 
ATOM     15  C   UNL     1       2.927   5.759  18.372  0.00  0.00    +0.000 A 
ATOM     16  C   UNL     1       3.962   5.753  17.434  0.00  0.00    +0.000 A 
ATOM     17  C   UNL     1       4.433   4.551  16.881  0.00  0.00    +0.000 A 
ATOM     18  C   UNL     1       3.891   3.358  17.370  0.00  0.00    +0.000 A 
BRANCH  13  20
ATOM     19  C   UNL     1       0.714   2.406  18.886  0.00  0.00    +0.000 C 
ATOM     20  O   UNL     1       2.108   2.240  18.641  0.00  0.00    +0.000 OA
ENDBRANCH  13  20
ENDBRANCH   1  17
BRANCH   3  21
ATOM     21  O   UNL     1       7.280   4.091  17.896  0.00  0.00    +0.000 OA
ATOM     22  H   UNL     1       7.149   4.948  18.342  0.00  0.00    +0.000 HD
ENDBRANCH   3  21
TORSDOF 4
ENDMDL
MODEL 3
REMARK VINA RESULT:      -7.1      0.975      1.572
REMARK  Name = 
REMARK  5 active torsions:
REMARK  status: ('A' for Active; 'I' for Inactive)
REMARK    1  A    between atoms: C_1  and  O_2
REMARK    2  A    between atoms: O_2  and  C_3
REMARK    3  A    between atoms: C_7  and  N_8
REMARK    4  A    between atoms: C_9  and  C_12
REMARK    5  A    between atoms: N_10  and  O_11
REMARK                            x       y       z     vdW  Elec       q    Type
REMARK                         _______ _______ _______ _____ _____    ______ ____
ROOT
ATOM      1  N   UNL     1       4.399   4.806  17.049  0.00  0.00    +0.000 N 
ATOM      2  C   UNL     1       5.744   4.619  17.346  0.00  0.00    +0.000 C 
ATOM      3  N   UNL     1       6.421   4.127  18.340  0.00  0.00    +0.000 NA
ATOM      4  H   UNL     1       4.212   5.060  16.082  0.00  0.00    +0.000 HD
ENDROOT
BRANCH   2   5
ATOM      5  C   UNL     1       6.587   5.033  16.218  0.00  0.00    +0.000 A 
ATOM      6  N   UNL     1       7.361   6.137  16.276  0.00  0.00    +0.000 NA
ATOM      7  O   UNL     1       7.954   6.226  15.020  0.00  0.00    +0.000 OA
ATOM      8  N   UNL     1       7.544   5.202  14.188  0.00  0.00    +0.000 NA
ATOM      9  C   UNL     1       6.710   4.466  14.919  0.00  0.00    +0.000 A 
ATOM     10  N   UNL     1       6.065   3.369  14.466  0.00  0.00    +0.000 N 
ATOM     11  H   UNL     1       6.017   3.209  13.467  0.00  0.00    +0.000 HD
ATOM     12  H   UNL     1       5.271   3.013  14.994  0.00  0.00    +0.000 HD
ENDBRANCH   2   5
BRANCH   1  17
ATOM     13  C   UNL     1       1.869   5.203  19.767  0.00  0.00    +0.000 A 
ATOM     14  C   UNL     1       1.135   4.033  19.590  0.00  0.00    +0.000 A 
ATOM     15  C   UNL     1       1.400   3.196  18.508  0.00  0.00    +0.000 A 
ATOM     16  C   UNL     1       2.456   3.495  17.643  0.00  0.00    +0.000 A 
ATOM     17  C   UNL     1       3.237   4.648  17.824  0.00  0.00    +0.000 A 
ATOM     18  C   UNL     1       2.863   5.530  18.843  0.00  0.00    +0.000 A 
BRANCH  13  20
ATOM     19  C   UNL     1       1.549   7.346  20.746  0.00  0.00    +0.000 C 
ATOM     20  O   UNL     1       1.549   5.928  20.882  0.00  0.00    +0.000 OA
ENDBRANCH  13  20
ENDBRANCH   1  17
BRANCH   3  21
ATOM     21  O   UNL     1       5.652   3.542  19.336  0.00  0.00    +0.000 OA
ATOM     22  H   UNL     1       4.917   3.144  18.835  0.00  0.00    +0.000 HD
ENDBRANCH   3  21
TORSDOF 4
ENDMDL
MODEL 4
REMARK VINA RESULT:      -7.0      2.850      6.268
REMARK  Name = 
REMARK  5 active torsions:
REMARK  status: ('A' for Active; 'I' for Inactive)
REMARK    1  A    between atoms: C_1  and  O_2
REMARK    2  A    between atoms: O_2  and  C_3
REMARK    3  A    between atoms: C_7  and  N_8
REMARK    4  A    between atoms: C_9  and  C_12
REMARK    5  A    between atoms: N_10  and  O_11
REMARK                            x       y       z     vdW  Elec       q    Type
REMARK                         _______ _______ _______ _____ _____    ______ ____
ROOT
ATOM      1  N   UNL     1       4.395   3.783  18.580  0.00  0.00    +0.000 N 
ATOM      2  C   UNL     1       3.323   4.390  19.224  0.00  0.00    +0.000 C 
ATOM      3  N   UNL     1       2.597   5.450  19.030  0.00  0.00    +0.000 NA
ATOM      4  H   UNL     1       4.607   2.844  18.907  0.00  0.00    +0.000 HD
ENDROOT
BRANCH   2   5
ATOM      5  C   UNL     1       2.881   3.585  20.369  0.00  0.00    +0.000 A 
ATOM      6  N   UNL     1       3.741   2.820  21.074  0.00  0.00    +0.000 NA
ATOM      7  O   UNL     1       2.953   2.177  22.025  0.00  0.00    +0.000 OA
ATOM      8  N   UNL     1       1.622   2.526  21.904  0.00  0.00    +0.000 NA
ATOM      9  C   UNL     1       1.574   3.391  20.893  0.00  0.00    +0.000 A 
ATOM     10  N   UNL     1       0.439   3.962  20.433  0.00  0.00    +0.000 N 
ATOM     11  H   UNL     1      -0.452   3.560  20.698  0.00  0.00    +0.000 HD
ATOM     12  H   UNL     1       0.451   4.410  19.519  0.00  0.00    +0.000 HD
ENDBRANCH   2   5
BRANCH   1  17
ATOM     13  C   UNL     1       6.858   5.717  16.546  0.00  0.00    +0.000 A 
ATOM     14  C   UNL     1       6.502   5.297  15.267  0.00  0.00    +0.000 A 
ATOM     15  C   UNL     1       5.549   4.295  15.098  0.00  0.00    +0.000 A 
ATOM     16  C   UNL     1       4.895   3.766  16.214  0.00  0.00    +0.000 A 
ATOM     17  C   UNL     1       5.207   4.202  17.512  0.00  0.00    +0.000 A 
ATOM     18  C   UNL     1       6.256   5.116  17.653  0.00  0.00    +0.000 A 
BRANCH  13  20
ATOM     19  C   UNL     1       7.555   7.752  17.561  0.00  0.00    +0.000 C 
ATOM     20  O   UNL     1       7.775   6.731  16.592  0.00  0.00    +0.000 OA
ENDBRANCH  13  20
ENDBRANCH   1  17
BRANCH   3  21
ATOM     21  O   UNL     1       2.855   6.126  17.846  0.00  0.00    +0.000 OA
ATOM     22  H   UNL     1       2.412   6.983  17.986  0.00  0.00    +0.000 HD
ENDBRANCH   3  21
TORSDOF 4
ENDMDL
MODEL 5
REMARK VINA RESULT:      -7.0      1.939      2.907
REMARK  Name = 
REMARK  5 active torsions:
REMARK  status: ('A' for Active; 'I' for Inactive)
REMARK    1  A    between atoms: C_1  and  O_2
REMARK    2  A    between atoms: O_2  and  C_3
REMARK    3  A    between atoms: C_7  and  N_8
REMARK    4  A    between atoms: C_9  and  C_12
REMARK    5  A    between atoms: N_10  and  O_11
REMARK                            x       y       z     vdW  Elec       q    Type
REMARK                         _______ _______ _______ _____ _____    ______ ____
ROOT
ATOM      1  N   UNL     1       5.235   4.417  15.741  0.00  0.00    +0.000 N 
ATOM      2  C   UNL     1       6.565   4.516  15.347  0.00  0.00    +0.000 C 
ATOM      3  N   UNL     1       7.708   4.660  15.948  0.00  0.00    +0.000 NA
ATOM      4  H   UNL     1       4.598   4.123  15.004  0.00  0.00    +0.000 HD
ENDROOT
BRANCH   2   5
ATOM      5  C   UNL     1       6.688   4.359  13.893  0.00  0.00    +0.000 A 
ATOM      6  N   UNL     1       5.910   3.500  13.201  0.00  0.00    +0.000 NA
ATOM      7  O   UNL     1       6.355   3.591  11.886  0.00  0.00    +0.000 OA
ATOM      8  N   UNL     1       7.404   4.482  11.763  0.00  0.00    +0.000 NA
ATOM      9  C   UNL     1       7.609   4.957  12.989  0.00  0.00    +0.000 A 
ATOM     10  N   UNL     1       8.572   5.850  13.308  0.00  0.00    +0.000 N 
ATOM     11  H   UNL     1       9.329   6.007  12.654  0.00  0.00    +0.000 HD
ATOM     12  H   UNL     1       8.821   5.973  14.287  0.00  0.00    +0.000 HD
ENDBRANCH   2   5
BRANCH   1  17
ATOM     13  C   UNL     1       3.257   3.745  18.836  0.00  0.00    +0.000 A 
ATOM     14  C   UNL     1       3.015   5.049  19.259  0.00  0.00    +0.000 A 
ATOM     15  C   UNL     1       3.608   6.122  18.598  0.00  0.00    +0.000 A 
ATOM     16  C   UNL     1       4.385   5.890  17.460  0.00  0.00    +0.000 A 
ATOM     17  C   UNL     1       4.611   4.587  16.989  0.00  0.00    +0.000 A 
ATOM     18  C   UNL     1       4.107   3.527  17.749  0.00  0.00    +0.000 A 
BRANCH  13  20
ATOM     19  C   UNL     1       1.214   2.594  19.233  0.00  0.00    +0.000 C 
ATOM     20  O   UNL     1       2.595   2.772  19.535  0.00  0.00    +0.000 OA
ENDBRANCH  13  20
ENDBRANCH   1  17
BRANCH   3  21
ATOM     21  O   UNL     1       7.649   4.610  17.333  0.00  0.00    +0.000 OA
ATOM     22  H   UNL     1       6.731   4.880  17.520  0.00  0.00    +0.000 HD
ENDBRANCH   3  21
TORSDOF 4
ENDMDL
MODEL 6
REMARK VINA RESULT:      -6.9      2.184      2.591
REMARK  Name = 
REMARK  5 active torsions:
REMARK  status: ('A' for Active; 'I' for Inactive)
REMARK    1  A    between atoms: C_1  and  O_2
REMARK    2  A    between atoms: O_2  and  C_3
REMARK    3  A    between atoms: C_7  and  N_8
REMARK    4  A    between atoms: C_9  and  C_12
REMARK    5  A    between atoms: N_10  and  O_11
REMARK                            x       y       z     vdW  Elec       q    Type
REMARK                         _______ _______ _______ _____ _____    ______ ____
ROOT
ATOM      1  N   UNL     1       4.238   5.507  18.168  0.00  0.00    +0.000 N 
ATOM      2  C   UNL     1       5.565   5.200  18.449  0.00  0.00    +0.000 C 
ATOM      3  N   UNL     1       6.203   4.181  18.940  0.00  0.00    +0.000 NA
ATOM      4  H   UNL     1       4.109   6.346  17.607  0.00  0.00    +0.000 HD
ENDROOT
BRANCH   2   5
ATOM      5  C   UNL     1       6.451   6.291  18.025  0.00  0.00    +0.000 A 
ATOM      6  N   UNL     1       6.159   7.073  16.964  0.00  0.00    +0.000 NA
ATOM      7  O   UNL     1       7.243   7.937  16.845  0.00  0.00    +0.000 OA
ATOM      8  N   UNL     1       8.202   7.687  17.808  0.00  0.00    +0.000 NA
ATOM      9  C   UNL     1       7.719   6.682  18.535  0.00  0.00    +0.000 A 
ATOM     10  N   UNL     1       8.367   6.116  19.577  0.00  0.00    +0.000 N 
ATOM     11  H   UNL     1       9.359   6.289  19.687  0.00  0.00    +0.000 HD
ATOM     12  H   UNL     1       8.051   5.210  19.917  0.00  0.00    +0.000 HD
ENDBRANCH   2   5
BRANCH   1  17
ATOM     13  C   UNL     1       1.496   3.806  20.048  0.00  0.00    +0.000 A 
ATOM     14  C   UNL     1       0.866   3.133  19.004  0.00  0.00    +0.000 A 
ATOM     15  C   UNL     1       1.269   3.347  17.688  0.00  0.00    +0.000 A 
ATOM     16  C   UNL     1       2.359   4.179  17.423  0.00  0.00    +0.000 A 
ATOM     17  C   UNL     1       3.038   4.837  18.462  0.00  0.00    +0.000 A 
ATOM     18  C   UNL     1       2.528   4.701  19.757  0.00  0.00    +0.000 A 
BRANCH  13  20
ATOM     19  C   UNL     1       1.755   2.477  22.003  0.00  0.00    +0.000 C 
ATOM     20  O   UNL     1       1.044   3.492  21.300  0.00  0.00    +0.000 OA
ENDBRANCH  13  20
ENDBRANCH   1  17
BRANCH   3  21
ATOM     21  O   UNL     1       5.421   3.056  19.164  0.00  0.00    +0.000 OA
ATOM     22  H   UNL     1       6.079   2.386  19.426  0.00  0.00    +0.000 HD
ENDBRANCH   3  21
TORSDOF 4
ENDMDL
MODEL 7
REMARK VINA RESULT:      -6.9      1.679      2.701
REMARK  Name = 
REMARK  5 active torsions:
REMARK  status: ('A' for Active; 'I' for Inactive)
REMARK    1  A    between atoms: C_1  and  O_2
REMARK    2  A    between atoms: O_2  and  C_3
REMARK    3  A    between atoms: C_7  and  N_8
REMARK    4  A    between atoms: C_9  and  C_12
REMARK    5  A    between atoms: N_10  and  O_11
REMARK                            x       y       z     vdW  Elec       q    Type
REMARK                         _______ _______ _______ _____ _____    ______ ____
ROOT
ATOM      1  N   UNL     1       4.821   5.307  17.815  0.00  0.00    +0.000 N 
ATOM      2  C   UNL     1       6.210   5.246  17.794  0.00  0.00    +0.000 C 
ATOM      3  N   UNL     1       7.157   5.241  18.684  0.00  0.00    +0.000 NA
ATOM      4  H   UNL     1       4.377   5.102  16.923  0.00  0.00    +0.000 HD
ENDROOT
BRANCH   2   5
ATOM      5  C   UNL     1       6.702   5.092  16.420  0.00  0.00    +0.000 A 
ATOM      6  N   UNL     1       7.449   6.042  15.820  0.00  0.00    +0.000 NA
ATOM      7  O   UNL     1       7.669   5.566  14.531  0.00  0.00    +0.000 OA
ATOM      8  N   UNL     1       7.057   4.345  14.327  0.00  0.00    +0.000 NA
ATOM      9  C   UNL     1       6.466   4.048  15.483  0.00  0.00    +0.000 A 
ATOM     10  N   UNL     1       5.734   2.934  15.700  0.00  0.00    +0.000 N 
ATOM     11  H   UNL     1       5.413   2.398  14.903  0.00  0.00    +0.000 HD
ATOM     12  H   UNL     1       5.122   2.900  16.512  0.00  0.00    +0.000 HD
ENDBRANCH   2   5
BRANCH   1  17
ATOM     13  C   UNL     1       2.439   4.733  20.633  0.00  0.00    +0.000 A 
ATOM     14  C   UNL     1       1.773   5.956  20.643  0.00  0.00    +0.000 A 
ATOM     15  C   UNL     1       2.197   6.991  19.814  0.00  0.00    +0.000 A 
ATOM     16  C   UNL     1       3.245   6.775  18.915  0.00  0.00    +0.000 A 
ATOM     17  C   UNL     1       3.907   5.538  18.858  0.00  0.00    +0.000 A 
ATOM     18  C   UNL     1       3.541   4.563  19.791  0.00  0.00    +0.000 A 
BRANCH  13  20
ATOM     19  C   UNL     1       1.599   2.521  20.867  0.00  0.00    +0.000 C 
ATOM     20  O   UNL     1       1.915   3.777  21.460  0.00  0.00    +0.000 OA
ENDBRANCH  13  20
ENDBRANCH   1  17
BRANCH   3  21
ATOM     21  O   UNL     1       6.721   5.182  20.000  0.00  0.00    +0.000 OA
ATOM     22  H   UNL     1       7.120   5.979  20.394  0.00  0.00    +0.000 HD
ENDBRANCH   3  21
TORSDOF 4
ENDMDL
MODEL 8
REMARK VINA RESULT:      -6.8      2.364      2.968
REMARK  Name = 
REMARK  5 active torsions:
REMARK  status: ('A' for Active; 'I' for Inactive)
REMARK    1  A    between atoms: C_1  and  O_2
REMARK    2  A    between atoms: O_2  and  C_3
REMARK    3  A    between atoms: C_7  and  N_8
REMARK    4  A    between atoms: C_9  and  C_12
REMARK    5  A    between atoms: N_10  and  O_11
REMARK                            x       y       z     vdW  Elec       q    Type
REMARK                         _______ _______ _______ _____ _____    ______ ____
ROOT
ATOM      1  N   UNL     1       4.574   5.591  18.331  0.00  0.00    +0.000 N 
ATOM      2  C   UNL     1       5.769   5.254  17.705  0.00  0.00    +0.000 C 
ATOM      3  N   UNL     1       6.208   4.248  17.011  0.00  0.00    +0.000 NA
ATOM      4  H   UNL     1       4.516   6.559  18.637  0.00  0.00    +0.000 HD
ENDROOT
BRANCH   2   5
ATOM      5  C   UNL     1       6.741   6.348  17.821  0.00  0.00    +0.000 A 
ATOM      6  N   UNL     1       6.779   7.364  16.934  0.00  0.00    +0.000 NA
ATOM      7  O   UNL     1       7.850   8.155  17.340  0.00  0.00    +0.000 OA
ATOM      8  N   UNL     1       8.477   7.632  18.454  0.00  0.00    +0.000 NA
ATOM      9  C   UNL     1       7.799   6.527  18.755  0.00  0.00    +0.000 A 
ATOM     10  N   UNL     1       8.106   5.700  19.779  0.00  0.00    +0.000 N 
ATOM     11  H   UNL     1       9.019   5.775  20.210  0.00  0.00    +0.000 HD
ATOM     12  H   UNL     1       7.703   4.766  19.793  0.00  0.00    +0.000 HD
ENDBRANCH   2   5
BRANCH   1  17
ATOM     13  C   UNL     1       2.174   3.087  19.715  0.00  0.00    +0.000 A 
ATOM     14  C   UNL     1       1.193   3.117  18.727  0.00  0.00    +0.000 A 
ATOM     15  C   UNL     1       1.270   4.045  17.691  0.00  0.00    +0.000 A 
ATOM     16  C   UNL     1       2.375   4.895  17.602  0.00  0.00    +0.000 A 
ATOM     17  C   UNL     1       3.398   4.857  18.564  0.00  0.00    +0.000 A 
ATOM     18  C   UNL     1       3.226   4.003  19.658  0.00  0.00    +0.000 A 
BRANCH  13  20
ATOM     19  C   UNL     1       1.499   2.524  21.925  0.00  0.00    +0.000 C 
ATOM     20  O   UNL     1       2.017   2.113  20.663  0.00  0.00    +0.000 OA
ENDBRANCH  13  20
ENDBRANCH   1  17
BRANCH   3  21
ATOM     21  O   UNL     1       5.253   3.286  16.709  0.00  0.00    +0.000 OA
ATOM     22  H   UNL     1       5.484   2.557  17.313  0.00  0.00    +0.000 HD
ENDBRANCH   3  21
TORSDOF 4
ENDMDL
MODEL 9
REMARK VINA RESULT:      -6.8      2.747      6.533
REMARK  Name = 
REMARK  5 active torsions:
REMARK  status: ('A' for Active; 'I' for Inactive)
REMARK    1  A    between atoms: C_1  and  O_2
REMARK    2  A    between atoms: O_2  and  C_3
REMARK    3  A    between atoms: C_7  and  N_8
REMARK    4  A    between atoms: C_9  and  C_12
REMARK    5  A    between atoms: N_10  and  O_11
REMARK                            x       y       z     vdW  Elec       q    Type
REMARK                         _______ _______ _______ _____ _____    ______ ____
ROOT
ATOM      1  N   UNL     1       4.310   3.773  18.793  0.00  0.00    +0.000 N 
ATOM      2  C   UNL     1       3.572   2.613  18.996  0.00  0.00    +0.000 C 
ATOM      3  N   UNL     1       3.453   1.466  18.398  0.00  0.00    +0.000 NA
ATOM      4  H   UNL     1       4.296   4.425  19.575  0.00  0.00    +0.000 HD
ENDROOT
BRANCH   2   5
ATOM      5  C   UNL     1       2.783   2.710  20.231  0.00  0.00    +0.000 A 
ATOM      6  N   UNL     1       3.362   2.677  21.450  0.00  0.00    +0.000 NA
ATOM      7  O   UNL     1       2.304   2.736  22.351  0.00  0.00    +0.000 OA
ATOM      8  N   UNL     1       1.084   2.790  21.704  0.00  0.00    +0.000 NA
ATOM      9  C   UNL     1       1.373   2.778  20.405  0.00  0.00    +0.000 A 
ATOM     10  N   UNL     1       0.449   2.797  19.419  0.00  0.00    +0.000 N 
ATOM     11  H   UNL     1      -0.513   2.580  19.648  0.00  0.00    +0.000 HD
ATOM     12  H   UNL     1       0.733   2.540  18.476  0.00  0.00    +0.000 HD
ENDBRANCH   2   5
BRANCH   1  17
ATOM     13  C   UNL     1       5.597   4.399  15.344  0.00  0.00    +0.000 A 
ATOM     14  C   UNL     1       6.942   4.627  15.623  0.00  0.00    +0.000 A 
ATOM     15  C   UNL     1       7.382   4.697  16.942  0.00  0.00    +0.000 A 
ATOM     16  C   UNL     1       6.484   4.462  17.986  0.00  0.00    +0.000 A 
ATOM     17  C   UNL     1       5.130   4.190  17.730  0.00  0.00    +0.000 A 
ATOM     18  C   UNL     1       4.697   4.253  16.402  0.00  0.00    +0.000 A 
BRANCH  13  20
ATOM     19  C   UNL     1       6.239   3.677  13.171  0.00  0.00    +0.000 C 
ATOM     20  O   UNL     1       5.283   4.313  14.015  0.00  0.00    +0.000 OA
ENDBRANCH  13  20
ENDBRANCH   1  17
BRANCH   3  21
ATOM     21  O   UNL     1       4.333   1.264  17.344  0.00  0.00    +0.000 OA
ATOM     22  H   UNL     1       3.768   1.406  16.562  0.00  0.00    +0.000 HD
ENDBRANCH   3  21
TORSDOF 4
ENDMDL
