MODEL 1
REMARK VINA RESULT:      -5.3      0.000      0.000
REMARK  Name = 
REMARK  23 active torsions:
REMARK  status: ('A' for Active; 'I' for Inactive)
REMARK    1  A    between atoms: C_1  and  C_2
REMARK    2  A    between atoms: C_2  and  C_3
REMARK    3  A    between atoms: C_3  and  C_4
REMARK    4  A    between atoms: C_4  and  C_5
REMARK    5  A    between atoms: C_5  and  C_6
REMARK    6  A    between atoms: C_6  and  C_7
REMARK    7  A    between atoms: C_7  and  C_8
REMARK    8  A    between atoms: C_8  and  C_9
REMARK    9  A    between atoms: C_9  and  C_10
REMARK   10  A    between atoms: C_10  and  C_11
REMARK   11  A    between atoms: C_11  and  C_12
REMARK   12  A    between atoms: C_12  and  C_13
REMARK   13  A    between atoms: C_13  and  C_14
REMARK   14  A    between atoms: C_14  and  C_15
REMARK   15  A    between atoms: C_15  and  C_16
REMARK   16  A    between atoms: C_16  and  O_17
REMARK   17  A    between atoms: C_16  and  C_18
REMARK   18  A    between atoms: C_18  and  N_19
REMARK   19  A    between atoms: N_19  and  C_20
REMARK   20  A    between atoms: N_19  and  C_21
REMARK   21  A    between atoms: N_19  and  C_22
REMARK   22  A    between atoms: C_22  and  C_23
REMARK   23  A    between atoms: C_23  and  O_24
REMARK                            x       y       z     vdW  Elec       q    Type
REMARK                         _______ _______ _______ _____ _____    ______ ____
ROOT
ATOM      1  C   UNL     1       8.317   7.267  18.718  0.00  0.00    +0.000 C 
ENDROOT
BRANCH   1   2
ATOM      2  C   UNL     1       7.873   8.182  17.586  0.00  0.00    +0.000 C 
BRANCH   2   3
ATOM      3  C   UNL     1       8.393   9.583  17.818  0.00  0.00    +0.000 C 
BRANCH   3   4
ATOM      4  C   UNL     1       8.945   9.675  19.226  0.00  0.00    +0.000 C 
BRANCH   4   5
ATOM      5  C   UNL     1      10.083  10.681  19.260  0.00  0.00    +0.000 C 
BRANCH   5   6
ATOM      6  C   UNL     1      10.172  11.359  17.912  0.00  0.00    +0.000 C 
BRANCH   6   7
ATOM      7  C   UNL     1      11.443  12.201  17.811  0.00  0.00    +0.000 C 
BRANCH   7   8
ATOM      8  C   UNL     1      11.353  13.225  16.677  0.00  0.00    +0.000 C 
BRANCH   8   9
ATOM      9  C   UNL     1      11.468  14.660  17.199  0.00  0.00    +0.000 C 
BRANCH   9  10
ATOM     10  C   UNL     1      10.607  14.886  18.433  0.00  0.00    +0.000 C 
BRANCH  10  11
ATOM     11  C   UNL     1      11.463  15.520  19.533  0.00  0.00    +0.000 C 
BRANCH  11  13
ATOM     12  C   UNL     1      10.226  13.930  21.020  0.00  0.00    +0.000 C 
ATOM     13  C   UNL     1      10.819  15.329  20.903  0.00  0.00    +0.000 C 
ENDBRANCH  11  13
ENDBRANCH  10  11
ENDBRANCH   9  10
ENDBRANCH   8   9
ENDBRANCH   7   8
ENDBRANCH   6   7
ENDBRANCH   5   6
ENDBRANCH   4   5
ENDBRANCH   3   4
ENDBRANCH   2   3
ENDBRANCH   1   2
BRANCH   1  14
ATOM     14  C   UNL     1       7.434   6.032  18.807  0.00  0.00    +0.000 C 
BRANCH  14  15
ATOM     15  C   UNL     1       6.171   6.132  17.920  0.00  0.00    +0.000 C 
BRANCH  15  16
ATOM     16  C   UNL     1       5.176   4.981  18.144  0.00  0.00    +0.000 C 
BRANCH  16  17
ATOM     17  O   UNL     1       5.876   3.764  18.135  0.00  0.00    +0.000 OA
ATOM     18  H   UNL     1       5.283   3.068  18.522  0.00  0.00    +0.000 HD
ENDBRANCH  16  17
BRANCH  16  19
ATOM     19  C   UNL     1       4.315   5.208  19.437  0.00  0.00    +0.000 C 
BRANCH  19  20
ATOM     20  N   UNL     1       2.828   5.322  19.278  0.00  0.00    +0.000 N 
ATOM     21  C   UNL     1       2.461   6.678  18.800  0.00  0.00    +0.000 C 
ATOM     22  C   UNL     1       2.333   4.300  18.322  0.00  0.00    +0.000 C 
BRANCH  20  23
ATOM     23  C   UNL     1       2.245   5.075  20.641  0.00  0.00    +0.000 C 
BRANCH  23  24
ATOM     24  C   UNL     1       1.591   3.693  20.871  0.00  0.00    +0.000 C 
BRANCH  24  25
ATOM     25  O   UNL     1       2.038   3.157  22.086  0.00  0.00    +0.000 OA
ATOM     26  H   UNL     1       2.955   3.511  22.234  0.00  0.00    +0.000 HD
ENDBRANCH  24  25
ENDBRANCH  23  24
ENDBRANCH  20  23
ENDBRANCH  19  20
ENDBRANCH  16  19
ENDBRANCH  15  16
ENDBRANCH  14  15
ENDBRANCH   1  14
TORSDOF 20
ENDMDL
MODEL 2
REMARK VINA RESULT:      -5.3      5.546      9.600
REMARK  Name = 
REMARK  23 active torsions:
REMARK  status: ('A' for Active; 'I' for Inactive)
REMARK    1  A    between atoms: C_1  and  C_2
REMARK    2  A    between atoms: C_2  and  C_3
REMARK    3  A    between atoms: C_3  and  C_4
REMARK    4  A    between atoms: C_4  and  C_5
REMARK    5  A    between atoms: C_5  and  C_6
REMARK    6  A    between atoms: C_6  and  C_7
REMARK    7  A    between atoms: C_7  and  C_8
REMARK    8  A    between atoms: C_8  and  C_9
REMARK    9  A    between atoms: C_9  and  C_10
REMARK   10  A    between atoms: C_10  and  C_11
REMARK   11  A    between atoms: C_11  and  C_12
REMARK   12  A    between atoms: C_12  and  C_13
REMARK   13  A    between atoms: C_13  and  C_14
REMARK   14  A    between atoms: C_14  and  C_15
REMARK   15  A    between atoms: C_15  and  C_16
REMARK   16  A    between atoms: C_16  and  O_17
REMARK   17  A    between atoms: C_16  and  C_18
REMARK   18  A    between atoms: C_18  and  N_19
REMARK   19  A    between atoms: N_19  and  C_20
REMARK   20  A    between atoms: N_19  and  C_21
REMARK   21  A    between atoms: N_19  and  C_22
REMARK   22  A    between atoms: C_22  and  C_23
REMARK   23  A    between atoms: C_23  and  O_24
REMARK                            x       y       z     vdW  Elec       q    Type
REMARK                         _______ _______ _______ _____ _____    ______ ____
ROOT
ATOM      1  C   UNL     1       1.962   5.711  20.031  0.00  0.00    +0.000 C 
ENDROOT
BRANCH   1   2
ATOM      2  C   UNL     1       2.310   4.832  21.224  0.00  0.00    +0.000 C 
BRANCH   2   3
ATOM      3  C   UNL     1       1.651   3.479  21.079  0.00  0.00    +0.000 C 
BRANCH   3   4
ATOM      4  C   UNL     1       0.713   3.513  19.889  0.00  0.00    +0.000 C 
BRANCH   4   5
ATOM      5  C   UNL     1       1.061   2.381  18.937  0.00  0.00    +0.000 C 
BRANCH   5   6
ATOM      6  C   UNL     1       2.442   1.869  19.275  0.00  0.00    +0.000 C 
BRANCH   6   7
ATOM      7  C   UNL     1       3.400   2.081  18.104  0.00  0.00    +0.000 C 
BRANCH   7   8
ATOM      8  C   UNL     1       2.912   3.193  17.171  0.00  0.00    +0.000 C 
BRANCH   8   9
ATOM      9  C   UNL     1       3.668   4.504  17.410  0.00  0.00    +0.000 C 
BRANCH   9  10
ATOM     10  C   UNL     1       5.176   4.307  17.363  0.00  0.00    +0.000 C 
BRANCH  10  11
ATOM     11  C   UNL     1       5.821   5.097  18.504  0.00  0.00    +0.000 C 
BRANCH  11  13
ATOM     12  C   UNL     1       7.749   6.685  18.339  0.00  0.00    +0.000 C 
ATOM     13  C   UNL     1       7.327   5.222  18.297  0.00  0.00    +0.000 C 
ENDBRANCH  11  13
ENDBRANCH  10  11
ENDBRANCH   9  10
ENDBRANCH   8   9
ENDBRANCH   7   8
ENDBRANCH   6   7
ENDBRANCH   5   6
ENDBRANCH   4   5
ENDBRANCH   3   4
ENDBRANCH   2   3
ENDBRANCH   1   2
BRANCH   1  14
ATOM     14  C   UNL     1       2.026   7.186  20.397  0.00  0.00    +0.000 C 
BRANCH  14  15
ATOM     15  C   UNL     1       0.870   7.626  21.325  0.00  0.00    +0.000 C 
BRANCH  15  16
ATOM     16  C   UNL     1       0.982   9.088  21.789  0.00  0.00    +0.000 C 
BRANCH  16  17
ATOM     17  O   UNL     1       2.100   9.216  22.627  0.00  0.00    +0.000 OA
ATOM     18  H   UNL     1       2.865   9.519  22.070  0.00  0.00    +0.000 HD
ENDBRANCH  16  17
BRANCH  16  19
ATOM     19  C   UNL     1       0.984  10.079  20.570  0.00  0.00    +0.000 C 
BRANCH  19  20
ATOM     20  N   UNL     1      -0.017  11.195  20.572  0.00  0.00    +0.000 N 
ATOM     21  C   UNL     1      -0.920  11.077  21.743  0.00  0.00    +0.000 C 
ATOM     22  C   UNL     1       0.675  12.508  20.600  0.00  0.00    +0.000 C 
BRANCH  20  23
ATOM     23  C   UNL     1      -0.798  11.054  19.296  0.00  0.00    +0.000 C 
BRANCH  23  24
ATOM     24  C   UNL     1      -0.936  12.326  18.427  0.00  0.00    +0.000 C 
BRANCH  24  25
ATOM     25  O   UNL     1      -2.150  12.290  17.730  0.00  0.00    +0.000 OA
ATOM     26  H   UNL     1      -1.972  12.664  16.826  0.00  0.00    +0.000 HD
ENDBRANCH  24  25
ENDBRANCH  23  24
ENDBRANCH  20  23
ENDBRANCH  19  20
ENDBRANCH  16  19
ENDBRANCH  15  16
ENDBRANCH  14  15
ENDBRANCH   1  14
TORSDOF 20
ENDMDL
MODEL 3
REMARK VINA RESULT:      -5.3      6.705      8.636
REMARK  Name = 
REMARK  23 active torsions:
REMARK  status: ('A' for Active; 'I' for Inactive)
REMARK    1  A    between atoms: C_1  and  C_2
REMARK    2  A    between atoms: C_2  and  C_3
REMARK    3  A    between atoms: C_3  and  C_4
REMARK    4  A    between atoms: C_4  and  C_5
REMARK    5  A    between atoms: C_5  and  C_6
REMARK    6  A    between atoms: C_6  and  C_7
REMARK    7  A    between atoms: C_7  and  C_8
REMARK    8  A    between atoms: C_8  and  C_9
REMARK    9  A    between atoms: C_9  and  C_10
REMARK   10  A    between atoms: C_10  and  C_11
REMARK   11  A    between atoms: C_11  and  C_12
REMARK   12  A    between atoms: C_12  and  C_13
REMARK   13  A    between atoms: C_13  and  C_14
REMARK   14  A    between atoms: C_14  and  C_15
REMARK   15  A    between atoms: C_15  and  C_16
REMARK   16  A    between atoms: C_16  and  O_17
REMARK   17  A    between atoms: C_16  and  C_18
REMARK   18  A    between atoms: C_18  and  N_19
REMARK   19  A    between atoms: N_19  and  C_20
REMARK   20  A    between atoms: N_19  and  C_21
REMARK   21  A    between atoms: N_19  and  C_22
REMARK   22  A    between atoms: C_22  and  C_23
REMARK   23  A    between atoms: C_23  and  O_24
REMARK                            x       y       z     vdW  Elec       q    Type
REMARK                         _______ _______ _______ _____ _____    ______ ____
ROOT
ATOM      1  C   UNL     1       2.218   6.450  18.564  0.00  0.00    +0.000 C 
ENDROOT
BRANCH   1   2
ATOM      2  C   UNL     1       2.083   6.994  19.979  0.00  0.00    +0.000 C 
BRANCH   2   3
ATOM      3  C   UNL     1       1.578   8.419  19.940  0.00  0.00    +0.000 C 
BRANCH   3   4
ATOM      4  C   UNL     1       1.479   8.946  21.357  0.00  0.00    +0.000 C 
BRANCH   4   5
ATOM      5  C   UNL     1       0.052   8.792  21.857  0.00  0.00    +0.000 C 
BRANCH   5   6
ATOM      6  C   UNL     1      -0.083   9.522  23.173  0.00  0.00    +0.000 C 
BRANCH   6   7
ATOM      7  C   UNL     1      -1.200  10.562  23.103  0.00  0.00    +0.000 C 
BRANCH   7   8
ATOM      8  C   UNL     1      -0.716  11.868  22.469  0.00  0.00    +0.000 C 
BRANCH   8   9
ATOM      9  C   UNL     1      -1.472  12.183  21.174  0.00  0.00    +0.000 C 
BRANCH   9  10
ATOM     10  C   UNL     1      -0.645  11.854  19.940  0.00  0.00    +0.000 C 
BRANCH  10  11
ATOM     11  C   UNL     1      -1.584  11.613  18.755  0.00  0.00    +0.000 C 
BRANCH  11  13
ATOM     12  C   UNL     1      -2.783   9.811  17.497  0.00  0.00    +0.000 C 
ATOM     13  C   UNL     1      -1.544  10.153  18.317  0.00  0.00    +0.000 C 
ENDBRANCH  11  13
ENDBRANCH  10  11
ENDBRANCH   9  10
ENDBRANCH   8   9
ENDBRANCH   7   8
ENDBRANCH   6   7
ENDBRANCH   5   6
ENDBRANCH   4   5
ENDBRANCH   3   4
ENDBRANCH   2   3
ENDBRANCH   1   2
BRANCH   1  14
ATOM     14  C   UNL     1       3.670   6.443  18.112  0.00  0.00    +0.000 C 
BRANCH  14  15
ATOM     15  C   UNL     1       4.601   5.696  19.096  0.00  0.00    +0.000 C 
BRANCH  15  16
ATOM     16  C   UNL     1       4.853   4.230  18.704  0.00  0.00    +0.000 C 
BRANCH  16  17
ATOM     17  O   UNL     1       6.212   3.935  18.891  0.00  0.00    +0.000 OA
ATOM     18  H   UNL     1       6.399   3.966  19.866  0.00  0.00    +0.000 HD
ENDBRANCH  16  17
BRANCH  16  19
ATOM     19  C   UNL     1       3.882   3.258  19.464  0.00  0.00    +0.000 C 
BRANCH  19  20
ATOM     20  N   UNL     1       3.063   2.304  18.645  0.00  0.00    +0.000 N 
ATOM     21  C   UNL     1       2.711   2.914  17.340  0.00  0.00    +0.000 C 
ATOM     22  C   UNL     1       3.809   1.040  18.427  0.00  0.00    +0.000 C 
BRANCH  20  23
ATOM     23  C   UNL     1       1.819   2.033  19.446  0.00  0.00    +0.000 C 
BRANCH  23  24
ATOM     24  C   UNL     1       1.519   3.011  20.605  0.00  0.00    +0.000 C 
BRANCH  24  25
ATOM     25  O   UNL     1       0.352   3.733  20.321  0.00  0.00    +0.000 OA
ATOM     26  H   UNL     1      -0.356   3.380  20.922  0.00  0.00    +0.000 HD
ENDBRANCH  24  25
ENDBRANCH  23  24
ENDBRANCH  20  23
ENDBRANCH  19  20
ENDBRANCH  16  19
ENDBRANCH  15  16
ENDBRANCH  14  15
ENDBRANCH   1  14
TORSDOF 20
ENDMDL
MODEL 4
REMARK VINA RESULT:      -5.2      6.965     10.122
REMARK  Name = 
REMARK  23 active torsions:
REMARK  status: ('A' for Active; 'I' for Inactive)
REMARK    1  A    between atoms: C_1  and  C_2
REMARK    2  A    between atoms: C_2  and  C_3
REMARK    3  A    between atoms: C_3  and  C_4
REMARK    4  A    between atoms: C_4  and  C_5
REMARK    5  A    between atoms: C_5  and  C_6
REMARK    6  A    between atoms: C_6  and  C_7
REMARK    7  A    between atoms: C_7  and  C_8
REMARK    8  A    between atoms: C_8  and  C_9
REMARK    9  A    between atoms: C_9  and  C_10
REMARK   10  A    between atoms: C_10  and  C_11
REMARK   11  A    between atoms: C_11  and  C_12
REMARK   12  A    between atoms: C_12  and  C_13
REMARK   13  A    between atoms: C_13  and  C_14
REMARK   14  A    between atoms: C_14  and  C_15
REMARK   15  A    between atoms: C_15  and  C_16
REMARK   16  A    between atoms: C_16  and  O_17
REMARK   17  A    between atoms: C_16  and  C_18
REMARK   18  A    between atoms: C_18  and  N_19
REMARK   19  A    between atoms: N_19  and  C_20
REMARK   20  A    between atoms: N_19  and  C_21
REMARK   21  A    between atoms: N_19  and  C_22
REMARK   22  A    between atoms: C_22  and  C_23
REMARK   23  A    between atoms: C_23  and  O_24
REMARK                            x       y       z     vdW  Elec       q    Type
REMARK                         _______ _______ _______ _____ _____    ______ ____
ROOT
ATOM      1  C   UNL     1       1.756   7.725  20.923  0.00  0.00    +0.000 C 
ENDROOT
BRANCH   1   2
ATOM      2  C   UNL     1       2.116   7.134  19.567  0.00  0.00    +0.000 C 
BRANCH   2   3
ATOM      3  C   UNL     1       2.015   8.197  18.496  0.00  0.00    +0.000 C 
BRANCH   3   4
ATOM      4  C   UNL     1       3.216   8.086  17.578  0.00  0.00    +0.000 C 
BRANCH   4   5
ATOM      5  C   UNL     1       3.948   6.784  17.856  0.00  0.00    +0.000 C 
BRANCH   5   6
ATOM      6  C   UNL     1       4.786   6.432  16.649  0.00  0.00    +0.000 C 
BRANCH   6   7
ATOM      7  C   UNL     1       4.804   4.921  16.424  0.00  0.00    +0.000 C 
BRANCH   7   8
ATOM      8  C   UNL     1       5.012   4.158  17.735  0.00  0.00    +0.000 C 
BRANCH   8   9
ATOM      9  C   UNL     1       3.911   3.117  17.965  0.00  0.00    +0.000 C 
BRANCH   9  10
ATOM     10  C   UNL     1       2.679   3.398  17.117  0.00  0.00    +0.000 C 
BRANCH  10  11
ATOM     11  C   UNL     1       1.540   3.865  18.026  0.00  0.00    +0.000 C 
BRANCH  11  13
ATOM     12  C   UNL     1       0.808   3.255  20.341  0.00  0.00    +0.000 C 
ATOM     13  C   UNL     1       1.951   3.799  19.494  0.00  0.00    +0.000 C 
ENDBRANCH  11  13
ENDBRANCH  10  11
ENDBRANCH   9  10
ENDBRANCH   8   9
ENDBRANCH   7   8
ENDBRANCH   6   7
ENDBRANCH   5   6
ENDBRANCH   4   5
ENDBRANCH   3   4
ENDBRANCH   2   3
ENDBRANCH   1   2
BRANCH   1  14
ATOM     14  C   UNL     1       0.861   8.945  20.772  0.00  0.00    +0.000 C 
BRANCH  14  15
ATOM     15  C   UNL     1      -0.414   8.866  21.644  0.00  0.00    +0.000 C 
BRANCH  15  16
ATOM     16  C   UNL     1      -0.452   9.915  22.767  0.00  0.00    +0.000 C 
BRANCH  16  17
ATOM     17  O   UNL     1       0.454   9.540  23.772  0.00  0.00    +0.000 OA
ATOM     18  H   UNL     1       0.993  10.340  24.009  0.00  0.00    +0.000 HD
ENDBRANCH  16  17
BRANCH  16  19
ATOM     19  C   UNL     1      -0.217  11.364  22.209  0.00  0.00    +0.000 C 
BRANCH  19  20
ATOM     20  N   UNL     1      -1.359  12.334  22.276  0.00  0.00    +0.000 N 
ATOM     21  C   UNL     1      -0.890  13.652  22.769  0.00  0.00    +0.000 C 
ATOM     22  C   UNL     1      -1.981  12.489  20.937  0.00  0.00    +0.000 C 
BRANCH  20  23
ATOM     23  C   UNL     1      -2.352  11.741  23.237  0.00  0.00    +0.000 C 
BRANCH  23  24
ATOM     24  C   UNL     1      -3.483  12.675  23.724  0.00  0.00    +0.000 C 
BRANCH  24  25
ATOM     25  O   UNL     1      -4.697  12.285  23.145  0.00  0.00    +0.000 OA
ATOM     26  H   UNL     1      -4.474  11.837  22.286  0.00  0.00    +0.000 HD
ENDBRANCH  24  25
ENDBRANCH  23  24
ENDBRANCH  20  23
ENDBRANCH  19  20
ENDBRANCH  16  19
ENDBRANCH  15  16
ENDBRANCH  14  15
ENDBRANCH   1  14
TORSDOF 20
ENDMDL
MODEL 5
REMARK VINA RESULT:      -5.1      6.646      9.778
REMARK  Name = 
REMARK  23 active torsions:
REMARK  status: ('A' for Active; 'I' for Inactive)
REMARK    1  A    between atoms: C_1  and  C_2
REMARK    2  A    between atoms: C_2  and  C_3
REMARK    3  A    between atoms: C_3  and  C_4
REMARK    4  A    between atoms: C_4  and  C_5
REMARK    5  A    between atoms: C_5  and  C_6
REMARK    6  A    between atoms: C_6  and  C_7
REMARK    7  A    between atoms: C_7  and  C_8
REMARK    8  A    between atoms: C_8  and  C_9
REMARK    9  A    between atoms: C_9  and  C_10
REMARK   10  A    between atoms: C_10  and  C_11
REMARK   11  A    between atoms: C_11  and  C_12
REMARK   12  A    between atoms: C_12  and  C_13
REMARK   13  A    between atoms: C_13  and  C_14
REMARK   14  A    between atoms: C_14  and  C_15
REMARK   15  A    between atoms: C_15  and  C_16
REMARK   16  A    between atoms: C_16  and  O_17
REMARK   17  A    between atoms: C_16  and  C_18
REMARK   18  A    between atoms: C_18  and  N_19
REMARK   19  A    between atoms: N_19  and  C_20
REMARK   20  A    between atoms: N_19  and  C_21
REMARK   21  A    between atoms: N_19  and  C_22
REMARK   22  A    between atoms: C_22  and  C_23
REMARK   23  A    between atoms: C_23  and  O_24
REMARK                            x       y       z     vdW  Elec       q    Type
REMARK                         _______ _______ _______ _____ _____    ______ ____
ROOT
ATOM      1  C   UNL     1       2.433   7.162  19.604  0.00  0.00    +0.000 C 
ENDROOT
BRANCH   1   2
ATOM      2  C   UNL     1       2.457   6.819  18.121  0.00  0.00    +0.000 C 
BRANCH   2   3
ATOM      3  C   UNL     1       3.728   7.340  17.489  0.00  0.00    +0.000 C 
BRANCH   3   4
ATOM      4  C   UNL     1       4.911   6.600  18.081  0.00  0.00    +0.000 C 
BRANCH   4   5
ATOM      5  C   UNL     1       5.653   5.865  16.978  0.00  0.00    +0.000 C 
BRANCH   5   6
ATOM      6  C   UNL     1       4.703   4.894  16.316  0.00  0.00    +0.000 C 
BRANCH   6   7
ATOM      7  C   UNL     1       4.832   3.503  16.935  0.00  0.00    +0.000 C 
BRANCH   7   8
ATOM      8  C   UNL     1       3.865   3.315  18.106  0.00  0.00    +0.000 C 
BRANCH   8   9
ATOM      9  C   UNL     1       2.553   2.663  17.658  0.00  0.00    +0.000 C 
BRANCH   9  10
ATOM     10  C   UNL     1       1.339   3.456  18.121  0.00  0.00    +0.000 C 
BRANCH  10  11
ATOM     11  C   UNL     1       0.856   2.896  19.461  0.00  0.00    +0.000 C 
BRANCH  11  13
ATOM     12  C   UNL     1       2.171   3.435  21.522  0.00  0.00    +0.000 C 
ATOM     13  C   UNL     1       1.068   3.908  20.583  0.00  0.00    +0.000 C 
ENDBRANCH  11  13
ENDBRANCH  10  11
ENDBRANCH   9  10
ENDBRANCH   8   9
ENDBRANCH   7   8
ENDBRANCH   6   7
ENDBRANCH   5   6
ENDBRANCH   4   5
ENDBRANCH   3   4
ENDBRANCH   2   3
ENDBRANCH   1   2
BRANCH   1  14
ATOM     14  C   UNL     1       1.522   8.347  19.881  0.00  0.00    +0.000 C 
BRANCH  14  15
ATOM     15  C   UNL     1       0.860   8.283  21.277  0.00  0.00    +0.000 C 
BRANCH  15  16
ATOM     16  C   UNL     1       0.441   9.660  21.818  0.00  0.00    +0.000 C 
BRANCH  16  17
ATOM     17  O   UNL     1       0.857   9.772  23.153  0.00  0.00    +0.000 OA
ATOM     18  H   UNL     1       1.616  10.411  23.184  0.00  0.00    +0.000 HD
ENDBRANCH  16  17
BRANCH  16  19
ATOM     19  C   UNL     1       0.955  10.821  20.894  0.00  0.00    +0.000 C 
BRANCH  19  20
ATOM     20  N   UNL     1       0.033  11.977  20.642  0.00  0.00    +0.000 N 
ATOM     21  C   UNL     1      -1.272  11.753  21.312  0.00  0.00    +0.000 C 
ATOM     22  C   UNL     1       0.642  13.238  21.133  0.00  0.00    +0.000 C 
BRANCH  20  23
ATOM     23  C   UNL     1      -0.152  12.043  19.151  0.00  0.00    +0.000 C 
BRANCH  23  24
ATOM     24  C   UNL     1      -1.118  11.009  18.529  0.00  0.00    +0.000 C 
BRANCH  24  25
ATOM     25  O   UNL     1      -0.399  10.124  17.716  0.00  0.00    +0.000 OA
ATOM     26  H   UNL     1      -0.708   9.208  17.947  0.00  0.00    +0.000 HD
ENDBRANCH  24  25
ENDBRANCH  23  24
ENDBRANCH  20  23
ENDBRANCH  19  20
ENDBRANCH  16  19
ENDBRANCH  15  16
ENDBRANCH  14  15
ENDBRANCH   1  14
TORSDOF 20
ENDMDL
MODEL 6
REMARK VINA RESULT:      -5.1      5.796      9.233
REMARK  Name = 
REMARK  23 active torsions:
REMARK  status: ('A' for Active; 'I' for Inactive)
REMARK    1  A    between atoms: C_1  and  C_2
REMARK    2  A    between atoms: C_2  and  C_3
REMARK    3  A    between atoms: C_3  and  C_4
REMARK    4  A    between atoms: C_4  and  C_5
REMARK    5  A    between atoms: C_5  and  C_6
REMARK    6  A    between atoms: C_6  and  C_7
REMARK    7  A    between atoms: C_7  and  C_8
REMARK    8  A    between atoms: C_8  and  C_9
REMARK    9  A    between atoms: C_9  and  C_10
REMARK   10  A    between atoms: C_10  and  C_11
REMARK   11  A    between atoms: C_11  and  C_12
REMARK   12  A    between atoms: C_12  and  C_13
REMARK   13  A    between atoms: C_13  and  C_14
REMARK   14  A    between atoms: C_14  and  C_15
REMARK   15  A    between atoms: C_15  and  C_16
REMARK   16  A    between atoms: C_16  and  O_17
REMARK   17  A    between atoms: C_16  and  C_18
REMARK   18  A    between atoms: C_18  and  N_19
REMARK   19  A    between atoms: N_19  and  C_20
REMARK   20  A    between atoms: N_19  and  C_21
REMARK   21  A    between atoms: N_19  and  C_22
REMARK   22  A    between atoms: C_22  and  C_23
REMARK   23  A    between atoms: C_23  and  O_24
REMARK                            x       y       z     vdW  Elec       q    Type
REMARK                         _______ _______ _______ _____ _____    ______ ____
ROOT
ATOM      1  C   UNL     1       4.742   6.272  18.549  0.00  0.00    +0.000 C 
ENDROOT
BRANCH   1   2
ATOM      2  C   UNL     1       5.721   5.315  19.214  0.00  0.00    +0.000 C 
BRANCH   2   3
ATOM      3  C   UNL     1       7.134   5.635  18.779  0.00  0.00    +0.000 C 
BRANCH   3   4
ATOM      4  C   UNL     1       7.545   4.666  17.690  0.00  0.00    +0.000 C 
BRANCH   4   5
ATOM      5  C   UNL     1       6.996   5.140  16.355  0.00  0.00    +0.000 C 
BRANCH   5   6
ATOM      6  C   UNL     1       6.312   3.978  15.671  0.00  0.00    +0.000 C 
BRANCH   6   7
ATOM      7  C   UNL     1       4.796   4.068  15.836  0.00  0.00    +0.000 C 
BRANCH   7   8
ATOM      8  C   UNL     1       4.284   3.083  16.889  0.00  0.00    +0.000 C 
BRANCH   8   9
ATOM      9  C   UNL     1       2.811   3.334  17.230  0.00  0.00    +0.000 C 
BRANCH   9  10
ATOM     10  C   UNL     1       2.402   2.639  18.521  0.00  0.00    +0.000 C 
BRANCH  10  11
ATOM     11  C   UNL     1       0.972   3.050  18.879  0.00  0.00    +0.000 C 
BRANCH  11  13
ATOM     12  C   UNL     1       1.551   2.851  21.307  0.00  0.00    +0.000 C 
ATOM     13  C   UNL     1       0.927   3.741  20.239  0.00  0.00    +0.000 C 
ENDBRANCH  11  13
ENDBRANCH  10  11
ENDBRANCH   9  10
ENDBRANCH   8   9
ENDBRANCH   7   8
ENDBRANCH   6   7
ENDBRANCH   5   6
ENDBRANCH   4   5
ENDBRANCH   3   4
ENDBRANCH   2   3
ENDBRANCH   1   2
BRANCH   1  14
ATOM     14  C   UNL     1       3.374   6.207  19.210  0.00  0.00    +0.000 C 
BRANCH  14  15
ATOM     15  C   UNL     1       2.340   7.144  18.543  0.00  0.00    +0.000 C 
BRANCH  15  16
ATOM     16  C   UNL     1       1.595   8.043  19.545  0.00  0.00    +0.000 C 
BRANCH  16  17
ATOM     17  O   UNL     1       2.066   7.770  20.839  0.00  0.00    +0.000 OA
ATOM     18  H   UNL     1       2.283   8.637  21.273  0.00  0.00    +0.000 HD
ENDBRANCH  16  17
BRANCH  16  19
ATOM     19  C   UNL     1       1.691   9.557  19.141  0.00  0.00    +0.000 C 
BRANCH  19  20
ATOM     20  N   UNL     1       0.417  10.345  19.070  0.00  0.00    +0.000 N 
ATOM     21  C   UNL     1      -0.448   9.834  17.978  0.00  0.00    +0.000 C 
ATOM     22  C   UNL     1      -0.307  10.271  20.364  0.00  0.00    +0.000 C 
BRANCH  20  23
ATOM     23  C   UNL     1       0.823  11.766  18.791  0.00  0.00    +0.000 C 
BRANCH  23  24
ATOM     24  C   UNL     1       2.295  11.993  18.378  0.00  0.00    +0.000 C 
BRANCH  24  25
ATOM     25  O   UNL     1       2.352  12.929  17.336  0.00  0.00    +0.000 OA
ATOM     26  H   UNL     1       1.874  13.740  17.655  0.00  0.00    +0.000 HD
ENDBRANCH  24  25
ENDBRANCH  23  24
ENDBRANCH  20  23
ENDBRANCH  19  20
ENDBRANCH  16  19
ENDBRANCH  15  16
ENDBRANCH  14  15
ENDBRANCH   1  14
TORSDOF 20
ENDMDL
MODEL 7
REMARK VINA RESULT:      -5.1      1.925      4.525
REMARK  Name = 
REMARK  23 active torsions:
REMARK  status: ('A' for Active; 'I' for Inactive)
REMARK    1  A    between atoms: C_1  and  C_2
REMARK    2  A    between atoms: C_2  and  C_3
REMARK    3  A    between atoms: C_3  and  C_4
REMARK    4  A    between atoms: C_4  and  C_5
REMARK    5  A    between atoms: C_5  and  C_6
REMARK    6  A    between atoms: C_6  and  C_7
REMARK    7  A    between atoms: C_7  and  C_8
REMARK    8  A    between atoms: C_8  and  C_9
REMARK    9  A    between atoms: C_9  and  C_10
REMARK   10  A    between atoms: C_10  and  C_11
REMARK   11  A    between atoms: C_11  and  C_12
REMARK   12  A    between atoms: C_12  and  C_13
REMARK   13  A    between atoms: C_13  and  C_14
REMARK   14  A    between atoms: C_14  and  C_15
REMARK   15  A    between atoms: C_15  and  C_16
REMARK   16  A    between atoms: C_16  and  O_17
REMARK   17  A    between atoms: C_16  and  C_18
REMARK   18  A    between atoms: C_18  and  N_19
REMARK   19  A    between atoms: N_19  and  C_20
REMARK   20  A    between atoms: N_19  and  C_21
REMARK   21  A    between atoms: N_19  and  C_22
REMARK   22  A    between atoms: C_22  and  C_23
REMARK   23  A    between atoms: C_23  and  O_24
REMARK                            x       y       z     vdW  Elec       q    Type
REMARK                         _______ _______ _______ _____ _____    ______ ____
ROOT
ATOM      1  C   UNL     1       4.079   7.603  17.427  0.00  0.00    +0.000 C 
ENDROOT
BRANCH   1   2
ATOM      2  C   UNL     1       4.564   6.991  16.120  0.00  0.00    +0.000 C 
BRANCH   2   3
ATOM      3  C   UNL     1       4.953   5.546  16.339  0.00  0.00    +0.000 C 
BRANCH   3   4
ATOM      4  C   UNL     1       6.405   5.363  15.948  0.00  0.00    +0.000 C 
BRANCH   4   5
ATOM      5  C   UNL     1       7.179   4.788  17.123  0.00  0.00    +0.000 C 
BRANCH   5   6
ATOM      6  C   UNL     1       7.334   5.864  18.173  0.00  0.00    +0.000 C 
BRANCH   6   7
ATOM      7  C   UNL     1       7.768   7.183  17.537  0.00  0.00    +0.000 C 
BRANCH   7   8
ATOM      8  C   UNL     1       8.396   8.126  18.567  0.00  0.00    +0.000 C 
BRANCH   8   9
ATOM      9  C   UNL     1       8.312   9.589  18.119  0.00  0.00    +0.000 C 
BRANCH   9  10
ATOM     10  C   UNL     1       9.277  10.475  18.894  0.00  0.00    +0.000 C 
BRANCH  10  11
ATOM     11  C   UNL     1      10.209  11.184  17.908  0.00  0.00    +0.000 C 
BRANCH  11  13
ATOM     12  C   UNL     1      11.367  12.545  19.661  0.00  0.00    +0.000 C 
ATOM     13  C   UNL     1      10.536  12.595  18.385  0.00  0.00    +0.000 C 
ENDBRANCH  11  13
ENDBRANCH  10  11
ENDBRANCH   9  10
ENDBRANCH   8   9
ENDBRANCH   7   8
ENDBRANCH   6   7
ENDBRANCH   5   6
ENDBRANCH   4   5
ENDBRANCH   3   4
ENDBRANCH   2   3
ENDBRANCH   1   2
BRANCH   1  14
ATOM     14  C   UNL     1       2.692   7.098  17.791  0.00  0.00    +0.000 C 
BRANCH  14  15
ATOM     15  C   UNL     1       2.668   6.319  19.127  0.00  0.00    +0.000 C 
BRANCH  15  16
ATOM     16  C   UNL     1       2.349   4.824  18.957  0.00  0.00    +0.000 C 
BRANCH  16  17
ATOM     17  O   UNL     1       1.693   4.635  17.731  0.00  0.00    +0.000 OA
ATOM     18  H   UNL     1       1.231   3.756  17.764  0.00  0.00    +0.000 HD
ENDBRANCH  16  17
BRANCH  16  19
ATOM     19  C   UNL     1       3.634   3.939  19.132  0.00  0.00    +0.000 C 
BRANCH  19  20
ATOM     20  N   UNL     1       3.447   2.465  19.339  0.00  0.00    +0.000 N 
ATOM     21  C   UNL     1       3.378   1.764  18.033  0.00  0.00    +0.000 C 
ATOM     22  C   UNL     1       4.561   1.913  20.149  0.00  0.00    +0.000 C 
BRANCH  20  23
ATOM     23  C   UNL     1       2.149   2.312  20.081  0.00  0.00    +0.000 C 
BRANCH  23  24
ATOM     24  C   UNL     1       2.229   2.347  21.625  0.00  0.00    +0.000 C 
BRANCH  24  25
ATOM     25  O   UNL     1       0.975   2.680  22.153  0.00  0.00    +0.000 OA
ATOM     26  H   UNL     1       0.313   2.079  21.719  0.00  0.00    +0.000 HD
ENDBRANCH  24  25
ENDBRANCH  23  24
ENDBRANCH  20  23
ENDBRANCH  19  20
ENDBRANCH  16  19
ENDBRANCH  15  16
ENDBRANCH  14  15
ENDBRANCH   1  14
TORSDOF 20
ENDMDL
MODEL 8
REMARK VINA RESULT:      -5.1      6.821      8.955
REMARK  Name = 
REMARK  23 active torsions:
REMARK  status: ('A' for Active; 'I' for Inactive)
REMARK    1  A    between atoms: C_1  and  C_2
REMARK    2  A    between atoms: C_2  and  C_3
REMARK    3  A    between atoms: C_3  and  C_4
REMARK    4  A    between atoms: C_4  and  C_5
REMARK    5  A    between atoms: C_5  and  C_6
REMARK    6  A    between atoms: C_6  and  C_7
REMARK    7  A    between atoms: C_7  and  C_8
REMARK    8  A    between atoms: C_8  and  C_9
REMARK    9  A    between atoms: C_9  and  C_10
REMARK   10  A    between atoms: C_10  and  C_11
REMARK   11  A    between atoms: C_11  and  C_12
REMARK   12  A    between atoms: C_12  and  C_13
REMARK   13  A    between atoms: C_13  and  C_14
REMARK   14  A    between atoms: C_14  and  C_15
REMARK   15  A    between atoms: C_15  and  C_16
REMARK   16  A    between atoms: C_16  and  O_17
REMARK   17  A    between atoms: C_16  and  C_18
REMARK   18  A    between atoms: C_18  and  N_19
REMARK   19  A    between atoms: N_19  and  C_20
REMARK   20  A    between atoms: N_19  and  C_21
REMARK   21  A    between atoms: N_19  and  C_22
REMARK   22  A    between atoms: C_22  and  C_23
REMARK   23  A    between atoms: C_23  and  O_24
REMARK                            x       y       z     vdW  Elec       q    Type
REMARK                         _______ _______ _______ _____ _____    ______ ____
ROOT
ATOM      1  C   UNL     1       0.729   3.560  19.859  0.00  0.00    +0.000 C 
ENDROOT
BRANCH   1   2
ATOM      2  C   UNL     1       1.905   3.875  20.772  0.00  0.00    +0.000 C 
BRANCH   2   3
ATOM      3  C   UNL     1       1.960   5.360  21.053  0.00  0.00    +0.000 C 
BRANCH   3   4
ATOM      4  C   UNL     1       2.129   6.103  19.743  0.00  0.00    +0.000 C 
BRANCH   4   5
ATOM      5  C   UNL     1       2.148   7.599  20.007  0.00  0.00    +0.000 C 
BRANCH   5   6
ATOM      6  C   UNL     1       1.149   7.912  21.097  0.00  0.00    +0.000 C 
BRANCH   6   7
ATOM      7  C   UNL     1       0.898   9.416  21.186  0.00  0.00    +0.000 C 
BRANCH   7   8
ATOM      8  C   UNL     1      -0.288   9.843  20.317  0.00  0.00    +0.000 C 
BRANCH   8   9
ATOM      9  C   UNL     1       0.172  10.416  18.973  0.00  0.00    +0.000 C 
BRANCH   9  10
ATOM     10  C   UNL     1      -0.447  11.777  18.695  0.00  0.00    +0.000 C 
BRANCH  10  11
ATOM     11  C   UNL     1      -1.920  11.592  18.322  0.00  0.00    +0.000 C 
BRANCH  11  13
ATOM     12  C   UNL     1      -3.224   9.594  17.563  0.00  0.00    +0.000 C 
ATOM     13  C   UNL     1      -2.077  10.540  17.229  0.00  0.00    +0.000 C 
ENDBRANCH  11  13
ENDBRANCH  10  11
ENDBRANCH   9  10
ENDBRANCH   8   9
ENDBRANCH   7   8
ENDBRANCH   6   7
ENDBRANCH   5   6
ENDBRANCH   4   5
ENDBRANCH   3   4
ENDBRANCH   2   3
ENDBRANCH   1   2
BRANCH   1  14
ATOM     14  C   UNL     1       1.194   3.264  18.442  0.00  0.00    +0.000 C 
BRANCH  14  15
ATOM     15  C   UNL     1       2.107   2.018  18.357  0.00  0.00    +0.000 C 
BRANCH  15  16
ATOM     16  C   UNL     1       3.583   2.359  18.093  0.00  0.00    +0.000 C 
BRANCH  16  17
ATOM     17  O   UNL     1       4.249   1.199  17.667  0.00  0.00    +0.000 OA
ATOM     18  H   UNL     1       4.232   0.546  18.415  0.00  0.00    +0.000 HD
ENDBRANCH  16  17
BRANCH  16  19
ATOM     19  C   UNL     1       3.725   3.571  17.104  0.00  0.00    +0.000 C 
BRANCH  19  20
ATOM     20  N   UNL     1       4.852   4.534  17.333  0.00  0.00    +0.000 N 
ATOM     21  C   UNL     1       4.403   5.925  17.083  0.00  0.00    +0.000 C 
ATOM     22  C   UNL     1       5.360   4.410  18.722  0.00  0.00    +0.000 C 
BRANCH  20  23
ATOM     23  C   UNL     1       5.929   4.150  16.358  0.00  0.00    +0.000 C 
BRANCH  23  24
ATOM     24  C   UNL     1       5.598   4.330  14.858  0.00  0.00    +0.000 C 
BRANCH  24  25
ATOM     25  O   UNL     1       6.333   3.409  14.101  0.00  0.00    +0.000 OA
ATOM     26  H   UNL     1       6.628   3.886  13.280  0.00  0.00    +0.000 HD
ENDBRANCH  24  25
ENDBRANCH  23  24
ENDBRANCH  20  23
ENDBRANCH  19  20
ENDBRANCH  16  19
ENDBRANCH  15  16
ENDBRANCH  14  15
ENDBRANCH   1  14
TORSDOF 20
ENDMDL
MODEL 9
REMARK VINA RESULT:      -5.0      4.587     11.175
REMARK  Name = 
REMARK  23 active torsions:
REMARK  status: ('A' for Active; 'I' for Inactive)
REMARK    1  A    between atoms: C_1  and  C_2
REMARK    2  A    between atoms: C_2  and  C_3
REMARK    3  A    between atoms: C_3  and  C_4
REMARK    4  A    between atoms: C_4  and  C_5
REMARK    5  A    between atoms: C_5  and  C_6
REMARK    6  A    between atoms: C_6  and  C_7
REMARK    7  A    between atoms: C_7  and  C_8
REMARK    8  A    between atoms: C_8  and  C_9
REMARK    9  A    between atoms: C_9  and  C_10
REMARK   10  A    between atoms: C_10  and  C_11
REMARK   11  A    between atoms: C_11  and  C_12
REMARK   12  A    between atoms: C_12  and  C_13
REMARK   13  A    between atoms: C_13  and  C_14
REMARK   14  A    between atoms: C_14  and  C_15
REMARK   15  A    between atoms: C_15  and  C_16
REMARK   16  A    between atoms: C_16  and  O_17
REMARK   17  A    between atoms: C_16  and  C_18
REMARK   18  A    between atoms: C_18  and  N_19
REMARK   19  A    between atoms: N_19  and  C_20
REMARK   20  A    between atoms: N_19  and  C_21
REMARK   21  A    between atoms: N_19  and  C_22
REMARK   22  A    between atoms: C_22  and  C_23
REMARK   23  A    between atoms: C_23  and  O_24
REMARK                            x       y       z     vdW  Elec       q    Type
REMARK                         _______ _______ _______ _____ _____    ______ ____
ROOT
ATOM      1  C   UNL     1       8.804   9.048  18.822  0.00  0.00    +0.000 C 
ENDROOT
BRANCH   1   2
ATOM      2  C   UNL     1       7.784   8.898  17.703  0.00  0.00    +0.000 C 
BRANCH   2   3
ATOM      3  C   UNL     1       7.527   7.433  17.431  0.00  0.00    +0.000 C 
BRANCH   3   4
ATOM      4  C   UNL     1       6.031   7.191  17.408  0.00  0.00    +0.000 C 
BRANCH   4   5
ATOM      5  C   UNL     1       5.654   6.460  16.131  0.00  0.00    +0.000 C 
BRANCH   5   6
ATOM      6  C   UNL     1       6.659   5.358  15.889  0.00  0.00    +0.000 C 
BRANCH   6   7
ATOM      7  C   UNL     1       6.051   3.992  16.203  0.00  0.00    +0.000 C 
BRANCH   7   8
ATOM      8  C   UNL     1       4.561   4.101  16.537  0.00  0.00    +0.000 C 
BRANCH   8   9
ATOM      9  C   UNL     1       4.278   3.715  17.992  0.00  0.00    +0.000 C 
BRANCH   9  10
ATOM     10  C   UNL     1       3.628   2.343  18.099  0.00  0.00    +0.000 C 
BRANCH  10  11
ATOM     11  C   UNL     1       2.130   2.474  17.813  0.00  0.00    +0.000 C 
BRANCH  11  13
ATOM     12  C   UNL     1       1.052   3.431  19.860  0.00  0.00    +0.000 C 
ATOM     13  C   UNL     1       1.307   2.161  19.059  0.00  0.00    +0.000 C 
ENDBRANCH  11  13
ENDBRANCH  10  11
ENDBRANCH   9  10
ENDBRANCH   8   9
ENDBRANCH   7   8
ENDBRANCH   6   7
ENDBRANCH   5   6
ENDBRANCH   4   5
ENDBRANCH   3   4
ENDBRANCH   2   3
ENDBRANCH   1   2
BRANCH   1  14
ATOM     14  C   UNL     1       9.191  10.505  19.023  0.00  0.00    +0.000 C 
BRANCH  14  15
ATOM     15  C   UNL     1       9.970  11.091  17.822  0.00  0.00    +0.000 C 
BRANCH  15  16
ATOM     16  C   UNL     1      11.046  12.111  18.232  0.00  0.00    +0.000 C 
BRANCH  16  17
ATOM     17  O   UNL     1      12.290  11.462  18.289  0.00  0.00    +0.000 OA
ATOM     18  H   UNL     1      12.977  12.141  18.516  0.00  0.00    +0.000 HD
ENDBRANCH  16  17
BRANCH  16  19
ATOM     19  C   UNL     1      11.030  13.371  17.295  0.00  0.00    +0.000 C 
BRANCH  19  20
ATOM     20  N   UNL     1      10.988  14.724  17.942  0.00  0.00    +0.000 N 
ATOM     21  C   UNL     1      11.391  14.629  19.366  0.00  0.00    +0.000 C 
ATOM     22  C   UNL     1      11.884  15.665  17.225  0.00  0.00    +0.000 C 
BRANCH  20  23
ATOM     23  C   UNL     1       9.563  15.190  17.833  0.00  0.00    +0.000 C 
BRANCH  23  24
ATOM     24  C   UNL     1       9.131  16.318  18.799  0.00  0.00    +0.000 C 
BRANCH  24  25
ATOM     25  O   UNL     1       8.962  17.511  18.084  0.00  0.00    +0.000 OA
ATOM     26  H   UNL     1       9.288  17.339  17.161  0.00  0.00    +0.000 HD
ENDBRANCH  24  25
ENDBRANCH  23  24
ENDBRANCH  20  23
ENDBRANCH  19  20
ENDBRANCH  16  19
ENDBRANCH  15  16
ENDBRANCH  14  15
ENDBRANCH   1  14
TORSDOF 20
ENDMDL
