MODEL 1
REMARK VINA RESULT:      -6.8      0.000      0.000
REMARK  Name = 
REMARK  4 active torsions:
REMARK  status: ('A' for Active; 'I' for Inactive)
REMARK    1  A    between atoms: C_2  and  O_3
REMARK    2  A    between atoms: C_2  and  C_13
REMARK    3  A    between atoms: O_3  and  C_4
REMARK    4  A    between atoms: C_4  and  C_5
REMARK                            x       y       z     vdW  Elec       q    Type
REMARK                         _______ _______ _______ _____ _____    ______ ____
ROOT
ATOM      1  O   UNL     1       2.535   3.200  16.557  0.00  0.00    +0.000 OA
ATOM      2  C   UNL     1       3.158   3.758  17.445  0.00  0.00    +0.000 C 
ENDROOT
BRANCH   2   3
ATOM      3  C   UNL     1       2.530   4.352  18.652  0.00  0.00    +0.000 A 
ATOM      4  C   UNL     1       1.880   3.516  19.578  0.00  0.00    +0.000 A 
ATOM      5 CL   UNL     1       1.802   1.796  19.422  0.00  0.00    +0.000 Cl
ATOM      6  C   UNL     1       1.264   4.060  20.712  0.00  0.00    +0.000 A 
ATOM      7  C   UNL     1       1.309   5.432  20.947  0.00  0.00    +0.000 A 
ATOM      8  C   UNL     1       1.942   6.272  20.031  0.00  0.00    +0.000 A 
ATOM      9 CL   UNL     1       1.952   7.963  20.403  0.00  0.00    +0.000 Cl
ATOM     10  C   UNL     1       2.530   5.747  18.865  0.00  0.00    +0.000 A 
ATOM     11 CL   UNL     1       3.161   6.849  17.673  0.00  0.00    +0.000 Cl
ENDBRANCH   2   3
BRANCH   2  12
ATOM     12  O   UNL     1       4.495   3.943  17.487  0.00  0.00    +0.000 OA
BRANCH  12  13
ATOM     13  C   UNL     1       5.155   3.966  16.215  0.00  0.00    +0.000 C 
BRANCH  13  14
ATOM     14  C   UNL     1       5.822   5.321  15.963  0.00  0.00    +0.000 C 
ATOM     15  O   UNL     1       5.383   6.089  15.099  0.00  0.00    +0.000 OA
ATOM     16  N   UNL     1       6.929   5.644  16.730  0.00  0.00    +0.000 N 
ATOM     17  C   UNL     1       7.561   4.808  17.757  0.00  0.00    +0.000 C 
ATOM     18  C   UNL     1       7.670   5.580  19.079  0.00  0.00    +0.000 C 
ATOM     19  O   UNL     1       8.335   6.840  18.894  0.00  0.00    +0.000 OA
ATOM     20  C   UNL     1       7.631   7.657  17.942  0.00  0.00    +0.000 C 
ATOM     21  C   UNL     1       7.554   6.958  16.580  0.00  0.00    +0.000 C 
ENDBRANCH  13  14
ENDBRANCH  12  13
ENDBRANCH   2  12
TORSDOF 4
ENDMDL
MODEL 2
REMARK VINA RESULT:      -6.7      0.767      2.362
REMARK  Name = 
REMARK  4 active torsions:
REMARK  status: ('A' for Active; 'I' for Inactive)
REMARK    1  A    between atoms: C_2  and  O_3
REMARK    2  A    between atoms: C_2  and  C_13
REMARK    3  A    between atoms: O_3  and  C_4
REMARK    4  A    between atoms: C_4  and  C_5
REMARK                            x       y       z     vdW  Elec       q    Type
REMARK                         _______ _______ _______ _____ _____    ______ ____
ROOT
ATOM      1  O   UNL     1       2.568   3.328  16.324  0.00  0.00    +0.000 OA
ATOM      2  C   UNL     1       3.264   3.737  17.238  0.00  0.00    +0.000 C 
ENDROOT
BRANCH   2   3
ATOM      3  C   UNL     1       2.732   4.189  18.548  0.00  0.00    +0.000 A 
ATOM      4  C   UNL     1       2.695   5.563  18.844  0.00  0.00    +0.000 A 
ATOM      5 CL   UNL     1       3.200   6.794  17.738  0.00  0.00    +0.000 Cl
ATOM      6  C   UNL     1       2.216   6.008  20.083  0.00  0.00    +0.000 A 
ATOM      7  C   UNL     1       1.748   5.095  21.025  0.00  0.00    +0.000 A 
ATOM      8  C   UNL     1       1.788   3.729  20.746  0.00  0.00    +0.000 A 
ATOM      9 CL   UNL     1       1.185   2.666  21.972  0.00  0.00    +0.000 Cl
ATOM     10  C   UNL     1       2.305   3.263  19.522  0.00  0.00    +0.000 A 
ATOM     11 CL   UNL     1       2.489   1.547  19.288  0.00  0.00    +0.000 Cl
ENDBRANCH   2   3
BRANCH   2  12
ATOM     12  O   UNL     1       4.609   3.863  17.222  0.00  0.00    +0.000 OA
BRANCH  12  13
ATOM     13  C   UNL     1       5.195   4.071  15.931  0.00  0.00    +0.000 C 
BRANCH  13  14
ATOM     14  C   UNL     1       5.824   5.463  15.827  0.00  0.00    +0.000 C 
ATOM     15  O   UNL     1       5.363   6.308  15.051  0.00  0.00    +0.000 OA
ATOM     16  N   UNL     1       6.923   5.731  16.628  0.00  0.00    +0.000 N 
ATOM     17  C   UNL     1       7.578   4.807  17.559  0.00  0.00    +0.000 C 
ATOM     18  C   UNL     1       7.667   5.434  18.957  0.00  0.00    +0.000 C 
ATOM     19  O   UNL     1       8.298   6.724  18.910  0.00  0.00    +0.000 OA
ATOM     20  C   UNL     1       7.571   7.620  18.050  0.00  0.00    +0.000 C 
ATOM     21  C   UNL     1       7.511   7.071  16.621  0.00  0.00    +0.000 C 
ENDBRANCH  13  14
ENDBRANCH  12  13
ENDBRANCH   2  12
TORSDOF 4
ENDMDL
MODEL 3
REMARK VINA RESULT:      -6.6      1.980      2.944
REMARK  Name = 
REMARK  4 active torsions:
REMARK  status: ('A' for Active; 'I' for Inactive)
REMARK    1  A    between atoms: C_2  and  O_3
REMARK    2  A    between atoms: C_2  and  C_13
REMARK    3  A    between atoms: O_3  and  C_4
REMARK    4  A    between atoms: C_4  and  C_5
REMARK                            x       y       z     vdW  Elec       q    Type
REMARK                         _______ _______ _______ _____ _____    ______ ____
ROOT
ATOM      1  O   UNL     1       0.341   1.935  18.668  0.00  0.00    +0.000 OA
ATOM      2  C   UNL     1       1.444   2.343  18.988  0.00  0.00    +0.000 C 
ENDROOT
BRANCH   2   3
ATOM      3  C   UNL     1       1.712   3.720  19.470  0.00  0.00    +0.000 A 
ATOM      4  C   UNL     1       1.879   3.952  20.847  0.00  0.00    +0.000 A 
ATOM      5 CL   UNL     1       1.838   2.700  22.039  0.00  0.00    +0.000 Cl
ATOM      6  C   UNL     1       2.112   5.248  21.324  0.00  0.00    +0.000 A 
ATOM      7  C   UNL     1       2.204   6.318  20.437  0.00  0.00    +0.000 A 
ATOM      8  C   UNL     1       2.030   6.102  19.070  0.00  0.00    +0.000 A 
ATOM      9 CL   UNL     1       2.163   7.488  18.040  0.00  0.00    +0.000 Cl
ATOM     10  C   UNL     1       1.754   4.812  18.578  0.00  0.00    +0.000 A 
ATOM     11 CL   UNL     1       1.381   4.621  16.887  0.00  0.00    +0.000 Cl
ENDBRANCH   2   3
BRANCH   2  12
ATOM     12  O   UNL     1       2.597   1.639  18.951  0.00  0.00    +0.000 OA
BRANCH  12  13
ATOM     13  C   UNL     1       3.562   2.086  17.990  0.00  0.00    +0.000 C 
BRANCH  13  14
ATOM     14  C   UNL     1       4.644   2.944  18.651  0.00  0.00    +0.000 C 
ATOM     15  O   UNL     1       4.943   2.778  19.839  0.00  0.00    +0.000 OA
ATOM     16  N   UNL     1       5.265   3.906  17.871  0.00  0.00    +0.000 N 
ATOM     17  C   UNL     1       4.978   4.219  16.468  0.00  0.00    +0.000 C 
ATOM     18  C   UNL     1       6.264   4.153  15.633  0.00  0.00    +0.000 C 
ATOM     19  O   UNL     1       7.292   4.985  16.194  0.00  0.00    +0.000 OA
ATOM     20  C   UNL     1       7.597   4.585  17.542  0.00  0.00    +0.000 C 
ATOM     21  C   UNL     1       6.358   4.698  18.436  0.00  0.00    +0.000 C 
ENDBRANCH  13  14
ENDBRANCH  12  13
ENDBRANCH   2  12
TORSDOF 4
ENDMDL
MODEL 4
REMARK VINA RESULT:      -6.4      0.729      1.009
REMARK  Name = 
REMARK  4 active torsions:
REMARK  status: ('A' for Active; 'I' for Inactive)
REMARK    1  A    between atoms: C_2  and  O_3
REMARK    2  A    between atoms: C_2  and  C_13
REMARK    3  A    between atoms: O_3  and  C_4
REMARK    4  A    between atoms: C_4  and  C_5
REMARK                            x       y       z     vdW  Elec       q    Type
REMARK                         _______ _______ _______ _____ _____    ______ ____
ROOT
ATOM      1  O   UNL     1       5.340   3.151  19.010  0.00  0.00    +0.000 OA
ATOM      2  C   UNL     1       4.381   3.680  18.475  0.00  0.00    +0.000 C 
ENDROOT
BRANCH   2   3
ATOM      3  C   UNL     1       3.224   4.243  19.215  0.00  0.00    +0.000 A 
ATOM      4  C   UNL     1       2.235   3.379  19.717  0.00  0.00    +0.000 A 
ATOM      5 CL   UNL     1       2.301   1.658  19.562  0.00  0.00    +0.000 Cl
ATOM      6  C   UNL     1       1.126   3.893  20.400  0.00  0.00    +0.000 A 
ATOM      7  C   UNL     1       1.003   5.264  20.612  0.00  0.00    +0.000 A 
ATOM      8  C   UNL     1       1.974   6.132  20.111  0.00  0.00    +0.000 A 
ATOM      9 CL   UNL     1       1.743   7.820  20.422  0.00  0.00    +0.000 Cl
ATOM     10  C   UNL     1       3.074   5.636  19.386  0.00  0.00    +0.000 A 
ATOM     11 CL   UNL     1       4.167   6.767  18.640  0.00  0.00    +0.000 Cl
ENDBRANCH   2   3
BRANCH   2  12
ATOM     12  O   UNL     1       4.193   3.835  17.146  0.00  0.00    +0.000 OA
BRANCH  12  13
ATOM     13  C   UNL     1       5.371   3.719  16.339  0.00  0.00    +0.000 C 
BRANCH  13  14
ATOM     14  C   UNL     1       5.939   5.097  15.989  0.00  0.00    +0.000 C 
ATOM     15  O   UNL     1       5.461   5.760  15.061  0.00  0.00    +0.000 OA
ATOM     16  N   UNL     1       7.004   5.562  16.743  0.00  0.00    +0.000 N 
ATOM     17  C   UNL     1       7.676   4.860  17.841  0.00  0.00    +0.000 C 
ATOM     18  C   UNL     1       7.701   5.738  19.099  0.00  0.00    +0.000 C 
ATOM     19  O   UNL     1       8.273   7.027  18.824  0.00  0.00    +0.000 OA
ATOM     20  C   UNL     1       7.529   7.711  17.801  0.00  0.00    +0.000 C 
ATOM     21  C   UNL     1       7.531   6.905  16.497  0.00  0.00    +0.000 C 
ENDBRANCH  13  14
ENDBRANCH  12  13
ENDBRANCH   2  12
TORSDOF 4
ENDMDL
MODEL 5
REMARK VINA RESULT:      -6.4      2.235      3.722
REMARK  Name = 
REMARK  4 active torsions:
REMARK  status: ('A' for Active; 'I' for Inactive)
REMARK    1  A    between atoms: C_2  and  O_3
REMARK    2  A    between atoms: C_2  and  C_13
REMARK    3  A    between atoms: O_3  and  C_4
REMARK    4  A    between atoms: C_4  and  C_5
REMARK                            x       y       z     vdW  Elec       q    Type
REMARK                         _______ _______ _______ _____ _____    ______ ____
ROOT
ATOM      1  O   UNL     1       1.896   4.974  19.581  0.00  0.00    +0.000 OA
ATOM      2  C   UNL     1       2.687   5.894  19.458  0.00  0.00    +0.000 C 
ENDROOT
BRANCH   2   3
ATOM      3  C   UNL     1       2.296   7.284  19.117  0.00  0.00    +0.000 A 
ATOM      4  C   UNL     1       2.782   7.872  17.936  0.00  0.00    +0.000 A 
ATOM      5 CL   UNL     1       3.795   7.045  16.804  0.00  0.00    +0.000 Cl
ATOM      6  C   UNL     1       2.440   9.190  17.608  0.00  0.00    +0.000 A 
ATOM      7  C   UNL     1       1.595   9.924  18.436  0.00  0.00    +0.000 A 
ATOM      8  C   UNL     1       1.114   9.355  19.615  0.00  0.00    +0.000 A 
ATOM      9 CL   UNL     1       0.069  10.339  20.584  0.00  0.00    +0.000 Cl
ATOM     10  C   UNL     1       1.481   8.047  19.981  0.00  0.00    +0.000 A 
ATOM     11 CL   UNL     1       0.992   7.442  21.539  0.00  0.00    +0.000 Cl
ENDBRANCH   2   3
BRANCH   2  12
ATOM     12  O   UNL     1       4.029   5.816  19.593  0.00  0.00    +0.000 OA
BRANCH  12  13
ATOM     13  C   UNL     1       4.575   4.491  19.585  0.00  0.00    +0.000 C 
BRANCH  13  14
ATOM     14  C   UNL     1       4.794   3.992  18.155  0.00  0.00    +0.000 C 
ATOM     15  O   UNL     1       3.961   3.261  17.606  0.00  0.00    +0.000 OA
ATOM     16  N   UNL     1       5.956   4.385  17.509  0.00  0.00    +0.000 N 
ATOM     17  C   UNL     1       7.029   5.217  18.062  0.00  0.00    +0.000 C 
ATOM     18  C   UNL     1       7.305   6.412  17.140  0.00  0.00    +0.000 C 
ATOM     19  O   UNL     1       7.565   5.983  15.793  0.00  0.00    +0.000 OA
ATOM     20  C   UNL     1       6.449   5.243  15.266  0.00  0.00    +0.000 C 
ATOM     21  C   UNL     1       6.174   3.997  16.115  0.00  0.00    +0.000 C 
ENDBRANCH  13  14
ENDBRANCH  12  13
ENDBRANCH   2  12
TORSDOF 4
ENDMDL
MODEL 6
REMARK VINA RESULT:      -6.3      3.474      6.078
REMARK  Name = 
REMARK  4 active torsions:
REMARK  status: ('A' for Active; 'I' for Inactive)
REMARK    1  A    between atoms: C_2  and  O_3
REMARK    2  A    between atoms: C_2  and  C_13
REMARK    3  A    between atoms: O_3  and  C_4
REMARK    4  A    between atoms: C_4  and  C_5
REMARK                            x       y       z     vdW  Elec       q    Type
REMARK                         _______ _______ _______ _____ _____    ______ ____
ROOT
ATOM      1  O   UNL     1       4.245   3.255  19.730  0.00  0.00    +0.000 OA
ATOM      2  C   UNL     1       4.500   4.357  19.274  0.00  0.00    +0.000 C 
ENDROOT
BRANCH   2   3
ATOM      3  C   UNL     1       5.326   4.582  18.062  0.00  0.00    +0.000 A 
ATOM      4  C   UNL     1       6.605   5.151  18.190  0.00  0.00    +0.000 A 
ATOM      5 CL   UNL     1       7.314   5.576  19.709  0.00  0.00    +0.000 Cl
ATOM      6  C   UNL     1       7.392   5.389  17.056  0.00  0.00    +0.000 A 
ATOM      7  C   UNL     1       6.925   5.042  15.791  0.00  0.00    +0.000 A 
ATOM      8  C   UNL     1       5.654   4.485  15.650  0.00  0.00    +0.000 A 
ATOM      9 CL   UNL     1       5.155   4.083  14.041  0.00  0.00    +0.000 Cl
ATOM     10  C   UNL     1       4.834   4.277  16.775  0.00  0.00    +0.000 A 
ATOM     11 CL   UNL     1       3.196   3.736  16.532  0.00  0.00    +0.000 Cl
ENDBRANCH   2   3
BRANCH   2  12
ATOM     12  O   UNL     1       4.099   5.543  19.781  0.00  0.00    +0.000 OA
BRANCH  12  13
ATOM     13  C   UNL     1       2.694   5.810  19.688  0.00  0.00    +0.000 C 
BRANCH  13  14
ATOM     14  C   UNL     1       2.431   7.151  18.997  0.00  0.00    +0.000 C 
ATOM     15  O   UNL     1       2.732   7.318  17.809  0.00  0.00    +0.000 OA
ATOM     16  N   UNL     1       1.852   8.159  19.750  0.00  0.00    +0.000 N 
ATOM     17  C   UNL     1       1.481   8.094  21.167  0.00  0.00    +0.000 C 
ATOM     18  C   UNL     1       0.008   8.484  21.351  0.00  0.00    +0.000 C 
ATOM     19  O   UNL     1      -0.271   9.762  20.757  0.00  0.00    +0.000 OA
ATOM     20  C   UNL     1       0.030   9.750  19.350  0.00  0.00    +0.000 C 
ATOM     21  C   UNL     1       1.510   9.431  19.114  0.00  0.00    +0.000 C 
ENDBRANCH  13  14
ENDBRANCH  12  13
ENDBRANCH   2  12
TORSDOF 4
ENDMDL
MODEL 7
REMARK VINA RESULT:      -6.1      2.841      5.848
REMARK  Name = 
REMARK  4 active torsions:
REMARK  status: ('A' for Active; 'I' for Inactive)
REMARK    1  A    between atoms: C_2  and  O_3
REMARK    2  A    between atoms: C_2  and  C_13
REMARK    3  A    between atoms: O_3  and  C_4
REMARK    4  A    between atoms: C_4  and  C_5
REMARK                            x       y       z     vdW  Elec       q    Type
REMARK                         _______ _______ _______ _____ _____    ______ ____
ROOT
ATOM      1  O   UNL     1       2.750   5.726  17.669  0.00  0.00    +0.000 OA
ATOM      2  C   UNL     1       3.770   5.130  17.367  0.00  0.00    +0.000 C 
ENDROOT
BRANCH   2   3
ATOM      3  C   UNL     1       5.139   5.644  17.626  0.00  0.00    +0.000 A 
ATOM      4  C   UNL     1       5.745   6.503  16.693  0.00  0.00    +0.000 A 
ATOM      5 CL   UNL     1       4.966   7.049  15.249  0.00  0.00    +0.000 Cl
ATOM      6  C   UNL     1       7.043   6.981  16.910  0.00  0.00    +0.000 A 
ATOM      7  C   UNL     1       7.738   6.631  18.065  0.00  0.00    +0.000 A 
ATOM      8  C   UNL     1       7.150   5.772  18.994  0.00  0.00    +0.000 A 
ATOM      9 CL   UNL     1       8.084   5.392  20.402  0.00  0.00    +0.000 Cl
ATOM     10  C   UNL     1       5.863   5.249  18.771  0.00  0.00    +0.000 A 
ATOM     11 CL   UNL     1       5.240   4.054  19.874  0.00  0.00    +0.000 Cl
ENDBRANCH   2   3
BRANCH   2  12
ATOM     12  O   UNL     1       3.841   3.932  16.747  0.00  0.00    +0.000 OA
BRANCH  12  13
ATOM     13  C   UNL     1       2.704   3.077  16.924  0.00  0.00    +0.000 C 
BRANCH  13  14
ATOM     14  C   UNL     1       2.866   2.191  18.162  0.00  0.00    +0.000 C 
ATOM     15  O   UNL     1       3.688   1.267  18.174  0.00  0.00    +0.000 OA
ATOM     16  N   UNL     1       2.058   2.462  19.254  0.00  0.00    +0.000 N 
ATOM     17  C   UNL     1       1.029   3.503  19.350  0.00  0.00    +0.000 C 
ATOM     18  C   UNL     1       1.276   4.384  20.582  0.00  0.00    +0.000 C 
ATOM     19  O   UNL     1       1.386   3.593  21.776  0.00  0.00    +0.000 OA
ATOM     20  C   UNL     1       2.462   2.644  21.666  0.00  0.00    +0.000 C 
ATOM     21  C   UNL     1       2.229   1.693  20.487  0.00  0.00    +0.000 C 
ENDBRANCH  13  14
ENDBRANCH  12  13
ENDBRANCH   2  12
TORSDOF 4
ENDMDL
MODEL 8
REMARK VINA RESULT:      -6.1      4.348      6.363
REMARK  Name = 
REMARK  4 active torsions:
REMARK  status: ('A' for Active; 'I' for Inactive)
REMARK    1  A    between atoms: C_2  and  O_3
REMARK    2  A    between atoms: C_2  and  C_13
REMARK    3  A    between atoms: O_3  and  C_4
REMARK    4  A    between atoms: C_4  and  C_5
REMARK                            x       y       z     vdW  Elec       q    Type
REMARK                         _______ _______ _______ _____ _____    ______ ____
ROOT
ATOM      1  O   UNL     1       2.450   4.516  21.525  0.00  0.00    +0.000 OA
ATOM      2  C   UNL     1       2.613   5.057  20.445  0.00  0.00    +0.000 C 
ENDROOT
BRANCH   2   3
ATOM      3  C   UNL     1       2.970   4.332  19.200  0.00  0.00    +0.000 A 
ATOM      4  C   UNL     1       2.082   3.377  18.675  0.00  0.00    +0.000 A 
ATOM      5 CL   UNL     1       0.544   3.014  19.377  0.00  0.00    +0.000 Cl
ATOM      6  C   UNL     1       2.411   2.668  17.512  0.00  0.00    +0.000 A 
ATOM      7  C   UNL     1       3.610   2.920  16.850  0.00  0.00    +0.000 A 
ATOM      8  C   UNL     1       4.503   3.859  17.366  0.00  0.00    +0.000 A 
ATOM      9 CL   UNL     1       5.968   4.110  16.478  0.00  0.00    +0.000 Cl
ATOM     10  C   UNL     1       4.207   4.550  18.557  0.00  0.00    +0.000 A 
ATOM     11 CL   UNL     1       5.423   5.587  19.249  0.00  0.00    +0.000 Cl
ENDBRANCH   2   3
BRANCH   2  12
ATOM     12  O   UNL     1       2.513   6.380  20.191  0.00  0.00    +0.000 OA
BRANCH  12  13
ATOM     13  C   UNL     1       1.327   7.015  20.685  0.00  0.00    +0.000 C 
BRANCH  13  14
ATOM     14  C   UNL     1       1.295   8.498  20.305  0.00  0.00    +0.000 C 
ATOM     15  O   UNL     1       1.453   8.852  19.130  0.00  0.00    +0.000 OA
ATOM     16  N   UNL     1       1.089   9.417  21.321  0.00  0.00    +0.000 N 
ATOM     17  C   UNL     1       0.923   9.126  22.748  0.00  0.00    +0.000 C 
ATOM     18  C   UNL     1      -0.371   9.761  23.274  0.00  0.00    +0.000 C 
ATOM     19  O   UNL     1      -0.419  11.167  22.980  0.00  0.00    +0.000 OA
ATOM     20  C   UNL     1      -0.337  11.397  21.562  0.00  0.00    +0.000 C 
ATOM     21  C   UNL     1       0.974  10.839  20.996  0.00  0.00    +0.000 C 
ENDBRANCH  13  14
ENDBRANCH  12  13
ENDBRANCH   2  12
TORSDOF 4
ENDMDL
MODEL 9
REMARK VINA RESULT:      -6.0      3.630      5.616
REMARK  Name = 
REMARK  4 active torsions:
REMARK  status: ('A' for Active; 'I' for Inactive)
REMARK    1  A    between atoms: C_2  and  O_3
REMARK    2  A    between atoms: C_2  and  C_13
REMARK    3  A    between atoms: O_3  and  C_4
REMARK    4  A    between atoms: C_4  and  C_5
REMARK                            x       y       z     vdW  Elec       q    Type
REMARK                         _______ _______ _______ _____ _____    ______ ____
ROOT
ATOM      1  O   UNL     1       5.396   5.957  19.213  0.00  0.00    +0.000 OA
ATOM      2  C   UNL     1       4.314   5.758  18.687  0.00  0.00    +0.000 C 
ENDROOT
BRANCH   2   3
ATOM      3  C   UNL     1       3.591   4.463  18.743  0.00  0.00    +0.000 A 
ATOM      4  C   UNL     1       3.656   3.584  17.648  0.00  0.00    +0.000 A 
ATOM      5 CL   UNL     1       4.584   3.901  16.223  0.00  0.00    +0.000 Cl
ATOM      6  C   UNL     1       2.964   2.367  17.674  0.00  0.00    +0.000 A 
ATOM      7  C   UNL     1       2.223   2.003  18.795  0.00  0.00    +0.000 A 
ATOM      8  C   UNL     1       2.142   2.871  19.885  0.00  0.00    +0.000 A 
ATOM      9 CL   UNL     1       1.201   2.337  21.236  0.00  0.00    +0.000 Cl
ATOM     10  C   UNL     1       2.798   4.116  19.858  0.00  0.00    +0.000 A 
ATOM     11 CL   UNL     1       2.533   5.232  21.169  0.00  0.00    +0.000 Cl
ENDBRANCH   2   3
BRANCH   2  12
ATOM     12  O   UNL     1       3.599   6.650  17.967  0.00  0.00    +0.000 OA
BRANCH  12  13
ATOM     13  C   UNL     1       2.305   6.971  18.492  0.00  0.00    +0.000 C 
BRANCH  13  14
ATOM     14  C   UNL     1       1.992   8.460  18.317  0.00  0.00    +0.000 C 
ATOM     15  O   UNL     1       2.186   9.023  17.233  0.00  0.00    +0.000 OA
ATOM     16  N   UNL     1       1.491   9.143  19.413  0.00  0.00    +0.000 N 
ATOM     17  C   UNL     1       1.249   8.598  20.752  0.00  0.00    +0.000 C 
ATOM     18  C   UNL     1      -0.198   8.871  21.185  0.00  0.00    +0.000 C 
ATOM     19  O   UNL     1      -0.518  10.267  21.082  0.00  0.00    +0.000 OA
ATOM     20  C   UNL     1      -0.346  10.735  19.733  0.00  0.00    +0.000 C 
ATOM     21  C   UNL     1       1.104  10.548  19.274  0.00  0.00    +0.000 C 
ENDBRANCH  13  14
ENDBRANCH  12  13
ENDBRANCH   2  12
TORSDOF 4
ENDMDL
