MODEL 1
REMARK VINA RESULT:      -6.7      0.000      0.000
REMARK  Name = 
REMARK  7 active torsions:
REMARK  status: ('A' for Active; 'I' for Inactive)
REMARK    1  A    between atoms: C_2  and  N_3
REMARK    2  A    between atoms: N_5  and  C_6
REMARK    3  A    between atoms: C_6  and  C_7
REMARK    4  A    between atoms: C_7  and  C_8
REMARK    5  A    between atoms: C_8  and  O_10
REMARK    6  A    between atoms: N_11  and  C_12
REMARK    7  A    between atoms: C_15  and  C_16
REMARK                            x       y       z     vdW  Elec       q    Type
REMARK                         _______ _______ _______ _____ _____    ______ ____
ROOT
ATOM      1  N   UNL     1       1.657   6.038  21.044  0.00  0.00    +0.000 N 
ATOM      2  C   UNL     1       2.445   5.340  20.161  0.00  0.00    +0.000 C 
ATOM      3  N   UNL     1       2.213   4.160  19.697  0.00  0.00    +0.000 NA
ATOM      4  N   UNL     1       3.613   6.001  19.841  0.00  0.00    +0.000 N 
ATOM      5  H   UNL     1       0.787   5.588  21.283  0.00  0.00    +0.000 HD
ATOM      6  H   UNL     1       4.041   6.552  20.572  0.00  0.00    +0.000 HD
ENDROOT
BRANCH   4   7
ATOM      7  C   UNL     1       4.427   5.762  18.720  0.00  0.00    +0.000 A 
ATOM      8  C   UNL     1       5.585   4.975  18.794  0.00  0.00    +0.000 A 
ATOM      9  C   UNL     1       6.415   4.799  17.683  0.00  0.00    +0.000 A 
ATOM     10  C   UNL     1       6.107   5.429  16.475  0.00  0.00    +0.000 A 
ATOM     11  C   UNL     1       4.949   6.207  16.381  0.00  0.00    +0.000 A 
ATOM     12  C   UNL     1       4.115   6.367  17.494  0.00  0.00    +0.000 A 
BRANCH  10  13
ATOM     13  C   UNL     1       6.981   5.293  15.346  0.00  0.00    +0.000 C 
ATOM     14  N   UNL     1       7.679   5.192  14.428  0.00  0.00    +0.000 NA
ENDBRANCH  10  13
ENDBRANCH   4   7
BRANCH   1  16
ATOM     15  N   UNL     1       1.370   8.593  20.615  0.00  0.00    +0.000 NA
ATOM     16  C   UNL     1       1.481   7.455  20.805  0.00  0.00    +0.000 C 
ENDBRANCH   1  16
BRANCH   3  17
ATOM     17  C   UNL     1       1.008   3.388  19.960  0.00  0.00    +0.000 C 
BRANCH  17  18
ATOM     18  C   UNL     1       0.830   2.320  18.887  0.00  0.00    +0.000 C 
BRANCH  18  19
ATOM     19  C   UNL     1       2.055   2.275  18.009  0.00  0.00    +0.000 C 
ATOM     20  O   UNL     1       2.210   2.958  17.007  0.00  0.00    +0.000 OA
BRANCH  19  21
ATOM     21  O   UNL     1       2.969   1.361  18.403  0.00  0.00    +0.000 OA
ATOM     22  H   UNL     1       2.742   0.439  18.174  0.00  0.00    +0.000 HD
ENDBRANCH  19  21
ENDBRANCH  18  19
ENDBRANCH  17  18
ENDBRANCH   3  17
TORSDOF 7
ENDMDL
MODEL 2
REMARK VINA RESULT:      -6.6      0.205      1.339
REMARK  Name = 
REMARK  7 active torsions:
REMARK  status: ('A' for Active; 'I' for Inactive)
REMARK    1  A    between atoms: C_2  and  N_3
REMARK    2  A    between atoms: N_5  and  C_6
REMARK    3  A    between atoms: C_6  and  C_7
REMARK    4  A    between atoms: C_7  and  C_8
REMARK    5  A    between atoms: C_8  and  O_10
REMARK    6  A    between atoms: N_11  and  C_12
REMARK    7  A    between atoms: C_15  and  C_16
REMARK                            x       y       z     vdW  Elec       q    Type
REMARK                         _______ _______ _______ _____ _____    ______ ____
ROOT
ATOM      1  N   UNL     1       1.661   5.975  21.000  0.00  0.00    +0.000 N 
ATOM      2  C   UNL     1       2.466   5.355  20.075  0.00  0.00    +0.000 C 
ATOM      3  N   UNL     1       2.248   4.216  19.513  0.00  0.00    +0.000 NA
ATOM      4  N   UNL     1       3.634   6.046  19.826  0.00  0.00    +0.000 N 
ATOM      5  H   UNL     1       0.790   5.503  21.189  0.00  0.00    +0.000 HD
ATOM      6  H   UNL     1       4.048   6.538  20.607  0.00  0.00    +0.000 HD
ENDROOT
BRANCH   4   7
ATOM      7  C   UNL     1       4.466   5.904  18.702  0.00  0.00    +0.000 A 
ATOM      8  C   UNL     1       4.192   6.546  17.487  0.00  0.00    +0.000 A 
ATOM      9  C   UNL     1       4.996   6.344  16.361  0.00  0.00    +0.000 A 
ATOM     10  C   UNL     1       6.087   5.474  16.430  0.00  0.00    +0.000 A 
ATOM     11  C   UNL     1       6.382   4.836  17.639  0.00  0.00    +0.000 A 
ATOM     12  C   UNL     1       5.579   5.054  18.766  0.00  0.00    +0.000 A 
BRANCH  10  13
ATOM     13  C   UNL     1       6.887   5.225  15.267  0.00  0.00    +0.000 C 
ATOM     14  N   UNL     1       7.523   5.025  14.319  0.00  0.00    +0.000 NA
ENDBRANCH  10  13
ENDBRANCH   4   7
BRANCH   1  16
ATOM     15  N   UNL     1       1.335   8.549  20.744  0.00  0.00    +0.000 NA
ATOM     16  C   UNL     1       1.479   7.406  20.874  0.00  0.00    +0.000 C 
ENDBRANCH   1  16
BRANCH   3  17
ATOM     17  C   UNL     1       1.044   3.420  19.694  0.00  0.00    +0.000 C 
BRANCH  17  18
ATOM     18  C   UNL     1       1.044   2.248  18.719  0.00  0.00    +0.000 C 
BRANCH  18  19
ATOM     19  C   UNL     1       2.305   2.276  17.893  0.00  0.00    +0.000 C 
ATOM     20  O   UNL     1       3.284   1.575  18.105  0.00  0.00    +0.000 OA
BRANCH  19  21
ATOM     21  O   UNL     1       2.284   3.198  16.905  0.00  0.00    +0.000 OA
ATOM     22  H   UNL     1       2.552   2.859  16.031  0.00  0.00    +0.000 HD
ENDBRANCH  19  21
ENDBRANCH  18  19
ENDBRANCH  17  18
ENDBRANCH   3  17
TORSDOF 7
ENDMDL
MODEL 3
REMARK VINA RESULT:      -6.5      2.758      5.457
REMARK  Name = 
REMARK  7 active torsions:
REMARK  status: ('A' for Active; 'I' for Inactive)
REMARK    1  A    between atoms: C_2  and  N_3
REMARK    2  A    between atoms: N_5  and  C_6
REMARK    3  A    between atoms: C_6  and  C_7
REMARK    4  A    between atoms: C_7  and  C_8
REMARK    5  A    between atoms: C_8  and  O_10
REMARK    6  A    between atoms: N_11  and  C_12
REMARK    7  A    between atoms: C_15  and  C_16
REMARK                            x       y       z     vdW  Elec       q    Type
REMARK                         _______ _______ _______ _____ _____    ______ ____
ROOT
ATOM      1  N   UNL     1       4.215   4.233  18.489  0.00  0.00    +0.000 N 
ATOM      2  C   UNL     1       3.082   5.008  18.541  0.00  0.00    +0.000 C 
ATOM      3  N   UNL     1       1.879   4.592  18.750  0.00  0.00    +0.000 NA
ATOM      4  N   UNL     1       3.324   6.338  18.267  0.00  0.00    +0.000 N 
ATOM      5  H   UNL     1       4.072   3.258  18.703  0.00  0.00    +0.000 HD
ATOM      6  H   UNL     1       4.042   6.540  17.585  0.00  0.00    +0.000 HD
ENDROOT
BRANCH   4   7
ATOM      7  C   UNL     1       2.496   7.425  18.600  0.00  0.00    +0.000 A 
ATOM      8  C   UNL     1       2.141   8.406  17.664  0.00  0.00    +0.000 A 
ATOM      9  C   UNL     1       1.368   9.511  18.029  0.00  0.00    +0.000 A 
ATOM     10  C   UNL     1       0.948   9.663  19.353  0.00  0.00    +0.000 A 
ATOM     11  C   UNL     1       1.282   8.686  20.296  0.00  0.00    +0.000 A 
ATOM     12  C   UNL     1       2.046   7.575  19.919  0.00  0.00    +0.000 A 
BRANCH  10  13
ATOM     13  C   UNL     1       0.196  10.819  19.744  0.00  0.00    +0.000 C 
ATOM     14  N   UNL     1      -0.400  11.759  20.064  0.00  0.00    +0.000 NA
ENDBRANCH  10  13
ENDBRANCH   4   7
BRANCH   1  16
ATOM     15  N   UNL     1       6.360   5.196  19.615  0.00  0.00    +0.000 NA
ATOM     16  C   UNL     1       5.409   4.753  19.121  0.00  0.00    +0.000 C 
ENDBRANCH   1  16
BRANCH   3  17
ATOM     17  C   UNL     1       1.522   3.217  19.064  0.00  0.00    +0.000 C 
BRANCH  17  18
ATOM     18  C   UNL     1       1.007   3.129  20.496  0.00  0.00    +0.000 C 
BRANCH  18  19
ATOM     19  C   UNL     1       2.152   3.321  21.459  0.00  0.00    +0.000 C 
ATOM     20  O   UNL     1       2.735   2.409  22.027  0.00  0.00    +0.000 OA
BRANCH  19  21
ATOM     21  O   UNL     1       2.456   4.618  21.684  0.00  0.00    +0.000 OA
ATOM     22  H   UNL     1       3.398   4.840  21.557  0.00  0.00    +0.000 HD
ENDBRANCH  19  21
ENDBRANCH  18  19
ENDBRANCH  17  18
ENDBRANCH   3  17
TORSDOF 7
ENDMDL
MODEL 4
REMARK VINA RESULT:      -6.4      2.655      5.796
REMARK  Name = 
REMARK  7 active torsions:
REMARK  status: ('A' for Active; 'I' for Inactive)
REMARK    1  A    between atoms: C_2  and  N_3
REMARK    2  A    between atoms: N_5  and  C_6
REMARK    3  A    between atoms: C_6  and  C_7
REMARK    4  A    between atoms: C_7  and  C_8
REMARK    5  A    between atoms: C_8  and  O_10
REMARK    6  A    between atoms: N_11  and  C_12
REMARK    7  A    between atoms: C_15  and  C_16
REMARK                            x       y       z     vdW  Elec       q    Type
REMARK                         _______ _______ _______ _____ _____    ______ ____
ROOT
ATOM      1  N   UNL     1       4.293   3.604  18.881  0.00  0.00    +0.000 N 
ATOM      2  C   UNL     1       4.206   4.947  19.158  0.00  0.00    +0.000 C 
ATOM      3  N   UNL     1       5.192   5.772  19.258  0.00  0.00    +0.000 NA
ATOM      4  N   UNL     1       2.915   5.365  19.408  0.00  0.00    +0.000 N 
ATOM      5  H   UNL     1       5.222   3.272  18.675  0.00  0.00    +0.000 HD
ATOM      6  H   UNL     1       2.309   4.711  19.884  0.00  0.00    +0.000 HD
ENDROOT
BRANCH   4   7
ATOM      7  C   UNL     1       2.438   6.685  19.346  0.00  0.00    +0.000 A 
ATOM      8  C   UNL     1       1.882   7.330  20.460  0.00  0.00    +0.000 A 
ATOM      9  C   UNL     1       1.356   8.621  20.364  0.00  0.00    +0.000 A 
ATOM     10  C   UNL     1       1.362   9.288  19.136  0.00  0.00    +0.000 A 
ATOM     11  C   UNL     1       1.925   8.664  18.019  0.00  0.00    +0.000 A 
ATOM     12  C   UNL     1       2.462   7.375  18.126  0.00  0.00    +0.000 A 
BRANCH  10  13
ATOM     13  C   UNL     1       0.780  10.592  19.020  0.00  0.00    +0.000 C 
ATOM     14  N   UNL     1       0.300  11.642  18.918  0.00  0.00    +0.000 NA
ENDBRANCH  10  13
ENDBRANCH   4   7
BRANCH   1  16
ATOM     15  N   UNL     1       2.507   2.621  17.255  0.00  0.00    +0.000 NA
ATOM     16  C   UNL     1       3.310   3.044  17.975  0.00  0.00    +0.000 C 
ENDBRANCH   1  16
BRANCH   3  17
ATOM     17  C   UNL     1       6.583   5.436  18.998  0.00  0.00    +0.000 C 
BRANCH  17  18
ATOM     18  C   UNL     1       7.068   6.161  17.748  0.00  0.00    +0.000 C 
BRANCH  18  19
ATOM     19  C   UNL     1       7.131   5.194  16.593  0.00  0.00    +0.000 C 
ATOM     20  O   UNL     1       7.615   5.455  15.502  0.00  0.00    +0.000 OA
BRANCH  19  21
ATOM     21  O   UNL     1       6.549   4.003  16.855  0.00  0.00    +0.000 OA
ATOM     22  H   UNL     1       7.157   3.240  16.814  0.00  0.00    +0.000 HD
ENDBRANCH  19  21
ENDBRANCH  18  19
ENDBRANCH  17  18
ENDBRANCH   3  17
TORSDOF 7
ENDMDL
MODEL 5
REMARK VINA RESULT:      -6.4      2.482      5.353
REMARK  Name = 
REMARK  7 active torsions:
REMARK  status: ('A' for Active; 'I' for Inactive)
REMARK    1  A    between atoms: C_2  and  N_3
REMARK    2  A    between atoms: N_5  and  C_6
REMARK    3  A    between atoms: C_6  and  C_7
REMARK    4  A    between atoms: C_7  and  C_8
REMARK    5  A    between atoms: C_8  and  O_10
REMARK    6  A    between atoms: N_11  and  C_12
REMARK    7  A    between atoms: C_15  and  C_16
REMARK                            x       y       z     vdW  Elec       q    Type
REMARK                         _______ _______ _______ _____ _____    ______ ____
ROOT
ATOM      1  N   UNL     1       4.126   4.252  18.037  0.00  0.00    +0.000 N 
ATOM      2  C   UNL     1       3.024   5.054  18.209  0.00  0.00    +0.000 C 
ATOM      3  N   UNL     1       1.805   4.659  18.353  0.00  0.00    +0.000 NA
ATOM      4  N   UNL     1       3.319   6.401  18.139  0.00  0.00    +0.000 N 
ATOM      5  H   UNL     1       3.944   3.263  18.101  0.00  0.00    +0.000 HD
ATOM      6  H   UNL     1       4.048   6.675  17.494  0.00  0.00    +0.000 HD
ENDROOT
BRANCH   4   7
ATOM      7  C   UNL     1       2.533   7.455  18.635  0.00  0.00    +0.000 A 
ATOM      8  C   UNL     1       2.088   7.492  19.964  0.00  0.00    +0.000 A 
ATOM      9  C   UNL     1       1.256   8.517  20.422  0.00  0.00    +0.000 A 
ATOM     10  C   UNL     1       0.838   9.522  19.546  0.00  0.00    +0.000 A 
ATOM     11  C   UNL     1       1.283   9.507  18.221  0.00  0.00    +0.000 A 
ATOM     12  C   UNL     1       2.128   8.483  17.772  0.00  0.00    +0.000 A 
BRANCH  10  13
ATOM     13  C   UNL     1      -0.055  10.548  19.997  0.00  0.00    +0.000 C 
ATOM     14  N   UNL     1      -0.783  11.378  20.350  0.00  0.00    +0.000 NA
ENDBRANCH  10  13
ENDBRANCH   4   7
BRANCH   1  16
ATOM     15  N   UNL     1       6.289   4.929  19.325  0.00  0.00    +0.000 NA
ATOM     16  C   UNL     1       5.337   4.623  18.739  0.00  0.00    +0.000 C 
ENDBRANCH   1  16
BRANCH   3  17
ATOM     17  C   UNL     1       1.392   3.268  18.455  0.00  0.00    +0.000 C 
BRANCH  17  18
ATOM     18  C   UNL     1       0.820   2.996  19.842  0.00  0.00    +0.000 C 
BRANCH  18  19
ATOM     19  C   UNL     1       1.940   2.669  20.797  0.00  0.00    +0.000 C 
ATOM     20  O   UNL     1       3.087   2.422  20.454  0.00  0.00    +0.000 OA
BRANCH  19  21
ATOM     21  O   UNL     1       1.551   2.623  22.090  0.00  0.00    +0.000 OA
ATOM     22  H   UNL     1       1.876   3.364  22.636  0.00  0.00    +0.000 HD
ENDBRANCH  19  21
ENDBRANCH  18  19
ENDBRANCH  17  18
ENDBRANCH   3  17
TORSDOF 7
ENDMDL
MODEL 6
REMARK VINA RESULT:      -6.4      2.464      5.397
REMARK  Name = 
REMARK  7 active torsions:
REMARK  status: ('A' for Active; 'I' for Inactive)
REMARK    1  A    between atoms: C_2  and  N_3
REMARK    2  A    between atoms: N_5  and  C_6
REMARK    3  A    between atoms: C_6  and  C_7
REMARK    4  A    between atoms: C_7  and  C_8
REMARK    5  A    between atoms: C_8  and  O_10
REMARK    6  A    between atoms: N_11  and  C_12
REMARK    7  A    between atoms: C_15  and  C_16
REMARK                            x       y       z     vdW  Elec       q    Type
REMARK                         _______ _______ _______ _____ _____    ______ ____
ROOT
ATOM      1  N   UNL     1       4.770   4.362  18.002  0.00  0.00    +0.000 N 
ATOM      2  C   UNL     1       3.571   5.034  18.038  0.00  0.00    +0.000 C 
ATOM      3  N   UNL     1       2.398   4.509  17.944  0.00  0.00    +0.000 NA
ATOM      4  N   UNL     1       3.721   6.403  18.116  0.00  0.00    +0.000 N 
ATOM      5  H   UNL     1       4.692   3.358  17.964  0.00  0.00    +0.000 HD
ATOM      6  H   UNL     1       4.510   6.804  17.626  0.00  0.00    +0.000 HD
ENDROOT
BRANCH   4   7
ATOM      7  C   UNL     1       2.751   7.327  18.542  0.00  0.00    +0.000 A 
ATOM      8  C   UNL     1       2.258   8.332  17.699  0.00  0.00    +0.000 A 
ATOM      9  C   UNL     1       1.340   9.280  18.159  0.00  0.00    +0.000 A 
ATOM     10  C   UNL     1       0.910   9.247  19.488  0.00  0.00    +0.000 A 
ATOM     11  C   UNL     1       1.383   8.243  20.339  0.00  0.00    +0.000 A 
ATOM     12  C   UNL     1       2.292   7.289  19.866  0.00  0.00    +0.000 A 
BRANCH  10  13
ATOM     13  C   UNL     1       0.006  10.245  19.980  0.00  0.00    +0.000 C 
ATOM     14  N   UNL     1      -0.725  11.046  20.389  0.00  0.00    +0.000 NA
ENDBRANCH  10  13
ENDBRANCH   4   7
BRANCH   1  16
ATOM     15  N   UNL     1       6.622   5.156  19.656  0.00  0.00    +0.000 NA
ATOM     16  C   UNL     1       5.801   4.788  18.926  0.00  0.00    +0.000 C 
ENDBRANCH   1  16
BRANCH   3  17
ATOM     17  C   UNL     1       2.132   3.080  17.875  0.00  0.00    +0.000 C 
BRANCH  17  18
ATOM     18  C   UNL     1       0.890   2.743  18.692  0.00  0.00    +0.000 C 
BRANCH  18  19
ATOM     19  C   UNL     1       1.120   3.104  20.138  0.00  0.00    +0.000 C 
ATOM     20  O   UNL     1       1.691   2.385  20.945  0.00  0.00    +0.000 OA
BRANCH  19  21
ATOM     21  O   UNL     1       0.586   4.295  20.488  0.00  0.00    +0.000 OA
ATOM     22  H   UNL     1      -0.388   4.302  20.535  0.00  0.00    +0.000 HD
ENDBRANCH  19  21
ENDBRANCH  18  19
ENDBRANCH  17  18
ENDBRANCH   3  17
TORSDOF 7
ENDMDL
MODEL 7
REMARK VINA RESULT:      -6.2      3.146      6.055
REMARK  Name = 
REMARK  7 active torsions:
REMARK  status: ('A' for Active; 'I' for Inactive)
REMARK    1  A    between atoms: C_2  and  N_3
REMARK    2  A    between atoms: N_5  and  C_6
REMARK    3  A    between atoms: C_6  and  C_7
REMARK    4  A    between atoms: C_7  and  C_8
REMARK    5  A    between atoms: C_8  and  O_10
REMARK    6  A    between atoms: N_11  and  C_12
REMARK    7  A    between atoms: C_15  and  C_16
REMARK                            x       y       z     vdW  Elec       q    Type
REMARK                         _______ _______ _______ _____ _____    ______ ____
ROOT
ATOM      1  N   UNL     1       4.439   3.247  18.737  0.00  0.00    +0.000 N 
ATOM      2  C   UNL     1       4.388   4.603  18.950  0.00  0.00    +0.000 C 
ATOM      3  N   UNL     1       5.378   5.426  18.880  0.00  0.00    +0.000 NA
ATOM      4  N   UNL     1       3.139   5.043  19.338  0.00  0.00    +0.000 N 
ATOM      5  H   UNL     1       5.335   2.899  18.434  0.00  0.00    +0.000 HD
ATOM      6  H   UNL     1       2.597   4.419  19.921  0.00  0.00    +0.000 HD
ENDROOT
BRANCH   4   7
ATOM      7  C   UNL     1       2.657   6.361  19.265  0.00  0.00    +0.000 A 
ATOM      8  C   UNL     1       2.067   7.001  20.364  0.00  0.00    +0.000 A 
ATOM      9  C   UNL     1       1.538   8.290  20.256  0.00  0.00    +0.000 A 
ATOM     10  C   UNL     1       1.575   8.959  19.030  0.00  0.00    +0.000 A 
ATOM     11  C   UNL     1       2.172   8.340  17.928  0.00  0.00    +0.000 A 
ATOM     12  C   UNL     1       2.712   7.054  18.048  0.00  0.00    +0.000 A 
BRANCH  10  13
ATOM     13  C   UNL     1       0.991  10.261  18.900  0.00  0.00    +0.000 C 
ATOM     14  N   UNL     1       0.528  11.318  18.789  0.00  0.00    +0.000 NA
ENDBRANCH  10  13
ENDBRANCH   4   7
BRANCH   1  16
ATOM     15  N   UNL     1       2.464   2.162  17.426  0.00  0.00    +0.000 NA
ATOM     16  C   UNL     1       3.350   2.646  17.994  0.00  0.00    +0.000 C 
ENDBRANCH   1  16
BRANCH   3  17
ATOM     17  C   UNL     1       6.725   5.068  18.466  0.00  0.00    +0.000 C 
BRANCH  17  18
ATOM     18  C   UNL     1       7.668   6.244  18.692  0.00  0.00    +0.000 C 
BRANCH  18  19
ATOM     19  C   UNL     1       7.626   7.164  17.498  0.00  0.00    +0.000 C 
ATOM     20  O   UNL     1       7.649   8.384  17.567  0.00  0.00    +0.000 OA
BRANCH  19  21
ATOM     21  O   UNL     1       7.508   6.514  16.319  0.00  0.00    +0.000 OA
ATOM     22  H   UNL     1       7.603   7.084  15.533  0.00  0.00    +0.000 HD
ENDBRANCH  19  21
ENDBRANCH  18  19
ENDBRANCH  17  18
ENDBRANCH   3  17
TORSDOF 7
ENDMDL
MODEL 8
REMARK VINA RESULT:      -6.2      1.343      1.680
REMARK  Name = 
REMARK  7 active torsions:
REMARK  status: ('A' for Active; 'I' for Inactive)
REMARK    1  A    between atoms: C_2  and  N_3
REMARK    2  A    between atoms: N_5  and  C_6
REMARK    3  A    between atoms: C_6  and  C_7
REMARK    4  A    between atoms: C_7  and  C_8
REMARK    5  A    between atoms: C_8  and  O_10
REMARK    6  A    between atoms: N_11  and  C_12
REMARK    7  A    between atoms: C_15  and  C_16
REMARK                            x       y       z     vdW  Elec       q    Type
REMARK                         _______ _______ _______ _____ _____    ______ ____
ROOT
ATOM      1  N   UNL     1       1.902   6.991  20.553  0.00  0.00    +0.000 N 
ATOM      2  C   UNL     1       2.553   6.052  19.790  0.00  0.00    +0.000 C 
ATOM      3  N   UNL     1       2.320   4.784  19.773  0.00  0.00    +0.000 NA
ATOM      4  N   UNL     1       3.589   6.582  19.048  0.00  0.00    +0.000 N 
ATOM      5  H   UNL     1       1.128   6.636  21.092  0.00  0.00    +0.000 HD
ATOM      6  H   UNL     1       4.109   7.340  19.469  0.00  0.00    +0.000 HD
ENDROOT
BRANCH   4   7
ATOM      7  C   UNL     1       4.188   6.003  17.916  0.00  0.00    +0.000 A 
ATOM      8  C   UNL     1       4.713   6.777  16.873  0.00  0.00    +0.000 A 
ATOM      9  C   UNL     1       5.249   6.183  15.727  0.00  0.00    +0.000 A 
ATOM     10  C   UNL     1       5.253   4.792  15.598  0.00  0.00    +0.000 A 
ATOM     11  C   UNL     1       4.745   4.005  16.636  0.00  0.00    +0.000 A 
ATOM     12  C   UNL     1       4.222   4.607  17.787  0.00  0.00    +0.000 A 
BRANCH  10  13
ATOM     13  C   UNL     1       5.756   4.178  14.404  0.00  0.00    +0.000 C 
ATOM     14  N   UNL     1       6.154   3.689  13.433  0.00  0.00    +0.000 NA
ENDBRANCH  10  13
ENDBRANCH   4   7
BRANCH   1  16
ATOM     15  N   UNL     1       1.337   9.284  19.449  0.00  0.00    +0.000 NA
ATOM     16  C   UNL     1       1.585   8.257  19.925  0.00  0.00    +0.000 C 
ENDBRANCH   1  16
BRANCH   3  17
ATOM     17  C   UNL     1       1.244   4.131  20.503  0.00  0.00    +0.000 C 
BRANCH  17  18
ATOM     18  C   UNL     1       1.421   2.617  20.445  0.00  0.00    +0.000 C 
BRANCH  18  19
ATOM     19  C   UNL     1       1.290   2.147  19.018  0.00  0.00    +0.000 C 
ATOM     20  O   UNL     1       0.240   2.126  18.394  0.00  0.00    +0.000 OA
BRANCH  19  21
ATOM     21  O   UNL     1       2.448   1.693  18.491  0.00  0.00    +0.000 OA
ATOM     22  H   UNL     1       3.234   1.851  19.048  0.00  0.00    +0.000 HD
ENDBRANCH  19  21
ENDBRANCH  18  19
ENDBRANCH  17  18
ENDBRANCH   3  17
TORSDOF 7
ENDMDL
MODEL 9
REMARK VINA RESULT:      -6.2      2.831      5.793
REMARK  Name = 
REMARK  7 active torsions:
REMARK  status: ('A' for Active; 'I' for Inactive)
REMARK    1  A    between atoms: C_2  and  N_3
REMARK    2  A    between atoms: N_5  and  C_6
REMARK    3  A    between atoms: C_6  and  C_7
REMARK    4  A    between atoms: C_7  and  C_8
REMARK    5  A    between atoms: C_8  and  O_10
REMARK    6  A    between atoms: N_11  and  C_12
REMARK    7  A    between atoms: C_15  and  C_16
REMARK                            x       y       z     vdW  Elec       q    Type
REMARK                         _______ _______ _______ _____ _____    ______ ____
ROOT
ATOM      1  N   UNL     1       4.990   3.199  19.251  0.00  0.00    +0.000 N 
ATOM      2  C   UNL     1       4.790   4.558  19.281  0.00  0.00    +0.000 C 
ATOM      3  N   UNL     1       5.685   5.467  19.092  0.00  0.00    +0.000 NA
ATOM      4  N   UNL     1       3.499   4.908  19.620  0.00  0.00    +0.000 N 
ATOM      5  H   UNL     1       5.920   2.913  18.987  0.00  0.00    +0.000 HD
ATOM      6  H   UNL     1       3.026   4.313  20.287  0.00  0.00    +0.000 HD
ENDROOT
BRANCH   4   7
ATOM      7  C   UNL     1       2.877   6.145  19.378  0.00  0.00    +0.000 A 
ATOM      8  C   UNL     1       2.976   6.798  18.142  0.00  0.00    +0.000 A 
ATOM      9  C   UNL     1       2.402   8.056  17.938  0.00  0.00    +0.000 A 
ATOM     10  C   UNL     1       1.729   8.694  18.983  0.00  0.00    +0.000 A 
ATOM     11  C   UNL     1       1.610   8.049  20.218  0.00  0.00    +0.000 A 
ATOM     12  C   UNL     1       2.176   6.783  20.410  0.00  0.00    +0.000 A 
BRANCH  10  13
ATOM     13  C   UNL     1       1.181  10.005  18.796  0.00  0.00    +0.000 C 
ATOM     14  N   UNL     1       0.740  11.064  18.632  0.00  0.00    +0.000 NA
ENDBRANCH  10  13
ENDBRANCH   4   7
BRANCH   1  16
ATOM     15  N   UNL     1       3.186   1.728  18.077  0.00  0.00    +0.000 NA
ATOM     16  C   UNL     1       3.976   2.390  18.606  0.00  0.00    +0.000 C 
ENDBRANCH   1  16
BRANCH   3  17
ATOM     17  C   UNL     1       7.065   5.204  18.715  0.00  0.00    +0.000 C 
BRANCH  17  18
ATOM     18  C   UNL     1       7.177   5.092  17.198  0.00  0.00    +0.000 C 
BRANCH  18  19
ATOM     19  C   UNL     1       6.588   6.321  16.554  0.00  0.00    +0.000 C 
ATOM     20  O   UNL     1       5.797   6.299  15.622  0.00  0.00    +0.000 OA
BRANCH  19  21
ATOM     21  O   UNL     1       7.054   7.479  17.073  0.00  0.00    +0.000 OA
ATOM     22  H   UNL     1       8.017   7.606  16.975  0.00  0.00    +0.000 HD
ENDBRANCH  19  21
ENDBRANCH  18  19
ENDBRANCH  17  18
ENDBRANCH   3  17
TORSDOF 7
ENDMDL
