MODEL 1
REMARK VINA RESULT:      -8.7      0.000      0.000
REMARK  Name = 
REMARK  6 active torsions:
REMARK  status: ('A' for Active; 'I' for Inactive)
REMARK    1  A    between atoms: C_1  and  C_2
REMARK    2  A    between atoms: C_3  and  C_4
REMARK    3  A    between atoms: N_6  and  C_7
REMARK    4  A    between atoms: C_15  and  O_16
REMARK    5  A    between atoms: N_20  and  C_21
REMARK    6  A    between atoms: C_21  and  C_22
REMARK                            x       y       z     vdW  Elec       q    Type
REMARK                         _______ _______ _______ _____ _____    ______ ____
ROOT
ATOM      1  C   UNL     1       5.872   7.206  17.269  0.00  0.00    +0.000 C 
ATOM      2  C   UNL     1       4.822   6.161  17.445  0.00  0.00    +0.000 A 
ATOM      3  C   UNL     1       3.514   6.236  17.927  0.00  0.00    +0.000 A 
ATOM      4  C   UNL     1       2.978   4.902  17.902  0.00  0.00    +0.000 A 
ATOM      5  C   UNL     1       1.704   4.370  18.209  0.00  0.00    +0.000 A 
ATOM      6  C   UNL     1       1.513   2.992  18.177  0.00  0.00    +0.000 A 
ATOM      7  C   UNL     1       2.556   2.133  17.874  0.00  0.00    +0.000 A 
ATOM      8  C   UNL     1       3.820   2.636  17.544  0.00  0.00    +0.000 A 
ATOM      9  C   UNL     1       3.998   4.033  17.530  0.00  0.00    +0.000 A 
ATOM     10  N   UNL     1       5.087   4.817  17.199  0.00  0.00    +0.000 N 
ENDROOT
BRANCH   3  11
ATOM     11  C   UNL     1       2.760   7.370  18.478  0.00  0.00    +0.000 C 
ATOM     12  O   UNL     1       2.440   7.351  19.661  0.00  0.00    +0.000 OA
ATOM     13  N   UNL     1       2.386   8.357  17.582  0.00  0.00    +0.000 N 
ATOM     14  H   UNL     1       2.556   8.173  16.604  0.00  0.00    +0.000 HD
BRANCH  13  15
ATOM     15  C   UNL     1       1.577   9.478  17.903  0.00  0.00    +0.000 A 
ATOM     16  C   UNL     1       2.101  10.716  18.302  0.00  0.00    +0.000 A 
ATOM     17  C   UNL     1       1.265  11.760  18.704  0.00  0.00    +0.000 A 
ATOM     18  C   UNL     1      -0.113  11.587  18.695  0.00  0.00    +0.000 A 
ATOM     19  C   UNL     1      -0.652  10.380  18.254  0.00  0.00    +0.000 A 
ATOM     20  C   UNL     1       0.188   9.330  17.854  0.00  0.00    +0.000 A 
ENDBRANCH  13  15
ENDBRANCH   3  11
BRANCH   6  21
ATOM     21  O   UNL     1       0.292   2.451  18.456  0.00  0.00    +0.000 OA
ATOM     22  H   UNL     1       0.253   1.568  18.053  0.00  0.00    +0.000 HD
ENDBRANCH   6  21
BRANCH  10  23
ATOM     23  C   UNL     1       6.321   4.281  16.609  0.00  0.00    +0.000 C 
BRANCH  23  24
ATOM     24  C   UNL     1       6.370   4.272  15.097  0.00  0.00    +0.000 A 
ATOM     25  C   UNL     1       5.463   3.570  14.289  0.00  0.00    +0.000 A 
ATOM     26  C   UNL     1       5.613   3.547  12.900  0.00  0.00    +0.000 A 
ATOM     27  C   UNL     1       6.655   4.246  12.295  0.00  0.00    +0.000 A 
ATOM     28  C   UNL     1       7.536   4.987  13.076  0.00  0.00    +0.000 A 
ATOM     29  C   UNL     1       7.391   5.005  14.465  0.00  0.00    +0.000 A 
ENDBRANCH  23  24
ENDBRANCH  10  23
TORSDOF 5
ENDMDL
MODEL 2
REMARK VINA RESULT:      -8.6      1.510      1.580
REMARK  Name = 
REMARK  6 active torsions:
REMARK  status: ('A' for Active; 'I' for Inactive)
REMARK    1  A    between atoms: C_1  and  C_2
REMARK    2  A    between atoms: C_3  and  C_4
REMARK    3  A    between atoms: N_6  and  C_7
REMARK    4  A    between atoms: C_15  and  O_16
REMARK    5  A    between atoms: N_20  and  C_21
REMARK    6  A    between atoms: C_21  and  C_22
REMARK                            x       y       z     vdW  Elec       q    Type
REMARK                         _______ _______ _______ _____ _____    ______ ____
ROOT
ATOM      1  C   UNL     1       5.741   7.300  17.036  0.00  0.00    +0.000 C 
ATOM      2  C   UNL     1       4.727   6.232  17.271  0.00  0.00    +0.000 A 
ATOM      3  C   UNL     1       3.406   6.293  17.718  0.00  0.00    +0.000 A 
ATOM      4  C   UNL     1       2.921   4.942  17.786  0.00  0.00    +0.000 A 
ATOM      5  C   UNL     1       1.661   4.386  18.107  0.00  0.00    +0.000 A 
ATOM      6  C   UNL     1       1.521   3.003  18.179  0.00  0.00    +0.000 A 
ATOM      7  C   UNL     1       2.603   2.165  17.966  0.00  0.00    +0.000 A 
ATOM      8  C   UNL     1       3.854   2.689  17.623  0.00  0.00    +0.000 A 
ATOM      9  C   UNL     1       3.981   4.087  17.504  0.00  0.00    +0.000 A 
ATOM     10  N   UNL     1       5.048   4.884  17.136  0.00  0.00    +0.000 N 
ENDROOT
BRANCH   3  11
ATOM     11  C   UNL     1       2.598   7.436  18.163  0.00  0.00    +0.000 C 
ATOM     12  O   UNL     1       2.393   8.358  17.381  0.00  0.00    +0.000 OA
ATOM     13  N   UNL     1       2.191   7.427  19.486  0.00  0.00    +0.000 N 
ATOM     14  H   UNL     1       2.571   6.701  20.075  0.00  0.00    +0.000 HD
BRANCH  13  15
ATOM     15  C   UNL     1       1.487   8.482  20.124  0.00  0.00    +0.000 A 
ATOM     16  C   UNL     1       1.020   9.616  19.446  0.00  0.00    +0.000 A 
ATOM     17  C   UNL     1       0.421  10.675  20.132  0.00  0.00    +0.000 A 
ATOM     18  C   UNL     1       0.263  10.606  21.510  0.00  0.00    +0.000 A 
ATOM     19  C   UNL     1       0.677   9.465  22.194  0.00  0.00    +0.000 A 
ATOM     20  C   UNL     1       1.282   8.403  21.505  0.00  0.00    +0.000 A 
ENDBRANCH  13  15
ENDBRANCH   3  11
BRANCH   6  21
ATOM     21  O   UNL     1       0.315   2.439  18.474  0.00  0.00    +0.000 OA
ATOM     22  H   UNL     1       0.413   1.926  19.293  0.00  0.00    +0.000 HD
ENDBRANCH   6  21
BRANCH  10  23
ATOM     23  C   UNL     1       6.314   4.353  16.614  0.00  0.00    +0.000 C 
BRANCH  23  24
ATOM     24  C   UNL     1       6.441   4.332  15.106  0.00  0.00    +0.000 A 
ATOM     25  C   UNL     1       5.603   3.589  14.261  0.00  0.00    +0.000 A 
ATOM     26  C   UNL     1       5.826   3.560  12.882  0.00  0.00    +0.000 A 
ATOM     27  C   UNL     1       6.871   4.291  12.324  0.00  0.00    +0.000 A 
ATOM     28  C   UNL     1       7.683   5.072  13.140  0.00  0.00    +0.000 A 
ATOM     29  C   UNL     1       7.465   5.097  14.520  0.00  0.00    +0.000 A 
ENDBRANCH  23  24
ENDBRANCH  10  23
TORSDOF 5
ENDMDL
MODEL 3
REMARK VINA RESULT:      -7.8      2.152      2.212
REMARK  Name = 
REMARK  6 active torsions:
REMARK  status: ('A' for Active; 'I' for Inactive)
REMARK    1  A    between atoms: C_1  and  C_2
REMARK    2  A    between atoms: C_3  and  C_4
REMARK    3  A    between atoms: N_6  and  C_7
REMARK    4  A    between atoms: C_15  and  O_16
REMARK    5  A    between atoms: N_20  and  C_21
REMARK    6  A    between atoms: C_21  and  C_22
REMARK                            x       y       z     vdW  Elec       q    Type
REMARK                         _______ _______ _______ _____ _____    ______ ____
ROOT
ATOM      1  C   UNL     1       5.099   7.314  17.416  0.00  0.00    +0.000 C 
ATOM      2  C   UNL     1       4.336   6.292  18.190  0.00  0.00    +0.000 A 
ATOM      3  C   UNL     1       3.115   6.363  18.861  0.00  0.00    +0.000 A 
ATOM      4  C   UNL     1       2.887   5.077  19.463  0.00  0.00    +0.000 A 
ATOM      5  C   UNL     1       1.811   4.536  20.203  0.00  0.00    +0.000 A 
ATOM      6  C   UNL     1       1.926   3.260  20.745  0.00  0.00    +0.000 A 
ATOM      7  C   UNL     1       3.088   2.522  20.591  0.00  0.00    +0.000 A 
ATOM      8  C   UNL     1       4.158   3.025  19.843  0.00  0.00    +0.000 A 
ATOM      9  C   UNL     1       4.020   4.297  19.255  0.00  0.00    +0.000 A 
ATOM     10  N   UNL     1       4.860   5.026  18.434  0.00  0.00    +0.000 N 
ENDROOT
BRANCH   3  11
ATOM     11  C   UNL     1       2.203   7.495  19.073  0.00  0.00    +0.000 C 
ATOM     12  O   UNL     1       1.845   8.158  18.105  0.00  0.00    +0.000 OA
ATOM     13  N   UNL     1       1.875   7.788  20.386  0.00  0.00    +0.000 N 
ATOM     14  H   UNL     1       2.372   7.281  21.103  0.00  0.00    +0.000 HD
BRANCH  13  15
ATOM     15  C   UNL     1       1.089   8.896  20.796  0.00  0.00    +0.000 A 
ATOM     16  C   UNL     1       0.951  10.066  20.037  0.00  0.00    +0.000 A 
ATOM     17  C   UNL     1       0.249  11.169  20.526  0.00  0.00    +0.000 A 
ATOM     18  C   UNL     1      -0.346  11.111  21.781  0.00  0.00    +0.000 A 
ATOM     19  C   UNL     1      -0.261   9.938  22.528  0.00  0.00    +0.000 A 
ATOM     20  C   UNL     1       0.449   8.832  22.038  0.00  0.00    +0.000 A 
ENDBRANCH  13  15
ENDBRANCH   3  11
BRANCH   6  21
ATOM     21  O   UNL     1       0.899   2.708  21.452  0.00  0.00    +0.000 OA
ATOM     22  H   UNL     1       0.276   3.416  21.684  0.00  0.00    +0.000 HD
ENDBRANCH   6  21
BRANCH  10  23
ATOM     23  C   UNL     1       6.099   4.485  17.858  0.00  0.00    +0.000 C 
BRANCH  23  24
ATOM     24  C   UNL     1       6.145   4.431  16.347  0.00  0.00    +0.000 A 
ATOM     25  C   UNL     1       5.127   3.886  15.551  0.00  0.00    +0.000 A 
ATOM     26  C   UNL     1       5.271   3.803  14.164  0.00  0.00    +0.000 A 
ATOM     27  C   UNL     1       6.423   4.285  13.548  0.00  0.00    +0.000 A 
ATOM     28  C   UNL     1       7.424   4.873  14.315  0.00  0.00    +0.000 A 
ATOM     29  C   UNL     1       7.283   4.950  15.703  0.00  0.00    +0.000 A 
ENDBRANCH  23  24
ENDBRANCH  10  23
TORSDOF 5
ENDMDL
MODEL 4
REMARK VINA RESULT:      -7.6      1.358      1.419
REMARK  Name = 
REMARK  6 active torsions:
REMARK  status: ('A' for Active; 'I' for Inactive)
REMARK    1  A    between atoms: C_1  and  C_2
REMARK    2  A    between atoms: C_3  and  C_4
REMARK    3  A    between atoms: N_6  and  C_7
REMARK    4  A    between atoms: C_15  and  O_16
REMARK    5  A    between atoms: N_20  and  C_21
REMARK    6  A    between atoms: C_21  and  C_22
REMARK                            x       y       z     vdW  Elec       q    Type
REMARK                         _______ _______ _______ _____ _____    ______ ____
ROOT
ATOM      1  C   UNL     1       5.203   7.402  17.557  0.00  0.00    +0.000 C 
ATOM      2  C   UNL     1       4.374   6.376  18.254  0.00  0.00    +0.000 A 
ATOM      3  C   UNL     1       3.150   6.471  18.917  0.00  0.00    +0.000 A 
ATOM      4  C   UNL     1       2.844   5.162  19.428  0.00  0.00    +0.000 A 
ATOM      5  C   UNL     1       1.730   4.635  20.120  0.00  0.00    +0.000 A 
ATOM      6  C   UNL     1       1.767   3.320  20.575  0.00  0.00    +0.000 A 
ATOM      7  C   UNL     1       2.887   2.529  20.381  0.00  0.00    +0.000 A 
ATOM      8  C   UNL     1       3.993   3.020  19.678  0.00  0.00    +0.000 A 
ATOM      9  C   UNL     1       3.934   4.335  19.177  0.00  0.00    +0.000 A 
ATOM     10  N   UNL     1       4.823   5.068  18.414  0.00  0.00    +0.000 N 
ENDROOT
BRANCH   3  11
ATOM     11  C   UNL     1       2.301   7.636  19.198  0.00  0.00    +0.000 C 
ATOM     12  O   UNL     1       1.854   7.785  20.330  0.00  0.00    +0.000 OA
ATOM     13  N   UNL     1       1.994   8.451  18.122  0.00  0.00    +0.000 N 
ATOM     14  H   UNL     1       2.276   8.126  17.209  0.00  0.00    +0.000 HD
BRANCH  13  15
ATOM     15  C   UNL     1       1.116   9.564  18.173  0.00  0.00    +0.000 A 
ATOM     16  C   UNL     1       1.515  10.840  18.596  0.00  0.00    +0.000 A 
ATOM     17  C   UNL     1       0.593  11.881  18.726  0.00  0.00    +0.000 A 
ATOM     18  C   UNL     1      -0.743  11.666  18.415  0.00  0.00    +0.000 A 
ATOM     19  C   UNL     1      -1.148  10.418  17.946  0.00  0.00    +0.000 A 
ATOM     20  C   UNL     1      -0.223   9.371  17.820  0.00  0.00    +0.000 A 
ENDBRANCH  13  15
ENDBRANCH   3  11
BRANCH   6  21
ATOM     21  O   UNL     1       0.702   2.780  21.235  0.00  0.00    +0.000 OA
ATOM     22  H   UNL     1      -0.092   3.288  20.994  0.00  0.00    +0.000 HD
ENDBRANCH   6  21
BRANCH  10  23
ATOM     23  C   UNL     1       6.036   4.498  17.813  0.00  0.00    +0.000 C 
BRANCH  23  24
ATOM     24  C   UNL     1       6.063   4.470  16.301  0.00  0.00    +0.000 A 
ATOM     25  C   UNL     1       4.988   4.041  15.507  0.00  0.00    +0.000 A 
ATOM     26  C   UNL     1       5.111   3.972  14.117  0.00  0.00    +0.000 A 
ATOM     27  C   UNL     1       6.298   4.353  13.497  0.00  0.00    +0.000 A 
ATOM     28  C   UNL     1       7.359   4.826  14.264  0.00  0.00    +0.000 A 
ATOM     29  C   UNL     1       7.239   4.889  15.654  0.00  0.00    +0.000 A 
ENDBRANCH  23  24
ENDBRANCH  10  23
TORSDOF 5
ENDMDL
MODEL 5
REMARK VINA RESULT:      -7.5      2.016      2.315
REMARK  Name = 
REMARK  6 active torsions:
REMARK  status: ('A' for Active; 'I' for Inactive)
REMARK    1  A    between atoms: C_1  and  C_2
REMARK    2  A    between atoms: C_3  and  C_4
REMARK    3  A    between atoms: N_6  and  C_7
REMARK    4  A    between atoms: C_15  and  O_16
REMARK    5  A    between atoms: N_20  and  C_21
REMARK    6  A    between atoms: C_21  and  C_22
REMARK                            x       y       z     vdW  Elec       q    Type
REMARK                         _______ _______ _______ _____ _____    ______ ____
ROOT
ATOM      1  C   UNL     1       5.186   7.313  17.358  0.00  0.00    +0.000 C 
ATOM      2  C   UNL     1       4.422   6.284  18.121  0.00  0.00    +0.000 A 
ATOM      3  C   UNL     1       3.183   6.338  18.761  0.00  0.00    +0.000 A 
ATOM      4  C   UNL     1       2.963   5.053  19.366  0.00  0.00    +0.000 A 
ATOM      5  C   UNL     1       1.878   4.499  20.084  0.00  0.00    +0.000 A 
ATOM      6  C   UNL     1       2.002   3.228  20.637  0.00  0.00    +0.000 A 
ATOM      7  C   UNL     1       3.180   2.509  20.517  0.00  0.00    +0.000 A 
ATOM      8  C   UNL     1       4.259   3.026  19.792  0.00  0.00    +0.000 A 
ATOM      9  C   UNL     1       4.114   4.291  19.191  0.00  0.00    +0.000 A 
ATOM     10  N   UNL     1       4.961   5.028  18.386  0.00  0.00    +0.000 N 
ENDROOT
BRANCH   3  11
ATOM     11  C   UNL     1       2.247   7.456  18.943  0.00  0.00    +0.000 C 
ATOM     12  O   UNL     1       1.851   8.065  17.955  0.00  0.00    +0.000 OA
ATOM     13  N   UNL     1       1.941   7.801  20.248  0.00  0.00    +0.000 N 
ATOM     14  H   UNL     1       2.466   7.339  20.976  0.00  0.00    +0.000 HD
BRANCH  13  15
ATOM     15  C   UNL     1       1.136   8.906  20.627  0.00  0.00    +0.000 A 
ATOM     16  C   UNL     1       0.510   9.009  21.877  0.00  0.00    +0.000 A 
ATOM     17  C   UNL     1      -0.354  10.067  22.169  0.00  0.00    +0.000 A 
ATOM     18  C   UNL     1      -0.591  11.051  21.218  0.00  0.00    +0.000 A 
ATOM     19  C   UNL     1       0.061  10.990  19.988  0.00  0.00    +0.000 A 
ATOM     20  C   UNL     1       0.925   9.925  19.693  0.00  0.00    +0.000 A 
ENDBRANCH  13  15
ENDBRANCH   3  11
BRANCH   6  21
ATOM     21  O   UNL     1       0.968   2.663  21.324  0.00  0.00    +0.000 OA
ATOM     22  H   UNL     1       0.874   1.743  21.026  0.00  0.00    +0.000 HD
ENDBRANCH   6  21
BRANCH  10  23
ATOM     23  C   UNL     1       6.222   4.506  17.844  0.00  0.00    +0.000 C 
BRANCH  23  24
ATOM     24  C   UNL     1       6.299   4.422  16.335  0.00  0.00    +0.000 A 
ATOM     25  C   UNL     1       7.383   4.892  15.580  0.00  0.00    +0.000 A 
ATOM     26  C   UNL     1       7.353   4.849  14.184  0.00  0.00    +0.000 A 
ATOM     27  C   UNL     1       6.251   4.313  13.522  0.00  0.00    +0.000 A 
ATOM     28  C   UNL     1       5.186   3.798  14.255  0.00  0.00    +0.000 A 
ATOM     29  C   UNL     1       5.213   3.847  15.650  0.00  0.00    +0.000 A 
ENDBRANCH  23  24
ENDBRANCH  10  23
TORSDOF 5
ENDMDL
MODEL 6
REMARK VINA RESULT:      -7.5      2.984      3.910
REMARK  Name = 
REMARK  6 active torsions:
REMARK  status: ('A' for Active; 'I' for Inactive)
REMARK    1  A    between atoms: C_1  and  C_2
REMARK    2  A    between atoms: C_3  and  C_4
REMARK    3  A    between atoms: N_6  and  C_7
REMARK    4  A    between atoms: C_15  and  O_16
REMARK    5  A    between atoms: N_20  and  C_21
REMARK    6  A    between atoms: C_21  and  C_22
REMARK                            x       y       z     vdW  Elec       q    Type
REMARK                         _______ _______ _______ _____ _____    ______ ____
ROOT
ATOM      1  C   UNL     1       2.948   8.103  18.058  0.00  0.00    +0.000 C 
ATOM      2  C   UNL     1       2.750   6.843  18.832  0.00  0.00    +0.000 A 
ATOM      3  C   UNL     1       1.897   6.533  19.892  0.00  0.00    +0.000 A 
ATOM      4  C   UNL     1       2.164   5.170  20.264  0.00  0.00    +0.000 A 
ATOM      5  C   UNL     1       1.581   4.300  21.214  0.00  0.00    +0.000 A 
ATOM      6  C   UNL     1       2.131   3.037  21.412  0.00  0.00    +0.000 A 
ATOM      7  C   UNL     1       3.255   2.630  20.712  0.00  0.00    +0.000 A 
ATOM      8  C   UNL     1       3.836   3.464  19.750  0.00  0.00    +0.000 A 
ATOM      9  C   UNL     1       3.248   4.722  19.516  0.00  0.00    +0.000 A 
ATOM     10  N   UNL     1       3.550   5.725  18.614  0.00  0.00    +0.000 N 
ENDROOT
BRANCH   3  11
ATOM     11  C   UNL     1       0.949   7.374  20.635  0.00  0.00    +0.000 C 
ATOM     12  O   UNL     1      -0.171   6.936  20.874  0.00  0.00    +0.000 OA
ATOM     13  N   UNL     1       1.371   8.656  20.944  0.00  0.00    +0.000 N 
ATOM     14  H   UNL     1       2.245   8.958  20.540  0.00  0.00    +0.000 HD
BRANCH  13  15
ATOM     15  C   UNL     1       0.568   9.644  21.571  0.00  0.00    +0.000 A 
ATOM     16  C   UNL     1      -0.022   9.470  22.831  0.00  0.00    +0.000 A 
ATOM     17  C   UNL     1      -0.886  10.428  23.365  0.00  0.00    +0.000 A 
ATOM     18  C   UNL     1      -1.159  11.589  22.651  0.00  0.00    +0.000 A 
ATOM     19  C   UNL     1      -0.543  11.800  21.420  0.00  0.00    +0.000 A 
ATOM     20  C   UNL     1       0.322  10.835  20.882  0.00  0.00    +0.000 A 
ENDBRANCH  13  15
ENDBRANCH   3  11
BRANCH   6  21
ATOM     21  O   UNL     1       1.583   2.171  22.312  0.00  0.00    +0.000 OA
ATOM     22  H   UNL     1       1.854   2.448  23.203  0.00  0.00    +0.000 HD
ENDBRANCH   6  21
BRANCH  10  23
ATOM     23  C   UNL     1       4.542   5.576  17.541  0.00  0.00    +0.000 C 
BRANCH  23  24
ATOM     24  C   UNL     1       5.920   6.119  17.847  0.00  0.00    +0.000 A 
ATOM     25  C   UNL     1       6.791   5.557  18.792  0.00  0.00    +0.000 A 
ATOM     26  C   UNL     1       8.021   6.156  19.076  0.00  0.00    +0.000 A 
ATOM     27  C   UNL     1       8.411   7.311  18.402  0.00  0.00    +0.000 A 
ATOM     28  C   UNL     1       7.582   7.856  17.426  0.00  0.00    +0.000 A 
ATOM     29  C   UNL     1       6.350   7.262  17.147  0.00  0.00    +0.000 A 
ENDBRANCH  23  24
ENDBRANCH  10  23
TORSDOF 5
ENDMDL
MODEL 7
REMARK VINA RESULT:      -7.2      3.257     10.009
REMARK  Name = 
REMARK  6 active torsions:
REMARK  status: ('A' for Active; 'I' for Inactive)
REMARK    1  A    between atoms: C_1  and  C_2
REMARK    2  A    between atoms: C_3  and  C_4
REMARK    3  A    between atoms: N_6  and  C_7
REMARK    4  A    between atoms: C_15  and  O_16
REMARK    5  A    between atoms: N_20  and  C_21
REMARK    6  A    between atoms: C_21  and  C_22
REMARK                            x       y       z     vdW  Elec       q    Type
REMARK                         _______ _______ _______ _____ _____    ______ ____
ROOT
ATOM      1  C   UNL     1      -0.253   8.675  21.253  0.00  0.00    +0.000 C 
ATOM      2  C   UNL     1       0.362   9.860  20.586  0.00  0.00    +0.000 A 
ATOM      3  C   UNL     1       1.125   9.974  19.423  0.00  0.00    +0.000 A 
ATOM      4  C   UNL     1       1.478  11.361  19.284  0.00  0.00    +0.000 A 
ATOM      5  C   UNL     1       2.177  12.081  18.289  0.00  0.00    +0.000 A 
ATOM      6  C   UNL     1       2.448  13.432  18.485  0.00  0.00    +0.000 A 
ATOM      7  C   UNL     1       2.065  14.075  19.651  0.00  0.00    +0.000 A 
ATOM      8  C   UNL     1       1.351  13.389  20.640  0.00  0.00    +0.000 A 
ATOM      9  C   UNL     1       1.035  12.035  20.418  0.00  0.00    +0.000 A 
ATOM     10  N   UNL     1       0.312  11.125  21.164  0.00  0.00    +0.000 N 
ENDROOT
BRANCH   3  11
ATOM     11  C   UNL     1       1.623   8.946  18.500  0.00  0.00    +0.000 C 
ATOM     12  O   UNL     1       1.332   9.024  17.312  0.00  0.00    +0.000 OA
ATOM     13  N   UNL     1       2.328   7.897  19.065  0.00  0.00    +0.000 N 
ATOM     14  H   UNL     1       2.350   7.854  20.073  0.00  0.00    +0.000 HD
BRANCH  13  15
ATOM     15  C   UNL     1       2.806   6.766  18.355  0.00  0.00    +0.000 A 
ATOM     16  C   UNL     1       2.175   5.514  18.386  0.00  0.00    +0.000 A 
ATOM     17  C   UNL     1       2.735   4.404  17.752  0.00  0.00    +0.000 A 
ATOM     18  C   UNL     1       3.931   4.534  17.057  0.00  0.00    +0.000 A 
ATOM     19  C   UNL     1       4.547   5.780  16.974  0.00  0.00    +0.000 A 
ATOM     20  C   UNL     1       3.986   6.895  17.615  0.00  0.00    +0.000 A 
ENDBRANCH  13  15
ENDBRANCH   3  11
BRANCH   6  21
ATOM     21  O   UNL     1       3.110  14.156  17.537  0.00  0.00    +0.000 OA
ATOM     22  H   UNL     1       2.458  14.479  16.893  0.00  0.00    +0.000 HD
ENDBRANCH   6  21
BRANCH  10  23
ATOM     23  C   UNL     1      -0.452  11.489  22.366  0.00  0.00    +0.000 C 
BRANCH  23  24
ATOM     24  C   UNL     1      -1.845  12.023  22.116  0.00  0.00    +0.000 A 
ATOM     25  C   UNL     1      -2.324  12.400  20.852  0.00  0.00    +0.000 A 
ATOM     26  C   UNL     1      -3.598  12.955  20.708  0.00  0.00    +0.000 A 
ATOM     27  C   UNL     1      -4.422  13.118  21.819  0.00  0.00    +0.000 A 
ATOM     28  C   UNL     1      -3.984  12.706  23.073  0.00  0.00    +0.000 A 
ATOM     29  C   UNL     1      -2.708  12.157  23.219  0.00  0.00    +0.000 A 
ENDBRANCH  23  24
ENDBRANCH  10  23
TORSDOF 5
ENDMDL
MODEL 8
REMARK VINA RESULT:      -7.1      1.712      6.989
REMARK  Name = 
REMARK  6 active torsions:
REMARK  status: ('A' for Active; 'I' for Inactive)
REMARK    1  A    between atoms: C_1  and  C_2
REMARK    2  A    between atoms: C_3  and  C_4
REMARK    3  A    between atoms: N_6  and  C_7
REMARK    4  A    between atoms: C_15  and  O_16
REMARK    5  A    between atoms: N_20  and  C_21
REMARK    6  A    between atoms: C_21  and  C_22
REMARK                            x       y       z     vdW  Elec       q    Type
REMARK                         _______ _______ _______ _____ _____    ______ ____
ROOT
ATOM      1  C   UNL     1       5.105   7.111  17.809  0.00  0.00    +0.000 C 
ATOM      2  C   UNL     1       4.204   5.960  18.109  0.00  0.00    +0.000 A 
ATOM      3  C   UNL     1       4.113   4.686  17.548  0.00  0.00    +0.000 A 
ATOM      4  C   UNL     1       3.034   4.008  18.211  0.00  0.00    +0.000 A 
ATOM      5  C   UNL     1       2.517   2.695  18.116  0.00  0.00    +0.000 A 
ATOM      6  C   UNL     1       1.377   2.354  18.838  0.00  0.00    +0.000 A 
ATOM      7  C   UNL     1       0.728   3.288  19.629  0.00  0.00    +0.000 A 
ATOM      8  C   UNL     1       1.233   4.586  19.759  0.00  0.00    +0.000 A 
ATOM      9  C   UNL     1       2.414   4.915  19.065  0.00  0.00    +0.000 A 
ATOM     10  N   UNL     1       3.171   6.070  19.035  0.00  0.00    +0.000 N 
ENDROOT
BRANCH   3  11
ATOM     11  C   UNL     1       4.845   4.078  16.428  0.00  0.00    +0.000 C 
ATOM     12  O   UNL     1       5.352   2.972  16.581  0.00  0.00    +0.000 OA
ATOM     13  N   UNL     1       4.984   4.851  15.288  0.00  0.00    +0.000 N 
ATOM     14  H   UNL     1       4.676   5.811  15.348  0.00  0.00    +0.000 HD
BRANCH  13  15
ATOM     15  C   UNL     1       5.734   4.479  14.143  0.00  0.00    +0.000 A 
ATOM     16  C   UNL     1       7.008   4.990  13.858  0.00  0.00    +0.000 A 
ATOM     17  C   UNL     1       7.667   4.671  12.669  0.00  0.00    +0.000 A 
ATOM     18  C   UNL     1       7.067   3.818  11.751  0.00  0.00    +0.000 A 
ATOM     19  C   UNL     1       5.823   3.262  12.041  0.00  0.00    +0.000 A 
ATOM     20  C   UNL     1       5.159   3.586  13.233  0.00  0.00    +0.000 A 
ENDBRANCH  13  15
ENDBRANCH   3  11
BRANCH   6  21
ATOM     21  O   UNL     1       0.863   1.092  18.775  0.00  0.00    +0.000 OA
ATOM     22  H   UNL     1       1.588   0.481  18.564  0.00  0.00    +0.000 HD
ENDBRANCH   6  21
BRANCH  10  23
ATOM     23  C   UNL     1       2.933   7.218  19.921  0.00  0.00    +0.000 C 
BRANCH  23  24
ATOM     24  C   UNL     1       1.901   8.212  19.436  0.00  0.00    +0.000 A 
ATOM     25  C   UNL     1       1.743   8.583  18.092  0.00  0.00    +0.000 A 
ATOM     26  C   UNL     1       0.818   9.564  17.726  0.00  0.00    +0.000 A 
ATOM     27  C   UNL     1       0.019  10.171  18.692  0.00  0.00    +0.000 A 
ATOM     28  C   UNL     1       0.127   9.782  20.023  0.00  0.00    +0.000 A 
ATOM     29  C   UNL     1       1.057   8.807  20.391  0.00  0.00    +0.000 A 
ENDBRANCH  23  24
ENDBRANCH  10  23
TORSDOF 5
ENDMDL
MODEL 9
REMARK VINA RESULT:      -7.0      2.984      3.916
REMARK  Name = 
REMARK  6 active torsions:
REMARK  status: ('A' for Active; 'I' for Inactive)
REMARK    1  A    between atoms: C_1  and  C_2
REMARK    2  A    between atoms: C_3  and  C_4
REMARK    3  A    between atoms: N_6  and  C_7
REMARK    4  A    between atoms: C_15  and  O_16
REMARK    5  A    between atoms: N_20  and  C_21
REMARK    6  A    between atoms: C_21  and  C_22
REMARK                            x       y       z     vdW  Elec       q    Type
REMARK                         _______ _______ _______ _____ _____    ______ ____
ROOT
ATOM      1  C   UNL     1       2.848   8.012  18.053  0.00  0.00    +0.000 C 
ATOM      2  C   UNL     1       2.659   6.756  18.836  0.00  0.00    +0.000 A 
ATOM      3  C   UNL     1       1.797   6.442  19.887  0.00  0.00    +0.000 A 
ATOM      4  C   UNL     1       2.080   5.087  20.275  0.00  0.00    +0.000 A 
ATOM      5  C   UNL     1       1.498   4.216  21.225  0.00  0.00    +0.000 A 
ATOM      6  C   UNL     1       2.065   2.964  21.443  0.00  0.00    +0.000 A 
ATOM      7  C   UNL     1       3.205   2.568  20.761  0.00  0.00    +0.000 A 
ATOM      8  C   UNL     1       3.785   3.403  19.800  0.00  0.00    +0.000 A 
ATOM      9  C   UNL     1       3.181   4.650  19.546  0.00  0.00    +0.000 A 
ATOM     10  N   UNL     1       3.480   5.648  18.640  0.00  0.00    +0.000 N 
ENDROOT
BRANCH   3  11
ATOM     11  C   UNL     1       0.826   7.274  20.610  0.00  0.00    +0.000 C 
ATOM     12  O   UNL     1      -0.237   6.775  20.963  0.00  0.00    +0.000 OA
ATOM     13  N   UNL     1       1.154   8.610  20.769  0.00  0.00    +0.000 N 
ATOM     14  H   UNL     1       1.974   8.939  20.281  0.00  0.00    +0.000 HD
BRANCH  13  15
ATOM     15  C   UNL     1       0.308   9.588  21.352  0.00  0.00    +0.000 A 
ATOM     16  C   UNL     1      -0.167  10.708  20.657  0.00  0.00    +0.000 A 
ATOM     17  C   UNL     1      -0.916  11.697  21.300  0.00  0.00    +0.000 A 
ATOM     18  C   UNL     1      -1.218  11.568  22.650  0.00  0.00    +0.000 A 
ATOM     19  C   UNL     1      -0.796  10.437  23.344  0.00  0.00    +0.000 A 
ATOM     20  C   UNL     1      -0.041   9.447  22.699  0.00  0.00    +0.000 A 
ENDBRANCH  13  15
ENDBRANCH   3  11
BRANCH   6  21
ATOM     21  O   UNL     1       1.518   2.097  22.343  0.00  0.00    +0.000 OA
ATOM     22  H   UNL     1       0.559   2.251  22.366  0.00  0.00    +0.000 HD
ENDBRANCH   6  21
BRANCH  10  23
ATOM     23  C   UNL     1       4.488   5.506  17.581  0.00  0.00    +0.000 C 
BRANCH  23  24
ATOM     24  C   UNL     1       5.830   6.142  17.869  0.00  0.00    +0.000 A 
ATOM     25  C   UNL     1       6.331   7.258  17.181  0.00  0.00    +0.000 A 
ATOM     26  C   UNL     1       7.612   7.746  17.451  0.00  0.00    +0.000 A 
ATOM     27  C   UNL     1       8.401   7.146  18.429  0.00  0.00    +0.000 A 
ATOM     28  C   UNL     1       7.903   6.069  19.155  0.00  0.00    +0.000 A 
ATOM     29  C   UNL     1       6.626   5.575  18.881  0.00  0.00    +0.000 A 
ENDBRANCH  23  24
ENDBRANCH  10  23
TORSDOF 5
ENDMDL
