MODEL 1
REMARK VINA RESULT:      -8.8      0.000      0.000
REMARK  Name = 
REMARK  7 active torsions:
REMARK  status: ('A' for Active; 'I' for Inactive)
REMARK    1  A    between atoms: C_1  and  C_2
REMARK    2  A    between atoms: C_2  and  N_3
REMARK    3  A    between atoms: C_2  and  C_12
REMARK    4  A    between atoms: C_4  and  C_6
REMARK    5  A    between atoms: C_15  and  N_16
REMARK    6  A    between atoms: C_17  and  C_19
REMARK    7  A    between atoms: C_21  and  C_22
REMARK                            x       y       z     vdW  Elec       q    Type
REMARK                         _______ _______ _______ _____ _____    ______ ____
ROOT
ATOM      1  C   UNL     1       4.698   5.757  18.509  0.00  0.00    +0.000 A 
ATOM      2  C   UNL     1       3.877   5.448  19.598  0.00  0.00    +0.000 A 
ATOM      3  C   UNL     1       2.740   6.212  19.880  0.00  0.00    +0.000 A 
ATOM      4  C   UNL     1       2.393   7.301  19.080  0.00  0.00    +0.000 A 
ATOM      5  C   UNL     1       3.201   7.611  17.983  0.00  0.00    +0.000 A 
ATOM      6  C   UNL     1       4.336   6.841  17.695  0.00  0.00    +0.000 A 
ENDROOT
BRANCH   4   7
ATOM      7  N   UNL     1       1.258   8.106  19.312  0.00  0.00    +0.000 N 
ATOM      8  C   UNL     1       1.025   8.897  20.415  0.00  0.00    +0.000 C 
ATOM      9  O   UNL     1       1.774   9.083  21.366  0.00  0.00    +0.000 OA
ATOM     10  H   UNL     1       0.548   8.095  18.590  0.00  0.00    +0.000 HD
BRANCH   8  11
ATOM     11  C   UNL     1      -0.288   9.603  20.387  0.00  0.00    +0.000 C 
ATOM     12  C   UNL     1      -0.401  11.010  20.918  0.00  0.00    +0.000 C 
ATOM     13  C   UNL     1      -0.466  10.773  19.430  0.00  0.00    +0.000 C 
BRANCH  13  14
ATOM     14  C   UNL     1      -1.751  10.865  18.652  0.00  0.00    +0.000 A 
ATOM     15  C   UNL     1      -2.035  10.068  17.538  0.00  0.00    +0.000 A 
ATOM     16  C   UNL     1      -3.246  10.194  16.861  0.00  0.00    +0.000 A 
ATOM     17  C   UNL     1      -4.161  11.123  17.324  0.00  0.00    +0.000 A 
ATOM     18  N   UNL     1      -3.945  11.913  18.394  0.00  0.00    +0.000 NA
ATOM     19  C   UNL     1      -2.758  11.759  19.028  0.00  0.00    +0.000 A 
ENDBRANCH  13  14
ENDBRANCH   8  11
ENDBRANCH   4   7
BRANCH   1  21
ATOM     20  C   UNL     1       7.197   5.484  18.817  0.00  0.00    +0.000 C 
ATOM     21  C   UNL     1       5.915   4.889  18.224  0.00  0.00    +0.000 C 
BRANCH  21  22
ATOM     22  N   UNL     1       6.010   4.656  16.793  0.00  0.00    +0.000 N 
ATOM     23  C   UNL     1       6.846   5.367  15.961  0.00  0.00    +0.000 C 
ATOM     24  O   UNL     1       7.517   6.330  16.314  0.00  0.00    +0.000 OA
ATOM     25  H   UNL     1       5.644   3.789  16.407  0.00  0.00    +0.000 HD
BRANCH  23  26
ATOM     26  C   UNL     1       6.894   4.875  14.544  0.00  0.00    +0.000 A 
ATOM     27  C   UNL     1       6.028   3.863  14.145  0.00  0.00    +0.000 A 
ATOM     28  C   UNL     1       6.081   3.434  12.823  0.00  0.00    +0.000 A 
ATOM     29  C   UNL     1       6.993   4.023  11.953  0.00  0.00    +0.000 A 
ATOM     30  C   UNL     1       7.825   5.020  12.442  0.00  0.00    +0.000 A 
ATOM     31  N   UNL     1       7.802   5.467  13.718  0.00  0.00    +0.000 NA
ENDBRANCH  23  26
ENDBRANCH  21  22
ENDBRANCH   1  21
TORSDOF 6
ENDMDL
MODEL 2
REMARK VINA RESULT:      -8.7      0.763      1.174
REMARK  Name = 
REMARK  7 active torsions:
REMARK  status: ('A' for Active; 'I' for Inactive)
REMARK    1  A    between atoms: C_1  and  C_2
REMARK    2  A    between atoms: C_2  and  N_3
REMARK    3  A    between atoms: C_2  and  C_12
REMARK    4  A    between atoms: C_4  and  C_6
REMARK    5  A    between atoms: C_15  and  N_16
REMARK    6  A    between atoms: C_17  and  C_19
REMARK    7  A    between atoms: C_21  and  C_22
REMARK                            x       y       z     vdW  Elec       q    Type
REMARK                         _______ _______ _______ _____ _____    ______ ____
ROOT
ATOM      1  C   UNL     1       4.314   6.156  18.331  0.00  0.00    +0.000 A 
ATOM      2  C   UNL     1       4.150   7.272  17.504  0.00  0.00    +0.000 A 
ATOM      3  C   UNL     1       3.072   8.145  17.682  0.00  0.00    +0.000 A 
ATOM      4  C   UNL     1       2.133   7.927  18.690  0.00  0.00    +0.000 A 
ATOM      5  C   UNL     1       2.295   6.821  19.529  0.00  0.00    +0.000 A 
ATOM      6  C   UNL     1       3.379   5.951  19.357  0.00  0.00    +0.000 A 
ENDROOT
BRANCH   4   7
ATOM      7  N   UNL     1       1.028   8.774  18.920  0.00  0.00    +0.000 N 
ATOM      8  C   UNL     1       0.745   9.455  20.084  0.00  0.00    +0.000 C 
ATOM      9  O   UNL     1       1.418   9.488  21.106  0.00  0.00    +0.000 OA
ATOM     10  H   UNL     1       0.384   8.887  18.147  0.00  0.00    +0.000 HD
BRANCH   8  11
ATOM     11  C   UNL     1      -0.519  10.243  20.031  0.00  0.00    +0.000 C 
ATOM     12  C   UNL     1      -0.496  11.727  20.302  0.00  0.00    +0.000 C 
ATOM     13  C   UNL     1      -0.712  11.235  18.892  0.00  0.00    +0.000 C 
BRANCH  13  14
ATOM     14  C   UNL     1      -2.055  11.287  18.216  0.00  0.00    +0.000 A 
ATOM     15  C   UNL     1      -2.270  10.866  16.899  0.00  0.00    +0.000 A 
ATOM     16  C   UNL     1      -3.539  10.932  16.328  0.00  0.00    +0.000 A 
ATOM     17  C   UNL     1      -4.580  11.418  17.099  0.00  0.00    +0.000 A 
ATOM     18  N   UNL     1      -4.433  11.833  18.372  0.00  0.00    +0.000 NA
ATOM     19  C   UNL     1      -3.187  11.750  18.894  0.00  0.00    +0.000 A 
ENDBRANCH  13  14
ENDBRANCH   8  11
ENDBRANCH   4   7
BRANCH   1  21
ATOM     20  C   UNL     1       6.710   5.655  18.980  0.00  0.00    +0.000 C 
ATOM     21  C   UNL     1       5.511   5.242  18.118  0.00  0.00    +0.000 C 
BRANCH  21  22
ATOM     22  N   UNL     1       5.826   5.190  16.700  0.00  0.00    +0.000 N 
ATOM     23  C   UNL     1       6.981   4.632  16.198  0.00  0.00    +0.000 C 
ATOM     24  O   UNL     1       7.903   4.213  16.889  0.00  0.00    +0.000 OA
ATOM     25  H   UNL     1       5.084   5.343  16.021  0.00  0.00    +0.000 HD
BRANCH  23  26
ATOM     26  C   UNL     1       7.047   4.556  14.702  0.00  0.00    +0.000 A 
ATOM     27  C   UNL     1       6.210   3.674  14.027  0.00  0.00    +0.000 A 
ATOM     28  C   UNL     1       6.278   3.633  12.638  0.00  0.00    +0.000 A 
ATOM     29  C   UNL     1       7.175   4.466  11.977  0.00  0.00    +0.000 A 
ATOM     30  C   UNL     1       7.978   5.308  12.733  0.00  0.00    +0.000 A 
ATOM     31  N   UNL     1       7.940   5.380  14.083  0.00  0.00    +0.000 NA
ENDBRANCH  23  26
ENDBRANCH  21  22
ENDBRANCH   1  21
TORSDOF 6
ENDMDL
MODEL 3
REMARK VINA RESULT:      -8.7      5.871      9.157
REMARK  Name = 
REMARK  7 active torsions:
REMARK  status: ('A' for Active; 'I' for Inactive)
REMARK    1  A    between atoms: C_1  and  C_2
REMARK    2  A    between atoms: C_2  and  N_3
REMARK    3  A    between atoms: C_2  and  C_12
REMARK    4  A    between atoms: C_4  and  C_6
REMARK    5  A    between atoms: C_15  and  N_16
REMARK    6  A    between atoms: C_17  and  C_19
REMARK    7  A    between atoms: C_21  and  C_22
REMARK                            x       y       z     vdW  Elec       q    Type
REMARK                         _______ _______ _______ _____ _____    ______ ____
ROOT
ATOM      1  C   UNL     1       6.901   5.648  17.570  0.00  0.00    +0.000 A 
ATOM      2  C   UNL     1       6.752   6.866  16.899  0.00  0.00    +0.000 A 
ATOM      3  C   UNL     1       7.415   8.015  17.342  0.00  0.00    +0.000 A 
ATOM      4  C   UNL     1       8.244   7.977  18.463  0.00  0.00    +0.000 A 
ATOM      5  C   UNL     1       8.408   6.761  19.133  0.00  0.00    +0.000 A 
ATOM      6  C   UNL     1       7.752   5.608  18.685  0.00  0.00    +0.000 A 
ENDROOT
BRANCH   4   7
ATOM      7  N   UNL     1       8.940   9.101  18.954  0.00  0.00    +0.000 N 
ATOM      8  C   UNL     1       8.857  10.390  18.477  0.00  0.00    +0.000 C 
ATOM      9  O   UNL     1       8.135  10.803  17.577  0.00  0.00    +0.000 OA
ATOM     10  H   UNL     1       9.561   8.935  19.737  0.00  0.00    +0.000 HD
BRANCH   8  11
ATOM     11  C   UNL     1       9.747  11.356  19.184  0.00  0.00    +0.000 C 
ATOM     12  C   UNL     1      11.245  11.203  19.100  0.00  0.00    +0.000 C 
ATOM     13  C   UNL     1      10.572  12.328  18.354  0.00  0.00    +0.000 C 
BRANCH  13  14
ATOM     14  C   UNL     1      10.651  13.760  18.809  0.00  0.00    +0.000 A 
ATOM     15  C   UNL     1      11.557  14.211  19.776  0.00  0.00    +0.000 A 
ATOM     16  C   UNL     1      11.587  15.552  20.154  0.00  0.00    +0.000 A 
ATOM     17  C   UNL     1      10.704  16.424  19.543  0.00  0.00    +0.000 A 
ATOM     18  N   UNL     1       9.814  16.048  18.604  0.00  0.00    +0.000 NA
ATOM     19  C   UNL     1       9.816  14.739  18.260  0.00  0.00    +0.000 A 
ENDBRANCH  13  14
ENDBRANCH   8  11
ENDBRANCH   4   7
BRANCH   1  21
ATOM     20  C   UNL     1       6.123   4.392  15.513  0.00  0.00    +0.000 C 
ATOM     21  C   UNL     1       6.180   4.416  17.045  0.00  0.00    +0.000 C 
BRANCH  21  22
ATOM     22  N   UNL     1       4.865   4.334  17.659  0.00  0.00    +0.000 N 
ATOM     23  C   UNL     1       4.633   3.743  18.882  0.00  0.00    +0.000 C 
ATOM     24  O   UNL     1       5.481   3.142  19.531  0.00  0.00    +0.000 OA
ATOM     25  H   UNL     1       4.119   4.933  17.315  0.00  0.00    +0.000 HD
BRANCH  23  26
ATOM     26  C   UNL     1       3.231   3.889  19.397  0.00  0.00    +0.000 A 
ATOM     27  C   UNL     1       2.288   2.915  19.089  0.00  0.00    +0.000 A 
ATOM     28  C   UNL     1       0.999   3.064  19.590  0.00  0.00    +0.000 A 
ATOM     29  C   UNL     1       0.699   4.175  20.372  0.00  0.00    +0.000 A 
ATOM     30  C   UNL     1       1.702   5.101  20.621  0.00  0.00    +0.000 A 
ATOM     31  N   UNL     1       2.966   4.990  20.155  0.00  0.00    +0.000 NA
ENDBRANCH  23  26
ENDBRANCH  21  22
ENDBRANCH   1  21
TORSDOF 6
ENDMDL
MODEL 4
REMARK VINA RESULT:      -8.6      1.006      1.019
REMARK  Name = 
REMARK  7 active torsions:
REMARK  status: ('A' for Active; 'I' for Inactive)
REMARK    1  A    between atoms: C_1  and  C_2
REMARK    2  A    between atoms: C_2  and  N_3
REMARK    3  A    between atoms: C_2  and  C_12
REMARK    4  A    between atoms: C_4  and  C_6
REMARK    5  A    between atoms: C_15  and  N_16
REMARK    6  A    between atoms: C_17  and  C_19
REMARK    7  A    between atoms: C_21  and  C_22
REMARK                            x       y       z     vdW  Elec       q    Type
REMARK                         _______ _______ _______ _____ _____    ______ ____
ROOT
ATOM      1  C   UNL     1       4.975   5.864  18.357  0.00  0.00    +0.000 A 
ATOM      2  C   UNL     1       4.046   5.572  19.362  0.00  0.00    +0.000 A 
ATOM      3  C   UNL     1       2.902   6.357  19.531  0.00  0.00    +0.000 A 
ATOM      4  C   UNL     1       2.654   7.451  18.701  0.00  0.00    +0.000 A 
ATOM      5  C   UNL     1       3.570   7.743  17.687  0.00  0.00    +0.000 A 
ATOM      6  C   UNL     1       4.713   6.952  17.511  0.00  0.00    +0.000 A 
ENDROOT
BRANCH   4   7
ATOM      7  N   UNL     1       1.516   8.277  18.822  0.00  0.00    +0.000 N 
ATOM      8  C   UNL     1       1.063   8.886  19.971  0.00  0.00    +0.000 C 
ATOM      9  O   UNL     1       1.585   8.863  21.078  0.00  0.00    +0.000 OA
ATOM     10  H   UNL     1       0.986   8.431  17.973  0.00  0.00    +0.000 HD
BRANCH   8  11
ATOM     11  C   UNL     1      -0.192   9.669  19.785  0.00  0.00    +0.000 C 
ATOM     12  C   UNL     1      -0.190  11.162  20.001  0.00  0.00    +0.000 C 
ATOM     13  C   UNL     1      -0.290  10.617  18.598  0.00  0.00    +0.000 C 
BRANCH  13  14
ATOM     14  C   UNL     1      -1.574  10.640  17.813  0.00  0.00    +0.000 A 
ATOM     15  C   UNL     1      -1.826   9.795  16.726  0.00  0.00    +0.000 A 
ATOM     16  C   UNL     1      -3.038   9.859  16.040  0.00  0.00    +0.000 A 
ATOM     17  C   UNL     1      -3.984  10.773  16.467  0.00  0.00    +0.000 A 
ATOM     18  N   UNL     1      -3.799  11.608  17.509  0.00  0.00    +0.000 NA
ATOM     19  C   UNL     1      -2.611  11.514  18.152  0.00  0.00    +0.000 A 
ENDBRANCH  13  14
ENDBRANCH   8  11
ENDBRANCH   4   7
BRANCH   1  21
ATOM     20  C   UNL     1       7.341   5.388  19.125  0.00  0.00    +0.000 C 
ATOM     21  C   UNL     1       6.197   4.974  18.192  0.00  0.00    +0.000 C 
BRANCH  21  22
ATOM     22  N   UNL     1       6.589   4.954  16.793  0.00  0.00    +0.000 N 
ATOM     23  C   UNL     1       6.140   4.015  15.891  0.00  0.00    +0.000 C 
ATOM     24  O   UNL     1       5.450   3.046  16.188  0.00  0.00    +0.000 OA
ATOM     25  H   UNL     1       7.010   5.785  16.385  0.00  0.00    +0.000 HD
BRANCH  23  26
ATOM     26  C   UNL     1       6.554   4.257  14.470  0.00  0.00    +0.000 A 
ATOM     27  C   UNL     1       5.976   3.504  13.454  0.00  0.00    +0.000 A 
ATOM     28  C   UNL     1       6.365   3.758  12.143  0.00  0.00    +0.000 A 
ATOM     29  C   UNL     1       7.314   4.744  11.894  0.00  0.00    +0.000 A 
ATOM     30  C   UNL     1       7.845   5.439  12.972  0.00  0.00    +0.000 A 
ATOM     31  N   UNL     1       7.491   5.224  14.259  0.00  0.00    +0.000 NA
ENDBRANCH  23  26
ENDBRANCH  21  22
ENDBRANCH   1  21
TORSDOF 6
ENDMDL
MODEL 5
REMARK VINA RESULT:      -8.5      5.834      9.219
REMARK  Name = 
REMARK  7 active torsions:
REMARK  status: ('A' for Active; 'I' for Inactive)
REMARK    1  A    between atoms: C_1  and  C_2
REMARK    2  A    between atoms: C_2  and  N_3
REMARK    3  A    between atoms: C_2  and  C_12
REMARK    4  A    between atoms: C_4  and  C_6
REMARK    5  A    between atoms: C_15  and  N_16
REMARK    6  A    between atoms: C_17  and  C_19
REMARK    7  A    between atoms: C_21  and  C_22
REMARK                            x       y       z     vdW  Elec       q    Type
REMARK                         _______ _______ _______ _____ _____    ______ ____
ROOT
ATOM      1  C   UNL     1       6.993   5.493  17.700  0.00  0.00    +0.000 A 
ATOM      2  C   UNL     1       7.731   5.518  18.887  0.00  0.00    +0.000 A 
ATOM      3  C   UNL     1       8.385   6.683  19.302  0.00  0.00    +0.000 A 
ATOM      4  C   UNL     1       8.315   7.851  18.543  0.00  0.00    +0.000 A 
ATOM      5  C   UNL     1       7.570   7.839  17.361  0.00  0.00    +0.000 A 
ATOM      6  C   UNL     1       6.908   6.675  16.949  0.00  0.00    +0.000 A 
ENDROOT
BRANCH   4   7
ATOM      7  N   UNL     1       8.950   9.057  18.911  0.00  0.00    +0.000 N 
ATOM      8  C   UNL     1       8.714  10.304  18.377  0.00  0.00    +0.000 C 
ATOM      9  O   UNL     1       7.884  10.602  17.525  0.00  0.00    +0.000 OA
ATOM     10  H   UNL     1       9.646   8.989  19.643  0.00  0.00    +0.000 HD
BRANCH   8  11
ATOM     11  C   UNL     1       9.571  11.380  18.951  0.00  0.00    +0.000 C 
ATOM     12  C   UNL     1      10.997  11.082  19.342  0.00  0.00    +0.000 C 
ATOM     13  C   UNL     1      10.724  11.916  18.115  0.00  0.00    +0.000 C 
BRANCH  13  14
ATOM     14  C   UNL     1      10.947  13.404  18.085  0.00  0.00    +0.000 A 
ATOM     15  C   UNL     1      11.192  14.122  16.909  0.00  0.00    +0.000 A 
ATOM     16  C   UNL     1      11.385  15.502  16.943  0.00  0.00    +0.000 A 
ATOM     17  C   UNL     1      11.321  16.142  18.168  0.00  0.00    +0.000 A 
ATOM     18  N   UNL     1      11.084  15.504  19.331  0.00  0.00    +0.000 NA
ATOM     19  C   UNL     1      10.898  14.165  19.257  0.00  0.00    +0.000 A 
ENDBRANCH  13  14
ENDBRANCH   8  11
ENDBRANCH   4   7
BRANCH   1  21
ATOM     20  C   UNL     1       5.724   4.290  15.868  0.00  0.00    +0.000 C 
ATOM     21  C   UNL     1       6.280   4.212  17.294  0.00  0.00    +0.000 C 
BRANCH  21  22
ATOM     22  N   UNL     1       5.260   3.900  18.281  0.00  0.00    +0.000 N 
ATOM     23  C   UNL     1       4.036   4.530  18.335  0.00  0.00    +0.000 C 
ATOM     24  O   UNL     1       3.716   5.479  17.628  0.00  0.00    +0.000 OA
ATOM     25  H   UNL     1       5.327   3.031  18.806  0.00  0.00    +0.000 HD
BRANCH  23  26
ATOM     26  C   UNL     1       3.078   3.963  19.340  0.00  0.00    +0.000 A 
ATOM     27  C   UNL     1       1.748   4.370  19.320  0.00  0.00    +0.000 A 
ATOM     28  C   UNL     1       0.876   3.818  20.252  0.00  0.00    +0.000 A 
ATOM     29  C   UNL     1       1.359   2.890  21.168  0.00  0.00    +0.000 A 
ATOM     30  C   UNL     1       2.704   2.549  21.120  0.00  0.00    +0.000 A 
ATOM     31  N   UNL     1       3.582   3.060  20.229  0.00  0.00    +0.000 NA
ENDBRANCH  23  26
ENDBRANCH  21  22
ENDBRANCH   1  21
TORSDOF 6
ENDMDL
MODEL 6
REMARK VINA RESULT:      -8.5      5.673      8.811
REMARK  Name = 
REMARK  7 active torsions:
REMARK  status: ('A' for Active; 'I' for Inactive)
REMARK    1  A    between atoms: C_1  and  C_2
REMARK    2  A    between atoms: C_2  and  N_3
REMARK    3  A    between atoms: C_2  and  C_12
REMARK    4  A    between atoms: C_4  and  C_6
REMARK    5  A    between atoms: C_15  and  N_16
REMARK    6  A    between atoms: C_17  and  C_19
REMARK    7  A    between atoms: C_21  and  C_22
REMARK                            x       y       z     vdW  Elec       q    Type
REMARK                         _______ _______ _______ _____ _____    ______ ____
ROOT
ATOM      1  C   UNL     1       6.845   5.414  17.352  0.00  0.00    +0.000 A 
ATOM      2  C   UNL     1       7.466   5.309  18.601  0.00  0.00    +0.000 A 
ATOM      3  C   UNL     1       8.146   6.397  19.159  0.00  0.00    +0.000 A 
ATOM      4  C   UNL     1       8.219   7.616  18.486  0.00  0.00    +0.000 A 
ATOM      5  C   UNL     1       7.591   7.734  17.243  0.00  0.00    +0.000 A 
ATOM      6  C   UNL     1       6.903   6.648  16.687  0.00  0.00    +0.000 A 
ENDROOT
BRANCH   4   7
ATOM      7  N   UNL     1       8.886   8.749  18.999  0.00  0.00    +0.000 N 
ATOM      8  C   UNL     1       8.747  10.049  18.566  0.00  0.00    +0.000 C 
ATOM      9  O   UNL     1       7.992  10.464  17.696  0.00  0.00    +0.000 OA
ATOM     10  H   UNL     1       9.530   8.580  19.763  0.00  0.00    +0.000 HD
BRANCH   8  11
ATOM     11  C   UNL     1       9.617  11.022  19.286  0.00  0.00    +0.000 C 
ATOM     12  C   UNL     1      11.064  11.180  18.889  0.00  0.00    +0.000 C 
ATOM     13  C   UNL     1      10.079  12.271  18.548  0.00  0.00    +0.000 C 
BRANCH  13  14
ATOM     14  C   UNL     1      10.042  13.583  19.283  0.00  0.00    +0.000 A 
ATOM     15  C   UNL     1      10.683  13.798  20.508  0.00  0.00    +0.000 A 
ATOM     16  C   UNL     1      10.619  15.038  21.139  0.00  0.00    +0.000 A 
ATOM     17  C   UNL     1       9.909  16.052  20.520  0.00  0.00    +0.000 A 
ATOM     18  N   UNL     1       9.276  15.905  19.339  0.00  0.00    +0.000 NA
ATOM     19  C   UNL     1       9.364  14.687  18.754  0.00  0.00    +0.000 A 
ENDBRANCH  13  14
ENDBRANCH   8  11
ENDBRANCH   4   7
BRANCH   1  21
ATOM     20  C   UNL     1       5.599   4.466  15.362  0.00  0.00    +0.000 C 
ATOM     21  C   UNL     1       6.098   4.214  16.789  0.00  0.00    +0.000 C 
BRANCH  21  22
ATOM     22  N   UNL     1       5.031   3.843  17.703  0.00  0.00    +0.000 N 
ATOM     23  C   UNL     1       3.873   4.573  17.855  0.00  0.00    +0.000 C 
ATOM     24  O   UNL     1       3.661   5.653  17.318  0.00  0.00    +0.000 OA
ATOM     25  H   UNL     1       5.003   2.897  18.074  0.00  0.00    +0.000 HD
BRANCH  23  26
ATOM     26  C   UNL     1       2.843   3.942  18.745  0.00  0.00    +0.000 A 
ATOM     27  C   UNL     1       1.726   3.340  18.175  0.00  0.00    +0.000 A 
ATOM     28  C   UNL     1       0.793   2.749  19.020  0.00  0.00    +0.000 A 
ATOM     29  C   UNL     1       1.004   2.782  20.395  0.00  0.00    +0.000 A 
ATOM     30  C   UNL     1       2.143   3.413  20.875  0.00  0.00    +0.000 A 
ATOM     31  N   UNL     1       3.074   3.996  20.088  0.00  0.00    +0.000 NA
ENDBRANCH  23  26
ENDBRANCH  21  22
ENDBRANCH   1  21
TORSDOF 6
ENDMDL
MODEL 7
REMARK VINA RESULT:      -8.4      5.859      9.189
REMARK  Name = 
REMARK  7 active torsions:
REMARK  status: ('A' for Active; 'I' for Inactive)
REMARK    1  A    between atoms: C_1  and  C_2
REMARK    2  A    between atoms: C_2  and  N_3
REMARK    3  A    between atoms: C_2  and  C_12
REMARK    4  A    between atoms: C_4  and  C_6
REMARK    5  A    between atoms: C_15  and  N_16
REMARK    6  A    between atoms: C_17  and  C_19
REMARK    7  A    between atoms: C_21  and  C_22
REMARK                            x       y       z     vdW  Elec       q    Type
REMARK                         _______ _______ _______ _____ _____    ______ ____
ROOT
ATOM      1  C   UNL     1       6.556   5.521  17.641  0.00  0.00    +0.000 A 
ATOM      2  C   UNL     1       6.536   6.718  16.917  0.00  0.00    +0.000 A 
ATOM      3  C   UNL     1       7.322   7.806  17.307  0.00  0.00    +0.000 A 
ATOM      4  C   UNL     1       8.151   7.726  18.427  0.00  0.00    +0.000 A 
ATOM      5  C   UNL     1       8.187   6.530  19.149  0.00  0.00    +0.000 A 
ATOM      6  C   UNL     1       7.406   5.437  18.755  0.00  0.00    +0.000 A 
ENDROOT
BRANCH   4   7
ATOM      7  N   UNL     1       8.969   8.788  18.866  0.00  0.00    +0.000 N 
ATOM      8  C   UNL     1       8.893  10.103  18.464  0.00  0.00    +0.000 C 
ATOM      9  O   UNL     1       8.077  10.597  17.694  0.00  0.00    +0.000 OA
ATOM     10  H   UNL     1       9.681   8.551  19.546  0.00  0.00    +0.000 HD
BRANCH   8  11
ATOM     11  C   UNL     1       9.922  10.986  19.082  0.00  0.00    +0.000 C 
ATOM     12  C   UNL     1      11.079  11.492  18.256  0.00  0.00    +0.000 C 
ATOM     13  C   UNL     1       9.981  12.446  18.657  0.00  0.00    +0.000 C 
BRANCH  13  14
ATOM     14  C   UNL     1      10.168  13.489  19.725  0.00  0.00    +0.000 A 
ATOM     15  C   UNL     1       9.370  13.568  20.871  0.00  0.00    +0.000 A 
ATOM     16  C   UNL     1       9.595  14.554  21.830  0.00  0.00    +0.000 A 
ATOM     17  C   UNL     1      10.631  15.447  21.620  0.00  0.00    +0.000 A 
ATOM     18  N   UNL     1      11.434  15.417  20.539  0.00  0.00    +0.000 NA
ATOM     19  C   UNL     1      11.187  14.442  19.631  0.00  0.00    +0.000 A 
ENDBRANCH  13  14
ENDBRANCH   8  11
ENDBRANCH   4   7
BRANCH   1  21
ATOM     20  C   UNL     1       5.224   4.534  15.727  0.00  0.00    +0.000 C 
ATOM     21  C   UNL     1       5.701   4.353  17.173  0.00  0.00    +0.000 C 
BRANCH  21  22
ATOM     22  N   UNL     1       4.607   4.157  18.108  0.00  0.00    +0.000 N 
ATOM     23  C   UNL     1       3.918   2.971  18.234  0.00  0.00    +0.000 C 
ATOM     24  O   UNL     1       4.083   1.995  17.511  0.00  0.00    +0.000 OA
ATOM     25  H   UNL     1       4.484   4.817  18.873  0.00  0.00    +0.000 HD
BRANCH  23  26
ATOM     26  C   UNL     1       2.919   2.937  19.353  0.00  0.00    +0.000 A 
ATOM     27  C   UNL     1       1.575   3.156  19.074  0.00  0.00    +0.000 A 
ATOM     28  C   UNL     1       0.666   3.105  20.125  0.00  0.00    +0.000 A 
ATOM     29  C   UNL     1       1.129   2.842  21.411  0.00  0.00    +0.000 A 
ATOM     30  C   UNL     1       2.490   2.645  21.597  0.00  0.00    +0.000 A 
ATOM     31  N   UNL     1       3.404   2.684  20.602  0.00  0.00    +0.000 NA
ENDBRANCH  23  26
ENDBRANCH  21  22
ENDBRANCH   1  21
TORSDOF 6
ENDMDL
MODEL 8
REMARK VINA RESULT:      -8.4      1.837      9.922
REMARK  Name = 
REMARK  7 active torsions:
REMARK  status: ('A' for Active; 'I' for Inactive)
REMARK    1  A    between atoms: C_1  and  C_2
REMARK    2  A    between atoms: C_2  and  N_3
REMARK    3  A    between atoms: C_2  and  C_12
REMARK    4  A    between atoms: C_4  and  C_6
REMARK    5  A    between atoms: C_15  and  N_16
REMARK    6  A    between atoms: C_17  and  C_19
REMARK    7  A    between atoms: C_21  and  C_22
REMARK                            x       y       z     vdW  Elec       q    Type
REMARK                         _______ _______ _______ _____ _____    ______ ____
ROOT
ATOM      1  C   UNL     1       1.059   9.096  19.934  0.00  0.00    +0.000 A 
ATOM      2  C   UNL     1       1.449   7.939  20.616  0.00  0.00    +0.000 A 
ATOM      3  C   UNL     1       2.242   6.971  19.992  0.00  0.00    +0.000 A 
ATOM      4  C   UNL     1       2.667   7.134  18.674  0.00  0.00    +0.000 A 
ATOM      5  C   UNL     1       2.292   8.293  17.988  0.00  0.00    +0.000 A 
ATOM      6  C   UNL     1       1.506   9.268  18.615  0.00  0.00    +0.000 A 
ENDROOT
BRANCH   4   7
ATOM      7  N   UNL     1       3.470   6.195  17.993  0.00  0.00    +0.000 N 
ATOM      8  C   UNL     1       4.563   5.529  18.502  0.00  0.00    +0.000 C 
ATOM      9  O   UNL     1       5.006   5.593  19.642  0.00  0.00    +0.000 OA
ATOM     10  H   UNL     1       3.209   5.996  17.035  0.00  0.00    +0.000 HD
BRANCH   8  11
ATOM     11  C   UNL     1       5.229   4.623  17.523  0.00  0.00    +0.000 C 
ATOM     12  C   UNL     1       4.519   3.385  17.036  0.00  0.00    +0.000 C 
ATOM     13  C   UNL     1       4.685   4.559  16.103  0.00  0.00    +0.000 C 
BRANCH  13  14
ATOM     14  C   UNL     1       5.671   4.553  14.966  0.00  0.00    +0.000 A 
ATOM     15  C   UNL     1       5.501   3.790  13.805  0.00  0.00    +0.000 A 
ATOM     16  C   UNL     1       6.446   3.830  12.782  0.00  0.00    +0.000 A 
ATOM     17  C   UNL     1       7.550   4.649  12.941  0.00  0.00    +0.000 A 
ATOM     18  N   UNL     1       7.763   5.409  14.034  0.00  0.00    +0.000 NA
ATOM     19  C   UNL     1       6.822   5.346  15.005  0.00  0.00    +0.000 A 
ENDBRANCH  13  14
ENDBRANCH   8  11
ENDBRANCH   4   7
BRANCH   1  21
ATOM     20  C   UNL     1      -0.046   9.753  22.117  0.00  0.00    +0.000 C 
ATOM     21  C   UNL     1       0.214  10.135  20.655  0.00  0.00    +0.000 C 
BRANCH  21  22
ATOM     22  N   UNL     1      -1.010  10.360  19.904  0.00  0.00    +0.000 N 
ATOM     23  C   UNL     1      -1.340  11.569  19.332  0.00  0.00    +0.000 C 
ATOM     24  O   UNL     1      -0.695  12.601  19.476  0.00  0.00    +0.000 OA
ATOM     25  H   UNL     1      -1.539   9.559  19.569  0.00  0.00    +0.000 HD
BRANCH  23  26
ATOM     26  C   UNL     1      -2.578  11.548  18.485  0.00  0.00    +0.000 A 
ATOM     27  C   UNL     1      -3.787  11.958  19.036  0.00  0.00    +0.000 A 
ATOM     28  C   UNL     1      -4.918  11.945  18.226  0.00  0.00    +0.000 A 
ATOM     29  C   UNL     1      -4.804  11.522  16.906  0.00  0.00    +0.000 A 
ATOM     30  C   UNL     1      -3.557  11.122  16.444  0.00  0.00    +0.000 A 
ATOM     31  N   UNL     1      -2.435  11.124  17.198  0.00  0.00    +0.000 NA
ENDBRANCH  23  26
ENDBRANCH  21  22
ENDBRANCH   1  21
TORSDOF 6
ENDMDL
MODEL 9
REMARK VINA RESULT:      -8.4      5.451      8.655
REMARK  Name = 
REMARK  7 active torsions:
REMARK  status: ('A' for Active; 'I' for Inactive)
REMARK    1  A    between atoms: C_1  and  C_2
REMARK    2  A    between atoms: C_2  and  N_3
REMARK    3  A    between atoms: C_2  and  C_12
REMARK    4  A    between atoms: C_4  and  C_6
REMARK    5  A    between atoms: C_15  and  N_16
REMARK    6  A    between atoms: C_17  and  C_19
REMARK    7  A    between atoms: C_21  and  C_22
REMARK                            x       y       z     vdW  Elec       q    Type
REMARK                         _______ _______ _______ _____ _____    ______ ____
ROOT
ATOM      1  C   UNL     1       6.805   5.269  17.281  0.00  0.00    +0.000 A 
ATOM      2  C   UNL     1       6.793   6.490  16.600  0.00  0.00    +0.000 A 
ATOM      3  C   UNL     1       7.433   7.615  17.130  0.00  0.00    +0.000 A 
ATOM      4  C   UNL     1       8.104   7.547  18.352  0.00  0.00    +0.000 A 
ATOM      5  C   UNL     1       8.132   6.327  19.033  0.00  0.00    +0.000 A 
ATOM      6  C   UNL     1       7.498   5.199  18.499  0.00  0.00    +0.000 A 
ENDROOT
BRANCH   4   7
ATOM      7  N   UNL     1       8.771   8.645  18.934  0.00  0.00    +0.000 N 
ATOM      8  C   UNL     1       8.744   9.950  18.492  0.00  0.00    +0.000 C 
ATOM      9  O   UNL     1       8.105  10.401  17.550  0.00  0.00    +0.000 OA
ATOM     10  H   UNL     1       9.322   8.446  19.760  0.00  0.00    +0.000 HD
BRANCH   8  11
ATOM     11  C   UNL     1       9.583  10.879  19.301  0.00  0.00    +0.000 C 
ATOM     12  C   UNL     1      10.870  11.424  18.733  0.00  0.00    +0.000 C 
ATOM     13  C   UNL     1       9.677  12.337  18.872  0.00  0.00    +0.000 C 
BRANCH  13  14
ATOM     14  C   UNL     1       9.590  13.397  19.936  0.00  0.00    +0.000 A 
ATOM     15  C   UNL     1      10.706  13.889  20.623  0.00  0.00    +0.000 A 
ATOM     16  C   UNL     1      10.565  14.877  21.596  0.00  0.00    +0.000 A 
ATOM     17  C   UNL     1       9.295  15.360  21.859  0.00  0.00    +0.000 A 
ATOM     18  N   UNL     1       8.187  14.928  21.226  0.00  0.00    +0.000 NA
ATOM     19  C   UNL     1       8.364  13.971  20.285  0.00  0.00    +0.000 A 
ENDBRANCH  13  14
ENDBRANCH   8  11
ENDBRANCH   4   7
BRANCH   1  21
ATOM     20  C   UNL     1       5.753   4.302  15.190  0.00  0.00    +0.000 C 
ATOM     21  C   UNL     1       6.114   4.064  16.661  0.00  0.00    +0.000 C 
BRANCH  21  22
ATOM     22  N   UNL     1       4.964   3.702  17.473  0.00  0.00    +0.000 N 
ATOM     23  C   UNL     1       3.884   4.533  17.674  0.00  0.00    +0.000 C 
ATOM     24  O   UNL     1       3.819   5.690  17.277  0.00  0.00    +0.000 OA
ATOM     25  H   UNL     1       4.815   2.725  17.713  0.00  0.00    +0.000 HD
BRANCH  23  26
ATOM     26  C   UNL     1       2.744   3.914  18.429  0.00  0.00    +0.000 A 
ATOM     27  C   UNL     1       2.173   4.608  19.489  0.00  0.00    +0.000 A 
ATOM     28  C   UNL     1       1.108   4.020  20.164  0.00  0.00    +0.000 A 
ATOM     29  C   UNL     1       0.657   2.767  19.762  0.00  0.00    +0.000 A 
ATOM     30  C   UNL     1       1.294   2.144  18.698  0.00  0.00    +0.000 A 
ATOM     31  N   UNL     1       2.329   2.683  18.015  0.00  0.00    +0.000 NA
ENDBRANCH  23  26
ENDBRANCH  21  22
ENDBRANCH   1  21
TORSDOF 6
ENDMDL
