MODEL 1
REMARK VINA RESULT:      -7.4      0.000      0.000
REMARK  Name = 
REMARK  11 active torsions:
REMARK  status: ('A' for Active; 'I' for Inactive)
REMARK    1  A    between atoms: C_1  and  O_2
REMARK    2  A    between atoms: O_2  and  C_3
REMARK    3  A    between atoms: C_8  and  C_9
REMARK    4  A    between atoms: C_9  and  N_10
REMARK    5  A    between atoms: C_11  and  C_13
REMARK    6  A    between atoms: C_13  and  N_14
REMARK    7  A    between atoms: C_13  and  C_30
REMARK    8  A    between atoms: C_15  and  C_17
REMARK    9  A    between atoms: C_21  and  C_23
REMARK   10  A    between atoms: C_30  and  C_31
REMARK   11  A    between atoms: C_30  and  C_32
REMARK                            x       y       z     vdW  Elec       q    Type
REMARK                         _______ _______ _______ _____ _____    ______ ____
ROOT
ATOM      1  N   UNL     1       0.464  11.068  20.673  0.00  0.00    +0.000 N 
ATOM      2  C   UNL     1      -0.680  11.777  20.393  0.00  0.00    +0.000 C 
ATOM      3  O   UNL     1      -1.383  11.525  19.411  0.00  0.00    +0.000 OA
ATOM      4  H   UNL     1       0.915  11.194  21.565  0.00  0.00    +0.000 HD
ENDROOT
BRANCH   2   5
ATOM      5  C   UNL     1      -1.016  12.926  21.354  0.00  0.00    +0.000 C 
ATOM      6  C   UNL     1      -1.052  12.460  22.818  0.00  0.00    +0.000 C 
ATOM      7  C   UNL     1      -2.291  11.608  23.102  0.00  0.00    +0.000 C 
ATOM      8  N   UNL     1      -3.502  12.347  22.756  0.00  0.00    +0.000 N 
ATOM      9  C   UNL     1      -4.341  12.786  23.773  0.00  0.00    +0.000 C 
ATOM     10  O   UNL     1      -4.079  12.552  24.961  0.00  0.00    +0.000 OA
ATOM     11  C   UNL     1      -3.567  12.739  21.347  0.00  0.00    +0.000 C 
ATOM     12  C   UNL     1      -2.354  13.601  20.980  0.00  0.00    +0.000 C 
BRANCH   9  13
ATOM     13  C   UNL     1      -5.641  13.553  23.462  0.00  0.00    +0.000 C 
ATOM     14  C   UNL     1      -5.579  15.051  23.688  0.00  0.00    +0.000 C 
ATOM     15  C   UNL     1      -7.034  15.439  23.880  0.00  0.00    +0.000 C 
ATOM     16  C   UNL     1      -7.752  14.168  24.318  0.00  0.00    +0.000 C 
ATOM     17  N   UNL     1      -6.779  13.081  24.276  0.00  0.00    +0.000 NA
ATOM     18  H   UNL     1      -7.175  12.241  23.857  0.00  0.00    +0.000 HD
ENDBRANCH   9  13
ENDBRANCH   2   5
BRANCH   1  19
ATOM     19  C   UNL     1       0.782   9.856  19.898  0.00  0.00    +0.000 C 
BRANCH  19  21
ATOM     20  N   UNL     1       1.473   7.482  20.216  0.00  0.00    +0.000 N 
ATOM     21  C   UNL     1       1.150   8.665  20.848  0.00  0.00    +0.000 C 
ATOM     22  O   UNL     1       1.197   8.809  22.076  0.00  0.00    +0.000 OA
ATOM     23  H   UNL     1       1.466   7.440  19.205  0.00  0.00    +0.000 HD
BRANCH  20  24
ATOM     24  C   UNL     1       1.937   6.285  20.922  0.00  0.00    +0.000 C 
BRANCH  24  30
ATOM     25  C   UNL     1       2.138   4.897  18.744  0.00  0.00    +0.000 A 
ATOM     26  C   UNL     1       1.871   3.702  18.054  0.00  0.00    +0.000 A 
ATOM     27  C   UNL     1       1.316   2.602  18.710  0.00  0.00    +0.000 A 
ATOM     28  C   UNL     1       1.024   2.686  20.063  0.00  0.00    +0.000 A 
ATOM     29  C   UNL     1       1.233   3.885  20.746  0.00  0.00    +0.000 A 
ATOM     30  C   UNL     1       1.760   5.021  20.099  0.00  0.00    +0.000 A 
BRANCH  25  32
ATOM     31  C   UNL     1       3.968   5.666  17.445  0.00  0.00    +0.000 C 
ATOM     32  O   UNL     1       2.751   5.967  18.141  0.00  0.00    +0.000 OA
ENDBRANCH  25  32
ENDBRANCH  24  30
ENDBRANCH  20  24
ENDBRANCH  19  21
BRANCH  19  33
ATOM     33  C   UNL     1       1.874  10.098  18.825  0.00  0.00    +0.000 C 
ATOM     34  C   UNL     1       1.636   9.257  17.567  0.00  0.00    +0.000 C 
ATOM     35  C   UNL     1       2.045  11.565  18.416  0.00  0.00    +0.000 C 
ENDBRANCH  19  33
ENDBRANCH   1  19
TORSDOF 8
ENDMDL
MODEL 2
REMARK VINA RESULT:      -7.2      2.565      9.429
REMARK  Name = 
REMARK  11 active torsions:
REMARK  status: ('A' for Active; 'I' for Inactive)
REMARK    1  A    between atoms: C_1  and  O_2
REMARK    2  A    between atoms: O_2  and  C_3
REMARK    3  A    between atoms: C_8  and  C_9
REMARK    4  A    between atoms: C_9  and  N_10
REMARK    5  A    between atoms: C_11  and  C_13
REMARK    6  A    between atoms: C_13  and  N_14
REMARK    7  A    between atoms: C_13  and  C_30
REMARK    8  A    between atoms: C_15  and  C_17
REMARK    9  A    between atoms: C_21  and  C_23
REMARK   10  A    between atoms: C_30  and  C_31
REMARK   11  A    between atoms: C_30  and  C_32
REMARK                            x       y       z     vdW  Elec       q    Type
REMARK                         _______ _______ _______ _____ _____    ______ ____
ROOT
ATOM      1  N   UNL     1       0.809  12.414  19.617  0.00  0.00    +0.000 N 
ATOM      2  C   UNL     1       1.312  11.442  18.786  0.00  0.00    +0.000 C 
ATOM      3  O   UNL     1       2.346  11.607  18.136  0.00  0.00    +0.000 OA
ATOM      4  H   UNL     1       0.061  12.182  20.251  0.00  0.00    +0.000 HD
ENDROOT
BRANCH   2   5
ATOM      5  C   UNL     1       0.490  10.149  18.684  0.00  0.00    +0.000 C 
ATOM      6  C   UNL     1       0.415   9.407  20.028  0.00  0.00    +0.000 C 
ATOM      7  C   UNL     1       1.754   8.753  20.379  0.00  0.00    +0.000 C 
ATOM      8  N   UNL     1       2.175   7.857  19.306  0.00  0.00    +0.000 N 
ATOM      9  C   UNL     1       2.160   6.485  19.526  0.00  0.00    +0.000 C 
ATOM     10  O   UNL     1       1.805   6.018  20.617  0.00  0.00    +0.000 OA
ATOM     11  C   UNL     1       2.352   8.527  18.017  0.00  0.00    +0.000 C 
ATOM     12  C   UNL     1       1.048   9.210  17.591  0.00  0.00    +0.000 C 
BRANCH   9  13
ATOM     13  C   UNL     1       2.613   5.495  18.435  0.00  0.00    +0.000 C 
ATOM     14  C   UNL     1       1.619   4.400  18.101  0.00  0.00    +0.000 C 
ATOM     15  C   UNL     1       2.487   3.309  17.498  0.00  0.00    +0.000 C 
ATOM     16  C   UNL     1       3.896   3.559  18.019  0.00  0.00    +0.000 C 
ATOM     17  N   UNL     1       3.862   4.795  18.796  0.00  0.00    +0.000 NA
ATOM     18  H   UNL     1       4.662   5.390  18.586  0.00  0.00    +0.000 HD
ENDBRANCH   9  13
ENDBRANCH   2   5
BRANCH   1  19
ATOM     19  C   UNL     1       1.606  13.623  19.895  0.00  0.00    +0.000 C 
BRANCH  19  21
ATOM     20  N   UNL     1       0.018  14.333  21.680  0.00  0.00    +0.000 N 
ATOM     21  C   UNL     1       1.344  14.142  21.351  0.00  0.00    +0.000 C 
ATOM     22  O   UNL     1       2.271  14.311  22.153  0.00  0.00    +0.000 OA
ATOM     23  H   UNL     1      -0.700  14.129  20.997  0.00  0.00    +0.000 HD
BRANCH  20  24
ATOM     24  C   UNL     1      -0.438  14.720  23.019  0.00  0.00    +0.000 C 
BRANCH  24  30
ATOM     25  C   UNL     1      -1.927  12.616  23.281  0.00  0.00    +0.000 A 
ATOM     26  C   UNL     1      -3.172  12.064  23.629  0.00  0.00    +0.000 A 
ATOM     27  C   UNL     1      -4.174  12.851  24.198  0.00  0.00    +0.000 A 
ATOM     28  C   UNL     1      -3.942  14.199  24.426  0.00  0.00    +0.000 A 
ATOM     29  C   UNL     1      -2.730  14.771  24.034  0.00  0.00    +0.000 A 
ATOM     30  C   UNL     1      -1.715  14.005  23.425  0.00  0.00    +0.000 A 
BRANCH  25  32
ATOM     31  C   UNL     1      -0.937  10.465  23.154  0.00  0.00    +0.000 C 
ATOM     32  O   UNL     1      -0.899  11.851  22.789  0.00  0.00    +0.000 OA
ENDBRANCH  25  32
ENDBRANCH  24  30
ENDBRANCH  20  24
ENDBRANCH  19  21
BRANCH  19  33
ATOM     33  C   UNL     1       1.397  14.736  18.838  0.00  0.00    +0.000 C 
ATOM     34  C   UNL     1      -0.087  15.017  18.588  0.00  0.00    +0.000 C 
ATOM     35  C   UNL     1       2.103  16.058  19.162  0.00  0.00    +0.000 C 
ENDBRANCH  19  33
ENDBRANCH   1  19
TORSDOF 8
ENDMDL
MODEL 3
REMARK VINA RESULT:      -7.1      2.670      3.786
REMARK  Name = 
REMARK  11 active torsions:
REMARK  status: ('A' for Active; 'I' for Inactive)
REMARK    1  A    between atoms: C_1  and  O_2
REMARK    2  A    between atoms: O_2  and  C_3
REMARK    3  A    between atoms: C_8  and  C_9
REMARK    4  A    between atoms: C_9  and  N_10
REMARK    5  A    between atoms: C_11  and  C_13
REMARK    6  A    between atoms: C_13  and  N_14
REMARK    7  A    between atoms: C_13  and  C_30
REMARK    8  A    between atoms: C_15  and  C_17
REMARK    9  A    between atoms: C_21  and  C_23
REMARK   10  A    between atoms: C_30  and  C_31
REMARK   11  A    between atoms: C_30  and  C_32
REMARK                            x       y       z     vdW  Elec       q    Type
REMARK                         _______ _______ _______ _____ _____    ______ ____
ROOT
ATOM      1  N   UNL     1       0.433  10.493  19.257  0.00  0.00    +0.000 N 
ATOM      2  C   UNL     1       0.624  11.843  19.431  0.00  0.00    +0.000 C 
ATOM      3  O   UNL     1       1.544  12.290  20.120  0.00  0.00    +0.000 OA
ATOM      4  H   UNL     1      -0.223  10.175  18.560  0.00  0.00    +0.000 HD
ENDROOT
BRANCH   2   5
ATOM      5  C   UNL     1      -0.398  12.764  18.750  0.00  0.00    +0.000 C 
ATOM      6  C   UNL     1      -0.672  14.030  19.576  0.00  0.00    +0.000 C 
ATOM      7  C   UNL     1      -1.503  13.715  20.823  0.00  0.00    +0.000 C 
ATOM      8  N   UNL     1      -2.749  13.054  20.444  0.00  0.00    +0.000 N 
ATOM      9  C   UNL     1      -3.949  13.741  20.585  0.00  0.00    +0.000 C 
ATOM     10  O   UNL     1      -3.974  14.896  21.031  0.00  0.00    +0.000 OA
ATOM     11  C   UNL     1      -2.550  11.790  19.732  0.00  0.00    +0.000 C 
ATOM     12  C   UNL     1      -1.723  12.022  18.463  0.00  0.00    +0.000 C 
BRANCH   9  13
ATOM     13  C   UNL     1      -5.294  13.083  20.219  0.00  0.00    +0.000 C 
ATOM     14  C   UNL     1      -6.431  14.047  19.938  0.00  0.00    +0.000 C 
ATOM     15  C   UNL     1      -7.672  13.209  20.187  0.00  0.00    +0.000 C 
ATOM     16  C   UNL     1      -7.235  12.074  21.105  0.00  0.00    +0.000 C 
ATOM     17  N   UNL     1      -5.791  12.192  21.286  0.00  0.00    +0.000 NA
ATOM     18  H   UNL     1      -5.331  11.285  21.219  0.00  0.00    +0.000 HD
ENDBRANCH   9  13
ENDBRANCH   2   5
BRANCH   1  19
ATOM     19  C   UNL     1       1.447   9.541  19.744  0.00  0.00    +0.000 C 
BRANCH  19  21
ATOM     20  N   UNL     1       2.373   7.373  18.936  0.00  0.00    +0.000 N 
ATOM     21  C   UNL     1       1.980   8.645  18.574  0.00  0.00    +0.000 C 
ATOM     22  O   UNL     1       1.987   9.047  17.404  0.00  0.00    +0.000 OA
ATOM     23  H   UNL     1       2.296   7.084  19.902  0.00  0.00    +0.000 HD
BRANCH  20  24
ATOM     24  C   UNL     1       2.808   6.354  17.976  0.00  0.00    +0.000 C 
BRANCH  24  30
ATOM     25  C   UNL     1       4.955   5.267  18.934  0.00  0.00    +0.000 A 
ATOM     26  C   UNL     1       6.357   5.173  18.928  0.00  0.00    +0.000 A 
ATOM     27  C   UNL     1       7.118   5.846  17.971  0.00  0.00    +0.000 A 
ATOM     28  C   UNL     1       6.485   6.618  17.009  0.00  0.00    +0.000 A 
ATOM     29  C   UNL     1       5.097   6.763  17.038  0.00  0.00    +0.000 A 
ATOM     30  C   UNL     1       4.308   6.122  18.015  0.00  0.00    +0.000 A 
BRANCH  25  32
ATOM     31  C   UNL     1       4.153   3.140  19.610  0.00  0.00    +0.000 C 
ATOM     32  O   UNL     1       4.179   4.558  19.817  0.00  0.00    +0.000 OA
ENDBRANCH  25  32
ENDBRANCH  24  30
ENDBRANCH  20  24
ENDBRANCH  19  21
BRANCH  19  33
ATOM     33  C   UNL     1       0.949   8.693  20.941  0.00  0.00    +0.000 C 
ATOM     34  C   UNL     1       1.665   9.064  22.242  0.00  0.00    +0.000 C 
ATOM     35  C   UNL     1      -0.565   8.754  21.174  0.00  0.00    +0.000 C 
ENDBRANCH  19  33
ENDBRANCH   1  19
TORSDOF 8
ENDMDL
MODEL 4
REMARK VINA RESULT:      -7.0      2.689      3.426
REMARK  Name = 
REMARK  11 active torsions:
REMARK  status: ('A' for Active; 'I' for Inactive)
REMARK    1  A    between atoms: C_1  and  O_2
REMARK    2  A    between atoms: O_2  and  C_3
REMARK    3  A    between atoms: C_8  and  C_9
REMARK    4  A    between atoms: C_9  and  N_10
REMARK    5  A    between atoms: C_11  and  C_13
REMARK    6  A    between atoms: C_13  and  N_14
REMARK    7  A    between atoms: C_13  and  C_30
REMARK    8  A    between atoms: C_15  and  C_17
REMARK    9  A    between atoms: C_21  and  C_23
REMARK   10  A    between atoms: C_30  and  C_31
REMARK   11  A    between atoms: C_30  and  C_32
REMARK                            x       y       z     vdW  Elec       q    Type
REMARK                         _______ _______ _______ _____ _____    ______ ____
ROOT
ATOM      1  N   UNL     1       0.474  10.333  19.227  0.00  0.00    +0.000 N 
ATOM      2  C   UNL     1       0.669  11.689  19.334  0.00  0.00    +0.000 C 
ATOM      3  O   UNL     1       1.589  12.167  20.001  0.00  0.00    +0.000 OA
ATOM      4  H   UNL     1      -0.181   9.982  18.546  0.00  0.00    +0.000 HD
ENDROOT
BRANCH   2   5
ATOM      5  C   UNL     1      -0.348  12.578  18.604  0.00  0.00    +0.000 C 
ATOM      6  C   UNL     1      -0.826  13.746  19.480  0.00  0.00    +0.000 C 
ATOM      7  C   UNL     1      -1.761  13.263  20.592  0.00  0.00    +0.000 C 
ATOM      8  N   UNL     1      -2.892  12.537  20.020  0.00  0.00    +0.000 N 
ATOM      9  C   UNL     1      -4.156  13.112  20.066  0.00  0.00    +0.000 C 
ATOM     10  O   UNL     1      -4.334  14.220  20.588  0.00  0.00    +0.000 OA
ATOM     11  C   UNL     1      -2.501  11.357  19.248  0.00  0.00    +0.000 C 
ATOM     12  C   UNL     1      -1.560  11.758  18.107  0.00  0.00    +0.000 C 
BRANCH   9  13
ATOM     13  C   UNL     1      -5.387  12.381  19.495  0.00  0.00    +0.000 C 
ATOM     14  C   UNL     1      -5.659  12.623  18.023  0.00  0.00    +0.000 C 
ATOM     15  C   UNL     1      -7.138  12.309  17.882  0.00  0.00    +0.000 C 
ATOM     16  C   UNL     1      -7.735  12.470  19.275  0.00  0.00    +0.000 C 
ATOM     17  N   UNL     1      -6.635  12.755  20.190  0.00  0.00    +0.000 NA
ATOM     18  H   UNL     1      -6.719  12.221  21.054  0.00  0.00    +0.000 HD
ENDBRANCH   9  13
ENDBRANCH   2   5
BRANCH   1  19
ATOM     19  C   UNL     1       1.482   9.403  19.765  0.00  0.00    +0.000 C 
BRANCH  19  21
ATOM     20  N   UNL     1       2.489   7.230  19.073  0.00  0.00    +0.000 N 
ATOM     21  C   UNL     1       2.026   8.456  18.640  0.00  0.00    +0.000 C 
ATOM     22  O   UNL     1       1.983   8.779  17.447  0.00  0.00    +0.000 OA
ATOM     23  H   UNL     1       2.452   7.003  20.058  0.00  0.00    +0.000 HD
BRANCH  20  24
ATOM     24  C   UNL     1       2.946   6.171  18.169  0.00  0.00    +0.000 C 
BRANCH  24  30
ATOM     25  C   UNL     1       3.471   3.666  18.570  0.00  0.00    +0.000 A 
ATOM     26  C   UNL     1       3.041   2.409  19.028  0.00  0.00    +0.000 A 
ATOM     27  C   UNL     1       1.816   2.261  19.678  0.00  0.00    +0.000 A 
ATOM     28  C   UNL     1       1.007   3.369  19.879  0.00  0.00    +0.000 A 
ATOM     29  C   UNL     1       1.397   4.613  19.380  0.00  0.00    +0.000 A 
ATOM     30  C   UNL     1       2.615   4.783  18.689  0.00  0.00    +0.000 A 
BRANCH  25  32
ATOM     31  C   UNL     1       4.748   3.688  16.571  0.00  0.00    +0.000 C 
ATOM     32  O   UNL     1       4.704   3.852  17.995  0.00  0.00    +0.000 OA
ENDBRANCH  25  32
ENDBRANCH  24  30
ENDBRANCH  20  24
ENDBRANCH  19  21
BRANCH  19  33
ATOM     33  C   UNL     1       0.973   8.608  20.993  0.00  0.00    +0.000 C 
ATOM     34  C   UNL     1       1.587   9.119  22.300  0.00  0.00    +0.000 C 
ATOM     35  C   UNL     1      -0.553   8.579  21.141  0.00  0.00    +0.000 C 
ENDBRANCH  19  33
ENDBRANCH   1  19
TORSDOF 8
ENDMDL
MODEL 5
REMARK VINA RESULT:      -6.9      2.212      2.956
REMARK  Name = 
REMARK  11 active torsions:
REMARK  status: ('A' for Active; 'I' for Inactive)
REMARK    1  A    between atoms: C_1  and  O_2
REMARK    2  A    between atoms: O_2  and  C_3
REMARK    3  A    between atoms: C_8  and  C_9
REMARK    4  A    between atoms: C_9  and  N_10
REMARK    5  A    between atoms: C_11  and  C_13
REMARK    6  A    between atoms: C_13  and  N_14
REMARK    7  A    between atoms: C_13  and  C_30
REMARK    8  A    between atoms: C_15  and  C_17
REMARK    9  A    between atoms: C_21  and  C_23
REMARK   10  A    between atoms: C_30  and  C_31
REMARK   11  A    between atoms: C_30  and  C_32
REMARK                            x       y       z     vdW  Elec       q    Type
REMARK                         _______ _______ _______ _____ _____    ______ ____
ROOT
ATOM      1  N   UNL     1       0.237  10.388  19.287  0.00  0.00    +0.000 N 
ATOM      2  C   UNL     1       0.319  11.750  19.449  0.00  0.00    +0.000 C 
ATOM      3  O   UNL     1       1.227  12.278  20.095  0.00  0.00    +0.000 OA
ATOM      4  H   UNL     1      -0.419  10.010  18.621  0.00  0.00    +0.000 HD
ENDROOT
BRANCH   2   5
ATOM      5  C   UNL     1      -0.805  12.576  18.810  0.00  0.00    +0.000 C 
ATOM      6  C   UNL     1      -0.669  14.074  19.123  0.00  0.00    +0.000 C 
ATOM      7  C   UNL     1      -1.019  14.374  20.583  0.00  0.00    +0.000 C 
ATOM      8  N   UNL     1      -2.365  13.894  20.887  0.00  0.00    +0.000 N 
ATOM      9  C   UNL     1      -3.379  14.818  21.108  0.00  0.00    +0.000 C 
ATOM     10  O   UNL     1      -3.154  16.035  21.058  0.00  0.00    +0.000 OA
ATOM     11  C   UNL     1      -2.531  12.452  20.695  0.00  0.00    +0.000 C 
ATOM     12  C   UNL     1      -2.198  12.068  19.249  0.00  0.00    +0.000 C 
BRANCH   9  13
ATOM     13  C   UNL     1      -4.811  14.366  21.452  0.00  0.00    +0.000 C 
ATOM     14  C   UNL     1      -5.766  14.289  20.276  0.00  0.00    +0.000 C 
ATOM     15  C   UNL     1      -7.134  14.406  20.926  0.00  0.00    +0.000 C 
ATOM     16  C   UNL     1      -6.904  15.091  22.267  0.00  0.00    +0.000 C 
ATOM     17  N   UNL     1      -5.463  15.262  22.428  0.00  0.00    +0.000 NA
ATOM     18  H   UNL     1      -5.161  15.019  23.371  0.00  0.00    +0.000 HD
ENDBRANCH   9  13
ENDBRANCH   2   5
BRANCH   1  19
ATOM     19  C   UNL     1       1.348   9.528  19.733  0.00  0.00    +0.000 C 
BRANCH  19  21
ATOM     20  N   UNL     1       2.190   7.356  18.847  0.00  0.00    +0.000 N 
ATOM     21  C   UNL     1       1.903   8.671  18.544  0.00  0.00    +0.000 C 
ATOM     22  O   UNL     1       2.018   9.143  17.406  0.00  0.00    +0.000 OA
ATOM     23  H   UNL     1       2.028   7.014  19.786  0.00  0.00    +0.000 HD
BRANCH  20  24
ATOM     24  C   UNL     1       2.626   6.371  17.853  0.00  0.00    +0.000 C 
BRANCH  24  30
ATOM     25  C   UNL     1       3.531   4.430  19.311  0.00  0.00    +0.000 A 
ATOM     26  C   UNL     1       3.450   3.081  19.697  0.00  0.00    +0.000 A 
ATOM     27  C   UNL     1       2.407   2.268  19.254  0.00  0.00    +0.000 A 
ATOM     28  C   UNL     1       1.432   2.796  18.421  0.00  0.00    +0.000 A 
ATOM     29  C   UNL     1       1.531   4.119  17.986  0.00  0.00    +0.000 A 
ATOM     30  C   UNL     1       2.594   4.951  18.392  0.00  0.00    +0.000 A 
BRANCH  25  32
ATOM     31  C   UNL     1       5.798   5.119  19.192  0.00  0.00    +0.000 C 
ATOM     32  O   UNL     1       4.505   5.271  19.791  0.00  0.00    +0.000 OA
ENDBRANCH  25  32
ENDBRANCH  24  30
ENDBRANCH  20  24
ENDBRANCH  19  21
BRANCH  19  33
ATOM     33  C   UNL     1       0.976   8.650  20.954  0.00  0.00    +0.000 C 
ATOM     34  C   UNL     1       1.648   9.143  22.239  0.00  0.00    +0.000 C 
ATOM     35  C   UNL     1      -0.531   8.516  21.203  0.00  0.00    +0.000 C 
ENDBRANCH  19  33
ENDBRANCH   1  19
TORSDOF 8
ENDMDL
MODEL 6
REMARK VINA RESULT:      -6.9      2.440      3.129
REMARK  Name = 
REMARK  11 active torsions:
REMARK  status: ('A' for Active; 'I' for Inactive)
REMARK    1  A    between atoms: C_1  and  O_2
REMARK    2  A    between atoms: O_2  and  C_3
REMARK    3  A    between atoms: C_8  and  C_9
REMARK    4  A    between atoms: C_9  and  N_10
REMARK    5  A    between atoms: C_11  and  C_13
REMARK    6  A    between atoms: C_13  and  N_14
REMARK    7  A    between atoms: C_13  and  C_30
REMARK    8  A    between atoms: C_15  and  C_17
REMARK    9  A    between atoms: C_21  and  C_23
REMARK   10  A    between atoms: C_30  and  C_31
REMARK   11  A    between atoms: C_30  and  C_32
REMARK                            x       y       z     vdW  Elec       q    Type
REMARK                         _______ _______ _______ _____ _____    ______ ____
ROOT
ATOM      1  N   UNL     1       0.374  10.398  19.345  0.00  0.00    +0.000 N 
ATOM      2  C   UNL     1       0.621  11.749  19.385  0.00  0.00    +0.000 C 
ATOM      3  O   UNL     1       1.599  12.219  19.971  0.00  0.00    +0.000 OA
ATOM      4  H   UNL     1      -0.336  10.046  18.723  0.00  0.00    +0.000 HD
ENDROOT
BRANCH   2   5
ATOM      5  C   UNL     1      -0.411  12.646  18.688  0.00  0.00    +0.000 C 
ATOM      6  C   UNL     1      -0.363  14.091  19.208  0.00  0.00    +0.000 C 
ATOM      7  C   UNL     1      -0.944  14.195  20.621  0.00  0.00    +0.000 C 
ATOM      8  N   UNL     1      -2.308  13.673  20.645  0.00  0.00    +0.000 N 
ATOM      9  C   UNL     1      -3.367  14.555  20.821  0.00  0.00    +0.000 C 
ATOM     10  O   UNL     1      -3.169  15.769  20.963  0.00  0.00    +0.000 OA
ATOM     11  C   UNL     1      -2.405  12.268  20.246  0.00  0.00    +0.000 C 
ATOM     12  C   UNL     1      -1.841  12.078  18.834  0.00  0.00    +0.000 C 
BRANCH   9  13
ATOM     13  C   UNL     1      -4.823  14.054  20.874  0.00  0.00    +0.000 C 
ATOM     14  C   UNL     1      -5.066  12.864  21.783  0.00  0.00    +0.000 C 
ATOM     15  C   UNL     1      -6.338  12.249  21.225  0.00  0.00    +0.000 C 
ATOM     16  C   UNL     1      -6.430  12.717  19.778  0.00  0.00    +0.000 C 
ATOM     17  N   UNL     1      -5.325  13.643  19.548  0.00  0.00    +0.000 NA
ATOM     18  H   UNL     1      -5.627  14.464  19.025  0.00  0.00    +0.000 HD
ENDBRANCH   9  13
ENDBRANCH   2   5
BRANCH   1  19
ATOM     19  C   UNL     1       1.385   9.453  19.852  0.00  0.00    +0.000 C 
BRANCH  19  21
ATOM     20  N   UNL     1       2.205   7.219  19.112  0.00  0.00    +0.000 N 
ATOM     21  C   UNL     1       1.880   8.499  18.712  0.00  0.00    +0.000 C 
ATOM     22  O   UNL     1       1.919   8.868  17.532  0.00  0.00    +0.000 OA
ATOM     23  H   UNL     1       2.105   6.961  20.085  0.00  0.00    +0.000 HD
BRANCH  20  24
ATOM     24  C   UNL     1       2.594   6.153  18.184  0.00  0.00    +0.000 C 
BRANCH  24  30
ATOM     25  C   UNL     1       3.419   3.739  18.629  0.00  0.00    +0.000 A 
ATOM     26  C   UNL     1       3.180   2.474  19.194  0.00  0.00    +0.000 A 
ATOM     27  C   UNL     1       2.063   2.246  19.999  0.00  0.00    +0.000 A 
ATOM     28  C   UNL     1       1.174   3.281  20.248  0.00  0.00    +0.000 A 
ATOM     29  C   UNL     1       1.371   4.526  19.648  0.00  0.00    +0.000 A 
ATOM     30  C   UNL     1       2.473   4.772  18.804  0.00  0.00    +0.000 A 
BRANCH  25  32
ATOM     31  C   UNL     1       5.699   4.392  18.659  0.00  0.00    +0.000 C 
ATOM     32  O   UNL     1       4.548   4.010  17.896  0.00  0.00    +0.000 OA
ENDBRANCH  25  32
ENDBRANCH  24  30
ENDBRANCH  20  24
ENDBRANCH  19  21
BRANCH  19  33
ATOM     33  C   UNL     1       0.902   8.666  21.095  0.00  0.00    +0.000 C 
ATOM     34  C   UNL     1       1.453   9.256  22.397  0.00  0.00    +0.000 C 
ATOM     35  C   UNL     1      -0.622   8.542  21.214  0.00  0.00    +0.000 C 
ENDBRANCH  19  33
ENDBRANCH   1  19
TORSDOF 8
ENDMDL
MODEL 7
REMARK VINA RESULT:      -6.9      1.121      1.759
REMARK  Name = 
REMARK  11 active torsions:
REMARK  status: ('A' for Active; 'I' for Inactive)
REMARK    1  A    between atoms: C_1  and  O_2
REMARK    2  A    between atoms: O_2  and  C_3
REMARK    3  A    between atoms: C_8  and  C_9
REMARK    4  A    between atoms: C_9  and  N_10
REMARK    5  A    between atoms: C_11  and  C_13
REMARK    6  A    between atoms: C_13  and  N_14
REMARK    7  A    between atoms: C_13  and  C_30
REMARK    8  A    between atoms: C_15  and  C_17
REMARK    9  A    between atoms: C_21  and  C_23
REMARK   10  A    between atoms: C_30  and  C_31
REMARK   11  A    between atoms: C_30  and  C_32
REMARK                            x       y       z     vdW  Elec       q    Type
REMARK                         _______ _______ _______ _____ _____    ______ ____
ROOT
ATOM      1  N   UNL     1       0.110  11.422  20.652  0.00  0.00    +0.000 N 
ATOM      2  C   UNL     1      -0.813  12.349  20.233  0.00  0.00    +0.000 C 
ATOM      3  O   UNL     1      -1.259  12.356  19.084  0.00  0.00    +0.000 OA
ATOM      4  H   UNL     1       0.323  11.348  21.635  0.00  0.00    +0.000 HD
ENDROOT
BRANCH   2   5
ATOM      5  C   UNL     1      -1.232  13.402  21.269  0.00  0.00    +0.000 C 
ATOM      6  C   UNL     1      -1.201  12.845  22.701  0.00  0.00    +0.000 C 
ATOM      7  C   UNL     1      -2.356  11.870  22.945  0.00  0.00    +0.000 C 
ATOM      8  N   UNL     1      -3.633  12.518  22.660  0.00  0.00    +0.000 N 
ATOM      9  C   UNL     1      -4.489  12.817  23.713  0.00  0.00    +0.000 C 
ATOM     10  O   UNL     1      -4.188  12.534  24.880  0.00  0.00    +0.000 OA
ATOM     11  C   UNL     1      -3.756  12.990  21.280  0.00  0.00    +0.000 C 
ATOM     12  C   UNL     1      -2.631  13.978  20.954  0.00  0.00    +0.000 C 
BRANCH   9  13
ATOM     13  C   UNL     1      -5.857  13.483  23.466  0.00  0.00    +0.000 C 
ATOM     14  C   UNL     1      -5.868  14.996  23.563  0.00  0.00    +0.000 C 
ATOM     15  C   UNL     1      -7.321  15.320  23.860  0.00  0.00    +0.000 C 
ATOM     16  C   UNL     1      -7.916  14.055  24.467  0.00  0.00    +0.000 C 
ATOM     17  N   UNL     1      -6.886  13.022  24.420  0.00  0.00    +0.000 NA
ATOM     18  H   UNL     1      -7.266  12.129  24.110  0.00  0.00    +0.000 HD
ENDBRANCH   9  13
ENDBRANCH   2   5
BRANCH   1  19
ATOM     19  C   UNL     1       0.455  10.285  19.779  0.00  0.00    +0.000 C 
BRANCH  19  21
ATOM     20  N   UNL     1       1.484   8.054  20.197  0.00  0.00    +0.000 N 
ATOM     21  C   UNL     1       0.514   8.950  20.597  0.00  0.00    +0.000 C 
ATOM     22  O   UNL     1      -0.229   8.753  21.567  0.00  0.00    +0.000 OA
ATOM     23  H   UNL     1       2.096   8.294  19.428  0.00  0.00    +0.000 HD
BRANCH  20  24
ATOM     24  C   UNL     1       1.762   6.795  20.893  0.00  0.00    +0.000 C 
BRANCH  24  30
ATOM     25  C   UNL     1       2.632   4.414  20.358  0.00  0.00    +0.000 A 
ATOM     26  C   UNL     1       3.269   3.544  19.456  0.00  0.00    +0.000 A 
ATOM     27  C   UNL     1       3.580   3.955  18.160  0.00  0.00    +0.000 A 
ATOM     28  C   UNL     1       3.257   5.240  17.751  0.00  0.00    +0.000 A 
ATOM     29  C   UNL     1       2.674   6.131  18.654  0.00  0.00    +0.000 A 
ATOM     30  C   UNL     1       2.381   5.751  19.980  0.00  0.00    +0.000 A 
BRANCH  25  32
ATOM     31  C   UNL     1       1.549   2.761  21.671  0.00  0.00    +0.000 C 
ATOM     32  O   UNL     1       2.247   4.012  21.613  0.00  0.00    +0.000 OA
ENDBRANCH  25  32
ENDBRANCH  24  30
ENDBRANCH  20  24
ENDBRANCH  19  21
BRANCH  19  33
ATOM     33  C   UNL     1       1.753  10.524  18.968  0.00  0.00    +0.000 C 
ATOM     34  C   UNL     1       1.786   9.692  17.682  0.00  0.00    +0.000 C 
ATOM     35  C   UNL     1       2.020  11.992  18.615  0.00  0.00    +0.000 C 
ENDBRANCH  19  33
ENDBRANCH   1  19
TORSDOF 8
ENDMDL
MODEL 8
REMARK VINA RESULT:      -6.8      3.846      6.437
REMARK  Name = 
REMARK  11 active torsions:
REMARK  status: ('A' for Active; 'I' for Inactive)
REMARK    1  A    between atoms: C_1  and  O_2
REMARK    2  A    between atoms: O_2  and  C_3
REMARK    3  A    between atoms: C_8  and  C_9
REMARK    4  A    between atoms: C_9  and  N_10
REMARK    5  A    between atoms: C_11  and  C_13
REMARK    6  A    between atoms: C_13  and  N_14
REMARK    7  A    between atoms: C_13  and  C_30
REMARK    8  A    between atoms: C_15  and  C_17
REMARK    9  A    between atoms: C_21  and  C_23
REMARK   10  A    between atoms: C_30  and  C_31
REMARK   11  A    between atoms: C_30  and  C_32
REMARK                            x       y       z     vdW  Elec       q    Type
REMARK                         _______ _______ _______ _____ _____    ______ ____
ROOT
ATOM      1  N   UNL     1       1.153  11.365  20.542  0.00  0.00    +0.000 N 
ATOM      2  C   UNL     1       0.378  12.482  20.743  0.00  0.00    +0.000 C 
ATOM      3  O   UNL     1      -0.831  12.492  20.499  0.00  0.00    +0.000 OA
ATOM      4  H   UNL     1       2.093  11.346  20.905  0.00  0.00    +0.000 HD
ENDROOT
BRANCH   2   5
ATOM      5  C   UNL     1       1.110  13.730  21.254  0.00  0.00    +0.000 C 
ATOM      6  C   UNL     1       0.545  15.021  20.641  0.00  0.00    +0.000 C 
ATOM      7  C   UNL     1       0.940  15.158  19.168  0.00  0.00    +0.000 C 
ATOM      8  N   UNL     1       2.393  15.102  19.029  0.00  0.00    +0.000 N 
ATOM      9  C   UNL     1       3.083  16.255  18.674  0.00  0.00    +0.000 C 
ATOM     10  O   UNL     1       2.484  17.319  18.468  0.00  0.00    +0.000 OA
ATOM     11  C   UNL     1       2.981  13.853  19.514  0.00  0.00    +0.000 C 
ATOM     12  C   UNL     1       2.630  13.640  20.990  0.00  0.00    +0.000 C 
BRANCH   9  13
ATOM     13  C   UNL     1       4.614  16.246  18.493  0.00  0.00    +0.000 C 
ATOM     14  C   UNL     1       5.168  15.070  17.713  0.00  0.00    +0.000 C 
ATOM     15  C   UNL     1       6.613  14.991  18.172  0.00  0.00    +0.000 C 
ATOM     16  C   UNL     1       6.660  15.686  19.527  0.00  0.00    +0.000 C 
ATOM     17  N   UNL     1       5.331  16.232  19.784  0.00  0.00    +0.000 NA
ATOM     18  H   UNL     1       5.381  17.178  20.159  0.00  0.00    +0.000 HD
ENDBRANCH   9  13
ENDBRANCH   2   5
BRANCH   1  19
ATOM     19  C   UNL     1       0.515  10.081  20.200  0.00  0.00    +0.000 C 
BRANCH  19  21
ATOM     20  N   UNL     1       1.215   7.703  20.451  0.00  0.00    +0.000 N 
ATOM     21  C   UNL     1       1.083   8.921  21.086  0.00  0.00    +0.000 C 
ATOM     22  O   UNL     1       1.437   9.114  22.256  0.00  0.00    +0.000 OA
ATOM     23  H   UNL     1       0.956   7.619  19.477  0.00  0.00    +0.000 HD
BRANCH  20  24
ATOM     24  C   UNL     1       1.817   6.522  21.078  0.00  0.00    +0.000 C 
BRANCH  24  30
ATOM     25  C   UNL     1       2.758   5.205  19.056  0.00  0.00    +0.000 A 
ATOM     26  C   UNL     1       2.674   4.086  18.208  0.00  0.00    +0.000 A 
ATOM     27  C   UNL     1       1.776   3.052  18.471  0.00  0.00    +0.000 A 
ATOM     28  C   UNL     1       0.953   3.123  19.585  0.00  0.00    +0.000 A 
ATOM     29  C   UNL     1       0.988   4.253  20.403  0.00  0.00    +0.000 A 
ATOM     30  C   UNL     1       1.862   5.328  20.140  0.00  0.00    +0.000 A 
BRANCH  25  32
ATOM     31  C   UNL     1       3.454   7.039  17.722  0.00  0.00    +0.000 C 
ATOM     32  O   UNL     1       3.683   6.200  18.862  0.00  0.00    +0.000 OA
ENDBRANCH  25  32
ENDBRANCH  24  30
ENDBRANCH  20  24
ENDBRANCH  19  21
BRANCH  19  33
ATOM     33  C   UNL     1       0.601   9.750  18.689  0.00  0.00    +0.000 C 
ATOM     34  C   UNL     1      -0.675  10.148  17.942  0.00  0.00    +0.000 C 
ATOM     35  C   UNL     1       1.807  10.370  17.973  0.00  0.00    +0.000 C 
ENDBRANCH  19  33
ENDBRANCH   1  19
TORSDOF 8
ENDMDL
MODEL 9
REMARK VINA RESULT:      -6.8      1.793      2.964
REMARK  Name = 
REMARK  11 active torsions:
REMARK  status: ('A' for Active; 'I' for Inactive)
REMARK    1  A    between atoms: C_1  and  O_2
REMARK    2  A    between atoms: O_2  and  C_3
REMARK    3  A    between atoms: C_8  and  C_9
REMARK    4  A    between atoms: C_9  and  N_10
REMARK    5  A    between atoms: C_11  and  C_13
REMARK    6  A    between atoms: C_13  and  N_14
REMARK    7  A    between atoms: C_13  and  C_30
REMARK    8  A    between atoms: C_15  and  C_17
REMARK    9  A    between atoms: C_21  and  C_23
REMARK   10  A    between atoms: C_30  and  C_31
REMARK   11  A    between atoms: C_30  and  C_32
REMARK                            x       y       z     vdW  Elec       q    Type
REMARK                         _______ _______ _______ _____ _____    ______ ____
ROOT
ATOM      1  N   UNL     1      -0.075  11.128  20.158  0.00  0.00    +0.000 N 
ATOM      2  C   UNL     1       0.117  12.367  20.721  0.00  0.00    +0.000 C 
ATOM      3  O   UNL     1       1.079  12.612  21.452  0.00  0.00    +0.000 OA
ATOM      4  H   UNL     1      -0.775  11.015  19.442  0.00  0.00    +0.000 HD
ENDROOT
BRANCH   2   5
ATOM      5  C   UNL     1      -0.957  13.421  20.417  0.00  0.00    +0.000 C 
ATOM      6  C   UNL     1      -0.914  14.590  21.413  0.00  0.00    +0.000 C 
ATOM      7  C   UNL     1      -1.443  14.171  22.788  0.00  0.00    +0.000 C 
ATOM      8  N   UNL     1      -2.795  13.634  22.666  0.00  0.00    +0.000 N 
ATOM      9  C   UNL     1      -3.862  14.365  23.173  0.00  0.00    +0.000 C 
ATOM     10  O   UNL     1      -3.680  15.456  23.730  0.00  0.00    +0.000 OA
ATOM     11  C   UNL     1      -2.883  12.458  21.798  0.00  0.00    +0.000 C 
ATOM     12  C   UNL     1      -2.370  12.796  20.394  0.00  0.00    +0.000 C 
BRANCH   9  13
ATOM     13  C   UNL     1      -5.307  13.835  23.088  0.00  0.00    +0.000 C 
ATOM     14  C   UNL     1      -6.370  14.888  22.844  0.00  0.00    +0.000 C 
ATOM     15  C   UNL     1      -7.637  14.238  23.372  0.00  0.00    +0.000 C 
ATOM     16  C   UNL     1      -7.181  13.173  24.361  0.00  0.00    +0.000 C 
ATOM     17  N   UNL     1      -5.722  13.138  24.322  0.00  0.00    +0.000 NA
ATOM     18  H   UNL     1      -5.371  12.181  24.310  0.00  0.00    +0.000 HD
ENDBRANCH   9  13
ENDBRANCH   2   5
BRANCH   1  19
ATOM     19  C   UNL     1       0.978  10.102  20.268  0.00  0.00    +0.000 C 
BRANCH  19  21
ATOM     20  N   UNL     1       2.216   8.443  18.880  0.00  0.00    +0.000 N 
ATOM     21  C   UNL     1       1.249   9.428  18.880  0.00  0.00    +0.000 C 
ATOM     22  O   UNL     1       0.593   9.730  17.876  0.00  0.00    +0.000 OA
ATOM     23  H   UNL     1       2.683   8.204  19.745  0.00  0.00    +0.000 HD
BRANCH  20  24
ATOM     24  C   UNL     1       2.545   7.629  17.706  0.00  0.00    +0.000 C 
BRANCH  24  30
ATOM     25  C   UNL     1       3.428   5.630  19.097  0.00  0.00    +0.000 A 
ATOM     26  C   UNL     1       4.450   4.697  19.341  0.00  0.00    +0.000 A 
ATOM     27  C   UNL     1       5.548   4.594  18.486  0.00  0.00    +0.000 A 
ATOM     28  C   UNL     1       5.634   5.422  17.376  0.00  0.00    +0.000 A 
ATOM     29  C   UNL     1       4.653   6.389  17.154  0.00  0.00    +0.000 A 
ATOM     30  C   UNL     1       3.552   6.537  18.022  0.00  0.00    +0.000 A 
BRANCH  25  32
ATOM     31  C   UNL     1       2.211   4.716  20.916  0.00  0.00    +0.000 C 
ATOM     32  O   UNL     1       2.302   5.702  19.880  0.00  0.00    +0.000 OA
ENDBRANCH  25  32
ENDBRANCH  24  30
ENDBRANCH  20  24
ENDBRANCH  19  21
BRANCH  19  33
ATOM     33  C   UNL     1       0.684   9.055  21.372  0.00  0.00    +0.000 C 
ATOM     34  C   UNL     1       1.519   9.302  22.632  0.00  0.00    +0.000 C 
ATOM     35  C   UNL     1      -0.793   8.951  21.770  0.00  0.00    +0.000 C 
ENDBRANCH  19  33
ENDBRANCH   1  19
TORSDOF 8
ENDMDL
