MODEL 1
REMARK VINA RESULT:      -7.9      0.000      0.000
REMARK  Name = 
REMARK  4 active torsions:
REMARK  status: ('A' for Active; 'I' for Inactive)
REMARK    1  A    between atoms: O_1  and  C_2
REMARK    2  A    between atoms: C_6  and  C_7
REMARK    3  A    between atoms: C_10  and  C_11
REMARK    4  A    between atoms: C_11  and  C_12
REMARK                            x       y       z     vdW  Elec       q    Type
REMARK                         _______ _______ _______ _____ _____    ______ ____
ROOT
ATOM      1  C   UNL     1       1.917   7.407  19.760  0.00  0.00    +0.000 A 
ATOM      2  C   UNL     1       2.530   7.534  18.503  0.00  0.00    +0.000 A 
ATOM      3  C   UNL     1       3.127   6.441  17.861  0.00  0.00    +0.000 A 
ATOM      4  C   UNL     1       3.117   5.174  18.451  0.00  0.00    +0.000 A 
ATOM      5  C   UNL     1       2.527   5.031  19.710  0.00  0.00    +0.000 A 
ATOM      6  C   UNL     1       1.941   6.130  20.351  0.00  0.00    +0.000 A 
ENDROOT
BRANCH   1  11
ATOM      7  C   UNL     1       0.508   9.679  22.470  0.00  0.00    +0.000 A 
ATOM      8  C   UNL     1       0.011  10.748  21.736  0.00  0.00    +0.000 A 
ATOM      9  C   UNL     1       0.155  10.741  20.353  0.00  0.00    +0.000 A 
ATOM     10  C   UNL     1       0.789   9.665  19.718  0.00  0.00    +0.000 A 
ATOM     11  C   UNL     1       1.281   8.561  20.443  0.00  0.00    +0.000 A 
ATOM     12  C   UNL     1       1.130   8.600  21.841  0.00  0.00    +0.000 A 
BRANCH   7  13
ATOM     13  O   UNL     1       0.399   9.644  23.830  0.00  0.00    +0.000 OA
ATOM     14  H   UNL     1      -0.406   9.152  24.063  0.00  0.00    +0.000 HD
ENDBRANCH   7  13
ENDBRANCH   1  11
BRANCH   4  15
ATOM     15  C   UNL     1       3.730   3.986  17.748  0.00  0.00    +0.000 C 
BRANCH  15  16
ATOM     16  C   UNL     1       5.134   4.220  17.249  0.00  0.00    +0.000 A 
ATOM     17  C   UNL     1       5.430   4.159  15.883  0.00  0.00    +0.000 A 
ATOM     18  C   UNL     1       6.734   4.385  15.475  0.00  0.00    +0.000 A 
ATOM     19  N   UNL     1       7.752   4.661  16.317  0.00  0.00    +0.000 NA
ATOM     20  C   UNL     1       7.449   4.706  17.634  0.00  0.00    +0.000 A 
ATOM     21  C   UNL     1       6.176   4.495  18.139  0.00  0.00    +0.000 A 
ENDBRANCH  15  16
ENDBRANCH   4  15
TORSDOF 4
ENDMDL
MODEL 2
REMARK VINA RESULT:      -7.9      0.051      1.052
REMARK  Name = 
REMARK  4 active torsions:
REMARK  status: ('A' for Active; 'I' for Inactive)
REMARK    1  A    between atoms: O_1  and  C_2
REMARK    2  A    between atoms: C_6  and  C_7
REMARK    3  A    between atoms: C_10  and  C_11
REMARK    4  A    between atoms: C_11  and  C_12
REMARK                            x       y       z     vdW  Elec       q    Type
REMARK                         _______ _______ _______ _____ _____    ______ ____
ROOT
ATOM      1  C   UNL     1       1.907   7.455  19.752  0.00  0.00    +0.000 A 
ATOM      2  C   UNL     1       2.480   7.572  18.475  0.00  0.00    +0.000 A 
ATOM      3  C   UNL     1       3.071   6.477  17.830  0.00  0.00    +0.000 A 
ATOM      4  C   UNL     1       3.095   5.218  18.437  0.00  0.00    +0.000 A 
ATOM      5  C   UNL     1       2.544   5.086  19.715  0.00  0.00    +0.000 A 
ATOM      6  C   UNL     1       1.964   6.186  20.359  0.00  0.00    +0.000 A 
ENDROOT
BRANCH   1  11
ATOM      7  C   UNL     1       0.517   9.729  22.469  0.00  0.00    +0.000 A 
ATOM      8  C   UNL     1       0.020  10.800  21.738  0.00  0.00    +0.000 A 
ATOM      9  C   UNL     1       0.158  10.793  20.354  0.00  0.00    +0.000 A 
ATOM     10  C   UNL     1       0.786   9.716  19.715  0.00  0.00    +0.000 A 
ATOM     11  C   UNL     1       1.277   8.610  20.438  0.00  0.00    +0.000 A 
ATOM     12  C   UNL     1       1.132   8.648  21.837  0.00  0.00    +0.000 A 
BRANCH   7  13
ATOM     13  O   UNL     1       0.413   9.693  23.830  0.00  0.00    +0.000 OA
ATOM     14  H   UNL     1       0.297   8.770  24.107  0.00  0.00    +0.000 HD
ENDBRANCH   7  13
ENDBRANCH   1  11
BRANCH   4  15
ATOM     15  C   UNL     1       3.701   4.028  17.731  0.00  0.00    +0.000 C 
BRANCH  15  16
ATOM     16  C   UNL     1       5.109   4.252  17.239  0.00  0.00    +0.000 A 
ATOM     17  C   UNL     1       6.144   4.544  18.134  0.00  0.00    +0.000 A 
ATOM     18  C   UNL     1       7.420   4.738  17.632  0.00  0.00    +0.000 A 
ATOM     19  N   UNL     1       7.737   4.664  16.322  0.00  0.00    +0.000 NA
ATOM     20  C   UNL     1       6.722   4.391  15.472  0.00  0.00    +0.000 A 
ATOM     21  C   UNL     1       5.414   4.181  15.877  0.00  0.00    +0.000 A 
ENDBRANCH  15  16
ENDBRANCH   4  15
TORSDOF 4
ENDMDL
MODEL 3
REMARK VINA RESULT:      -7.9      0.093      1.503
REMARK  Name = 
REMARK  4 active torsions:
REMARK  status: ('A' for Active; 'I' for Inactive)
REMARK    1  A    between atoms: O_1  and  C_2
REMARK    2  A    between atoms: C_6  and  C_7
REMARK    3  A    between atoms: C_10  and  C_11
REMARK    4  A    between atoms: C_11  and  C_12
REMARK                            x       y       z     vdW  Elec       q    Type
REMARK                         _______ _______ _______ _____ _____    ______ ____
ROOT
ATOM      1  C   UNL     1       1.925   7.381  19.780  0.00  0.00    +0.000 A 
ATOM      2  C   UNL     1       1.960   6.123  20.402  0.00  0.00    +0.000 A 
ATOM      3  C   UNL     1       2.532   5.008  19.775  0.00  0.00    +0.000 A 
ATOM      4  C   UNL     1       3.105   5.118  18.505  0.00  0.00    +0.000 A 
ATOM      5  C   UNL     1       3.064   6.359  17.863  0.00  0.00    +0.000 A 
ATOM      6  C   UNL     1       2.482   7.467  18.491  0.00  0.00    +0.000 A 
ENDROOT
BRANCH   1  11
ATOM      7  C   UNL     1       0.518   9.717  22.437  0.00  0.00    +0.000 A 
ATOM      8  C   UNL     1       0.120  10.816  21.688  0.00  0.00    +0.000 A 
ATOM      9  C   UNL     1       0.331  10.808  20.314  0.00  0.00    +0.000 A 
ATOM     10  C   UNL     1       0.932   9.701  19.701  0.00  0.00    +0.000 A 
ATOM     11  C   UNL     1       1.323   8.567  20.441  0.00  0.00    +0.000 A 
ATOM     12  C   UNL     1       1.106   8.607  21.830  0.00  0.00    +0.000 A 
BRANCH   7  13
ATOM     13  O   UNL     1       0.341   9.680  23.790  0.00  0.00    +0.000 OA
ATOM     14  H   UNL     1      -0.612   9.681  23.977  0.00  0.00    +0.000 HD
ENDBRANCH   7  13
ENDBRANCH   1  11
BRANCH   4  15
ATOM     15  C   UNL     1       3.752   3.926  17.840  0.00  0.00    +0.000 C 
BRANCH  15  16
ATOM     16  C   UNL     1       5.148   4.184  17.332  0.00  0.00    +0.000 A 
ATOM     17  C   UNL     1       6.183   4.512  18.213  0.00  0.00    +0.000 A 
ATOM     18  C   UNL     1       7.449   4.736  17.696  0.00  0.00    +0.000 A 
ATOM     19  N   UNL     1       7.755   4.658  16.384  0.00  0.00    +0.000 NA
ATOM     20  C   UNL     1       6.739   4.350  15.547  0.00  0.00    +0.000 A 
ATOM     21  C   UNL     1       5.441   4.108  15.967  0.00  0.00    +0.000 A 
ENDBRANCH  15  16
ENDBRANCH   4  15
TORSDOF 4
ENDMDL
MODEL 4
REMARK VINA RESULT:      -7.9      0.108      1.078
REMARK  Name = 
REMARK  4 active torsions:
REMARK  status: ('A' for Active; 'I' for Inactive)
REMARK    1  A    between atoms: O_1  and  C_2
REMARK    2  A    between atoms: C_6  and  C_7
REMARK    3  A    between atoms: C_10  and  C_11
REMARK    4  A    between atoms: C_11  and  C_12
REMARK                            x       y       z     vdW  Elec       q    Type
REMARK                         _______ _______ _______ _____ _____    ______ ____
ROOT
ATOM      1  C   UNL     1       1.897   7.362  19.836  0.00  0.00    +0.000 A 
ATOM      2  C   UNL     1       1.893   6.095  20.441  0.00  0.00    +0.000 A 
ATOM      3  C   UNL     1       2.475   4.981  19.821  0.00  0.00    +0.000 A 
ATOM      4  C   UNL     1       3.098   5.102  18.576  0.00  0.00    +0.000 A 
ATOM      5  C   UNL     1       3.098   6.352  17.951  0.00  0.00    +0.000 A 
ATOM      6  C   UNL     1       2.506   7.459  18.571  0.00  0.00    +0.000 A 
ENDROOT
BRANCH   1  11
ATOM      7  C   UNL     1       0.483   9.706  22.482  0.00  0.00    +0.000 A 
ATOM      8  C   UNL     1       0.062  10.792  21.725  0.00  0.00    +0.000 A 
ATOM      9  C   UNL     1       0.259  10.771  20.348  0.00  0.00    +0.000 A 
ATOM     10  C   UNL     1       0.870   9.666  19.742  0.00  0.00    +0.000 A 
ATOM     11  C   UNL     1       1.285   8.546  20.490  0.00  0.00    +0.000 A 
ATOM     12  C   UNL     1       1.082   8.598  21.881  0.00  0.00    +0.000 A 
BRANCH   7  13
ATOM     13  O   UNL     1       0.320   9.682  23.837  0.00  0.00    +0.000 OA
ATOM     14  H   UNL     1       0.684  10.503  24.207  0.00  0.00    +0.000 HD
ENDBRANCH   7  13
ENDBRANCH   1  11
BRANCH   4  15
ATOM     15  C   UNL     1       3.756   3.911  17.919  0.00  0.00    +0.000 C 
BRANCH  15  16
ATOM     16  C   UNL     1       5.117   4.199  17.338  0.00  0.00    +0.000 A 
ATOM     17  C   UNL     1       5.333   4.155  15.957  0.00  0.00    +0.000 A 
ATOM     18  C   UNL     1       6.601   4.430  15.473  0.00  0.00    +0.000 A 
ATOM     19  N   UNL     1       7.657   4.741  16.254  0.00  0.00    +0.000 NA
ATOM     20  C   UNL     1       7.432   4.769  17.587  0.00  0.00    +0.000 A 
ATOM     21  C   UNL     1       6.200   4.509  18.166  0.00  0.00    +0.000 A 
ENDBRANCH  15  16
ENDBRANCH   4  15
TORSDOF 4
ENDMDL
MODEL 5
REMARK VINA RESULT:      -7.5      4.253      7.719
REMARK  Name = 
REMARK  4 active torsions:
REMARK  status: ('A' for Active; 'I' for Inactive)
REMARK    1  A    between atoms: O_1  and  C_2
REMARK    2  A    between atoms: C_6  and  C_7
REMARK    3  A    between atoms: C_10  and  C_11
REMARK    4  A    between atoms: C_11  and  C_12
REMARK                            x       y       z     vdW  Elec       q    Type
REMARK                         _______ _______ _______ _____ _____    ______ ____
ROOT
ATOM      1  C   UNL     1       2.221   6.590  19.702  0.00  0.00    +0.000 A 
ATOM      2  C   UNL     1       1.589   7.444  20.621  0.00  0.00    +0.000 A 
ATOM      3  C   UNL     1       1.215   8.749  20.276  0.00  0.00    +0.000 A 
ATOM      4  C   UNL     1       1.448   9.242  18.989  0.00  0.00    +0.000 A 
ATOM      5  C   UNL     1       2.090   8.413  18.065  0.00  0.00    +0.000 A 
ATOM      6  C   UNL     1       2.470   7.112  18.419  0.00  0.00    +0.000 A 
ENDROOT
BRANCH   1  11
ATOM      7  C   UNL     1       4.091   3.276  19.817  0.00  0.00    +0.000 A 
ATOM      8  C   UNL     1       3.331   2.535  20.713  0.00  0.00    +0.000 A 
ATOM      9  C   UNL     1       2.217   3.124  21.300  0.00  0.00    +0.000 A 
ATOM     10  C   UNL     1       1.870   4.443  20.984  0.00  0.00    +0.000 A 
ATOM     11  C   UNL     1       2.616   5.205  20.061  0.00  0.00    +0.000 A 
ATOM     12  C   UNL     1       3.742   4.587  19.490  0.00  0.00    +0.000 A 
BRANCH   7  13
ATOM     13  O   UNL     1       5.198   2.746  19.220  0.00  0.00    +0.000 OA
ATOM     14  H   UNL     1       5.760   3.474  18.908  0.00  0.00    +0.000 HD
ENDBRANCH   7  13
ENDBRANCH   1  11
BRANCH   4  15
ATOM     15  C   UNL     1       1.016  10.637  18.603  0.00  0.00    +0.000 C 
BRANCH  15  16
ATOM     16  C   UNL     1      -0.477  10.814  18.490  0.00  0.00    +0.000 A 
ATOM     17  C   UNL     1      -1.233  10.008  17.632  0.00  0.00    +0.000 A 
ATOM     18  C   UNL     1      -2.602  10.208  17.567  0.00  0.00    +0.000 A 
ATOM     19  N   UNL     1      -3.265  11.139  18.284  0.00  0.00    +0.000 NA
ATOM     20  C   UNL     1      -2.516  11.915  19.100  0.00  0.00    +0.000 A 
ATOM     21  C   UNL     1      -1.143  11.792  19.235  0.00  0.00    +0.000 A 
ENDBRANCH  15  16
ENDBRANCH   4  15
TORSDOF 4
ENDMDL
MODEL 6
REMARK VINA RESULT:      -7.5      4.974      8.338
REMARK  Name = 
REMARK  4 active torsions:
REMARK  status: ('A' for Active; 'I' for Inactive)
REMARK    1  A    between atoms: O_1  and  C_2
REMARK    2  A    between atoms: C_6  and  C_7
REMARK    3  A    between atoms: C_10  and  C_11
REMARK    4  A    between atoms: C_11  and  C_12
REMARK                            x       y       z     vdW  Elec       q    Type
REMARK                         _______ _______ _______ _____ _____    ______ ____
ROOT
ATOM      1  C   UNL     1       5.400   4.925  15.654  0.00  0.00    +0.000 A 
ATOM      2  C   UNL     1       5.085   3.925  16.589  0.00  0.00    +0.000 A 
ATOM      3  C   UNL     1       4.463   4.228  17.808  0.00  0.00    +0.000 A 
ATOM      4  C   UNL     1       4.120   5.545  18.127  0.00  0.00    +0.000 A 
ATOM      5  C   UNL     1       4.440   6.555  17.216  0.00  0.00    +0.000 A 
ATOM      6  C   UNL     1       5.071   6.247  16.004  0.00  0.00    +0.000 A 
ENDROOT
BRANCH   1  11
ATOM      7  C   UNL     1       6.245   3.256  12.338  0.00  0.00    +0.000 A 
ATOM      8  C   UNL     1       7.352   3.979  11.913  0.00  0.00    +0.000 A 
ATOM      9  C   UNL     1       7.814   5.030  12.699  0.00  0.00    +0.000 A 
ATOM     10  C   UNL     1       7.168   5.345  13.901  0.00  0.00    +0.000 A 
ATOM     11  C   UNL     1       6.056   4.609  14.360  0.00  0.00    +0.000 A 
ATOM     12  C   UNL     1       5.606   3.558  13.541  0.00  0.00    +0.000 A 
BRANCH   7  13
ATOM     13  O   UNL     1       5.750   2.221  11.599  0.00  0.00    +0.000 OA
ATOM     14  H   UNL     1       6.174   1.399  11.894  0.00  0.00    +0.000 HD
ENDBRANCH   7  13
ENDBRANCH   1  11
BRANCH   4  15
ATOM     15  C   UNL     1       3.419   5.870  19.425  0.00  0.00    +0.000 C 
BRANCH  15  16
ATOM     16  C   UNL     1       2.554   4.757  19.957  0.00  0.00    +0.000 A 
ATOM     17  C   UNL     1       1.550   4.187  19.166  0.00  0.00    +0.000 A 
ATOM     18  C   UNL     1       0.784   3.164  19.700  0.00  0.00    +0.000 A 
ATOM     19  N   UNL     1       0.942   2.673  20.948  0.00  0.00    +0.000 NA
ATOM     20  C   UNL     1       1.909   3.243  21.700  0.00  0.00    +0.000 A 
ATOM     21  C   UNL     1       2.727   4.270  21.256  0.00  0.00    +0.000 A 
ENDBRANCH  15  16
ENDBRANCH   4  15
TORSDOF 4
ENDMDL
MODEL 7
REMARK VINA RESULT:      -7.5      4.713      8.207
REMARK  Name = 
REMARK  4 active torsions:
REMARK  status: ('A' for Active; 'I' for Inactive)
REMARK    1  A    between atoms: O_1  and  C_2
REMARK    2  A    between atoms: C_6  and  C_7
REMARK    3  A    between atoms: C_10  and  C_11
REMARK    4  A    between atoms: C_11  and  C_12
REMARK                            x       y       z     vdW  Elec       q    Type
REMARK                         _______ _______ _______ _____ _____    ______ ____
ROOT
ATOM      1  C   UNL     1       5.168   5.120  15.785  0.00  0.00    +0.000 A 
ATOM      2  C   UNL     1       4.587   4.104  16.561  0.00  0.00    +0.000 A 
ATOM      3  C   UNL     1       3.829   4.392  17.703  0.00  0.00    +0.000 A 
ATOM      4  C   UNL     1       3.612   5.714  18.101  0.00  0.00    +0.000 A 
ATOM      5  C   UNL     1       4.195   6.739  17.351  0.00  0.00    +0.000 A 
ATOM      6  C   UNL     1       4.961   6.444  16.215  0.00  0.00    +0.000 A 
ENDROOT
BRANCH   1  11
ATOM      7  C   UNL     1       7.903   5.223  13.139  0.00  0.00    +0.000 A 
ATOM      8  C   UNL     1       7.466   4.279  12.220  0.00  0.00    +0.000 A 
ATOM      9  C   UNL     1       6.285   3.589  12.472  0.00  0.00    +0.000 A 
ATOM     10  C   UNL     1       5.553   3.851  13.636  0.00  0.00    +0.000 A 
ATOM     11  C   UNL     1       5.969   4.820  14.571  0.00  0.00    +0.000 A 
ATOM     12  C   UNL     1       7.171   5.496  14.295  0.00  0.00    +0.000 A 
BRANCH   7  13
ATOM     13  O   UNL     1       9.059   5.921  12.941  0.00  0.00    +0.000 OA
ATOM     14  H   UNL     1       9.441   5.651  12.090  0.00  0.00    +0.000 HD
ENDBRANCH   7  13
ENDBRANCH   1  11
BRANCH   4  15
ATOM     15  C   UNL     1       2.768   6.031  19.313  0.00  0.00    +0.000 C 
BRANCH  15  16
ATOM     16  C   UNL     1       2.202   4.817  20.007  0.00  0.00    +0.000 A 
ATOM     17  C   UNL     1       2.693   4.407  21.251  0.00  0.00    +0.000 A 
ATOM     18  C   UNL     1       2.137   3.287  21.848  0.00  0.00    +0.000 A 
ATOM     19  N   UNL     1       1.142   2.556  21.304  0.00  0.00    +0.000 NA
ATOM     20  C   UNL     1       0.688   2.961  20.097  0.00  0.00    +0.000 A 
ATOM     21  C   UNL     1       1.178   4.067  19.421  0.00  0.00    +0.000 A 
ENDBRANCH  15  16
ENDBRANCH   4  15
TORSDOF 4
ENDMDL
MODEL 8
REMARK VINA RESULT:      -7.5      4.918      8.379
REMARK  Name = 
REMARK  4 active torsions:
REMARK  status: ('A' for Active; 'I' for Inactive)
REMARK    1  A    between atoms: O_1  and  C_2
REMARK    2  A    between atoms: C_6  and  C_7
REMARK    3  A    between atoms: C_10  and  C_11
REMARK    4  A    between atoms: C_11  and  C_12
REMARK                            x       y       z     vdW  Elec       q    Type
REMARK                         _______ _______ _______ _____ _____    ______ ____
ROOT
ATOM      1  C   UNL     1       5.285   4.977  15.629  0.00  0.00    +0.000 A 
ATOM      2  C   UNL     1       4.767   3.982  16.475  0.00  0.00    +0.000 A 
ATOM      3  C   UNL     1       4.100   4.302  17.665  0.00  0.00    +0.000 A 
ATOM      4  C   UNL     1       3.914   5.635  18.043  0.00  0.00    +0.000 A 
ATOM      5  C   UNL     1       4.437   6.638  17.223  0.00  0.00    +0.000 A 
ATOM      6  C   UNL     1       5.112   6.311  16.040  0.00  0.00    +0.000 A 
ENDROOT
BRANCH   1  11
ATOM      7  C   UNL     1       6.248   3.270  12.366  0.00  0.00    +0.000 A 
ATOM      8  C   UNL     1       7.378   3.978  11.980  0.00  0.00    +0.000 A 
ATOM      9  C   UNL     1       7.817   5.033  12.774  0.00  0.00    +0.000 A 
ATOM     10  C   UNL     1       7.126   5.365  13.946  0.00  0.00    +0.000 A 
ATOM     11  C   UNL     1       5.990   4.644  14.366  0.00  0.00    +0.000 A 
ATOM     12  C   UNL     1       5.564   3.589  13.539  0.00  0.00    +0.000 A 
BRANCH   7  13
ATOM     13  O   UNL     1       5.774   2.232  11.617  0.00  0.00    +0.000 OA
ATOM     14  H   UNL     1       4.869   2.029  11.907  0.00  0.00    +0.000 HD
ENDBRANCH   7  13
ENDBRANCH   1  11
BRANCH   4  15
ATOM     15  C   UNL     1       3.167   5.984  19.309  0.00  0.00    +0.000 C 
BRANCH  15  16
ATOM     16  C   UNL     1       2.436   4.824  19.936  0.00  0.00    +0.000 A 
ATOM     17  C   UNL     1       2.789   4.356  21.206  0.00  0.00    +0.000 A 
ATOM     18  C   UNL     1       2.085   3.289  21.740  0.00  0.00    +0.000 A 
ATOM     19  N   UNL     1       1.069   2.662  21.110  0.00  0.00    +0.000 NA
ATOM     20  C   UNL     1       0.750   3.122  19.879  0.00  0.00    +0.000 A 
ATOM     21  C   UNL     1       1.393   4.182  19.262  0.00  0.00    +0.000 A 
ENDBRANCH  15  16
ENDBRANCH   4  15
TORSDOF 4
ENDMDL
MODEL 9
REMARK VINA RESULT:      -7.5      1.057      1.505
REMARK  Name = 
REMARK  4 active torsions:
REMARK  status: ('A' for Active; 'I' for Inactive)
REMARK    1  A    between atoms: O_1  and  C_2
REMARK    2  A    between atoms: C_6  and  C_7
REMARK    3  A    between atoms: C_10  and  C_11
REMARK    4  A    between atoms: C_11  and  C_12
REMARK                            x       y       z     vdW  Elec       q    Type
REMARK                         _______ _______ _______ _____ _____    ______ ____
ROOT
ATOM      1  C   UNL     1       1.916   7.376  19.784  0.00  0.00    +0.000 A 
ATOM      2  C   UNL     1       2.533   7.512  18.529  0.00  0.00    +0.000 A 
ATOM      3  C   UNL     1       3.133   6.423  17.882  0.00  0.00    +0.000 A 
ATOM      4  C   UNL     1       3.123   5.153  18.465  0.00  0.00    +0.000 A 
ATOM      5  C   UNL     1       2.529   5.001  19.720  0.00  0.00    +0.000 A 
ATOM      6  C   UNL     1       1.939   6.095  20.366  0.00  0.00    +0.000 A 
ENDROOT
BRANCH   1  11
ATOM      7  C   UNL     1       0.286  10.755  20.429  0.00  0.00    +0.000 A 
ATOM      8  C   UNL     1       0.102  10.740  21.806  0.00  0.00    +0.000 A 
ATOM      9  C   UNL     1       0.490   9.615  22.526  0.00  0.00    +0.000 A 
ATOM     10  C   UNL     1       1.061   8.520  21.865  0.00  0.00    +0.000 A 
ATOM     11  C   UNL     1       1.275   8.524  20.472  0.00  0.00    +0.000 A 
ATOM     12  C   UNL     1       0.865   9.671  19.768  0.00  0.00    +0.000 A 
BRANCH   7  13
ATOM     13  O   UNL     1      -0.086  11.832  19.677  0.00  0.00    +0.000 OA
ATOM     14  H   UNL     1      -1.055  11.863  19.640  0.00  0.00    +0.000 HD
ENDBRANCH   7  13
ENDBRANCH   1  11
BRANCH   4  15
ATOM     15  C   UNL     1       3.740   3.970  17.755  0.00  0.00    +0.000 C 
BRANCH  15  16
ATOM     16  C   UNL     1       5.137   4.216  17.245  0.00  0.00    +0.000 A 
ATOM     17  C   UNL     1       5.424   4.147  15.877  0.00  0.00    +0.000 A 
ATOM     18  C   UNL     1       6.723   4.384  15.458  0.00  0.00    +0.000 A 
ATOM     19  N   UNL     1       7.744   4.680  16.290  0.00  0.00    +0.000 NA
ATOM     20  C   UNL     1       7.449   4.731  17.609  0.00  0.00    +0.000 A 
ATOM     21  C   UNL     1       6.183   4.510  18.125  0.00  0.00    +0.000 A 
ENDBRANCH  15  16
ENDBRANCH   4  15
TORSDOF 4
ENDMDL
