MODEL 1
REMARK VINA RESULT:      -6.6      0.000      0.000
REMARK  Name = 
REMARK  6 active torsions:
REMARK  status: ('A' for Active; 'I' for Inactive)
REMARK    1  A    between atoms: C_1  and  C_2
REMARK    2  A    between atoms: C_2  and  N_3
REMARK    3  A    between atoms: C_7  and  C_8
REMARK    4  A    between atoms: C_8  and  N_9
REMARK    5  A    between atoms: C_13  and  C_14
REMARK    6  A    between atoms: N_18  and  C_19
REMARK                            x       y       z     vdW  Elec       q    Type
REMARK                         _______ _______ _______ _____ _____    ______ ____
ROOT
ATOM      1  N   UNL     1       3.820   5.647  18.569  0.00  0.00    +0.000 N 
ATOM      2  C   UNL     1       3.743   6.771  17.783  0.00  0.00    +0.000 A 
ATOM      3  C   UNL     1       2.789   7.559  18.373  0.00  0.00    +0.000 A 
ATOM      4  N   UNL     1       2.189   6.894  19.402  0.00  0.00    +0.000 NA
ATOM      5  C   UNL     1       2.743   5.694  19.432  0.00  0.00    +0.000 A 
ENDROOT
BRANCH   5   6
ATOM      6  C   UNL     1       2.212   4.589  20.182  0.00  0.00    +0.000 A 
ATOM      7  N   UNL     1       2.387   4.389  21.477  0.00  0.00    +0.000 NA
ATOM      8  C   UNL     1       1.831   3.158  21.744  0.00  0.00    +0.000 A 
ATOM      9  C   UNL     1       1.299   2.607  20.605  0.00  0.00    +0.000 A 
ATOM     10  N   UNL     1       1.539   3.526  19.618  0.00  0.00    +0.000 N 
ATOM     11  C   UNL     1       1.217   3.351  18.221  0.00  0.00    +0.000 C 
ENDBRANCH   5   6
BRANCH   1  12
ATOM     12  C   UNL     1       4.798   4.567  18.488  0.00  0.00    +0.000 C 
BRANCH  12  17
ATOM     13  N   UNL     1       6.859   5.185  17.061  0.00  0.00    +0.000 N 
ATOM     14  C   UNL     1       7.283   4.871  15.795  0.00  0.00    +0.000 A 
ATOM     15  N   UNL     1       6.426   4.103  15.168  0.00  0.00    +0.000 NA
ATOM     16  C   UNL     1       5.409   3.905  16.057  0.00  0.00    +0.000 A 
ATOM     17  C   UNL     1       5.641   4.566  17.249  0.00  0.00    +0.000 A 
BRANCH  13  19
ATOM     18  C   UNL     1       7.554   7.536  17.511  0.00  0.00    +0.000 C 
ATOM     19  C   UNL     1       7.594   6.080  17.936  0.00  0.00    +0.000 C 
ENDBRANCH  13  19
ENDBRANCH  12  17
ENDBRANCH   1  12
TORSDOF 4
ENDMDL
MODEL 2
REMARK VINA RESULT:      -6.4      1.932      5.605
REMARK  Name = 
REMARK  6 active torsions:
REMARK  status: ('A' for Active; 'I' for Inactive)
REMARK    1  A    between atoms: C_1  and  C_2
REMARK    2  A    between atoms: C_2  and  N_3
REMARK    3  A    between atoms: C_7  and  C_8
REMARK    4  A    between atoms: C_8  and  N_9
REMARK    5  A    between atoms: C_13  and  C_14
REMARK    6  A    between atoms: N_18  and  C_19
REMARK                            x       y       z     vdW  Elec       q    Type
REMARK                         _______ _______ _______ _____ _____    ______ ____
ROOT
ATOM      1  N   UNL     1       3.126   4.891  18.657  0.00  0.00    +0.000 N 
ATOM      2  C   UNL     1       2.105   4.219  18.030  0.00  0.00    +0.000 A 
ATOM      3  C   UNL     1       2.708   3.175  17.378  0.00  0.00    +0.000 A 
ATOM      4  N   UNL     1       4.065   3.271  17.472  0.00  0.00    +0.000 NA
ATOM      5  C   UNL     1       4.306   4.381  18.150  0.00  0.00    +0.000 A 
ENDROOT
BRANCH   5   6
ATOM      6  C   UNL     1       5.599   4.999  18.236  0.00  0.00    +0.000 A 
ATOM      7  N   UNL     1       6.420   4.915  19.269  0.00  0.00    +0.000 NA
ATOM      8  C   UNL     1       7.469   5.760  18.982  0.00  0.00    +0.000 A 
ATOM      9  C   UNL     1       7.295   6.354  17.758  0.00  0.00    +0.000 A 
ATOM     10  N   UNL     1       6.108   5.861  17.287  0.00  0.00    +0.000 N 
ATOM     11  C   UNL     1       5.473   6.256  16.052  0.00  0.00    +0.000 C 
ENDBRANCH   5   6
BRANCH   1  12
ATOM     12  C   UNL     1       3.017   5.978  19.624  0.00  0.00    +0.000 C 
BRANCH  12  17
ATOM     13  N   UNL     1       1.736   8.217  19.728  0.00  0.00    +0.000 N 
ATOM     14  C   UNL     1       1.528   9.250  18.849  0.00  0.00    +0.000 A 
ATOM     15  N   UNL     1       2.093   9.026  17.689  0.00  0.00    +0.000 NA
ATOM     16  C   UNL     1       2.694   7.805  17.814  0.00  0.00    +0.000 A 
ATOM     17  C   UNL     1       2.491   7.267  19.072  0.00  0.00    +0.000 A 
BRANCH  13  19
ATOM     18  C   UNL     1      -0.046   9.100  21.231  0.00  0.00    +0.000 C 
ATOM     19  C   UNL     1       1.153   8.188  21.057  0.00  0.00    +0.000 C 
ENDBRANCH  13  19
ENDBRANCH  12  17
ENDBRANCH   1  12
TORSDOF 4
ENDMDL
MODEL 3
REMARK VINA RESULT:      -6.4      1.297      3.001
REMARK  Name = 
REMARK  6 active torsions:
REMARK  status: ('A' for Active; 'I' for Inactive)
REMARK    1  A    between atoms: C_1  and  C_2
REMARK    2  A    between atoms: C_2  and  N_3
REMARK    3  A    between atoms: C_7  and  C_8
REMARK    4  A    between atoms: C_8  and  N_9
REMARK    5  A    between atoms: C_13  and  C_14
REMARK    6  A    between atoms: N_18  and  C_19
REMARK                            x       y       z     vdW  Elec       q    Type
REMARK                         _______ _______ _______ _____ _____    ______ ____
ROOT
ATOM      1  N   UNL     1       3.839   3.426  18.289  0.00  0.00    +0.000 N 
ATOM      2  C   UNL     1       3.515   2.093  18.211  0.00  0.00    +0.000 A 
ATOM      3  C   UNL     1       2.201   2.064  17.824  0.00  0.00    +0.000 A 
ATOM      4  N   UNL     1       1.680   3.324  17.802  0.00  0.00    +0.000 NA
ATOM      5  C   UNL     1       2.652   4.127  18.201  0.00  0.00    +0.000 A 
ENDROOT
BRANCH   5   6
ATOM      6  C   UNL     1       2.449   5.497  18.583  0.00  0.00    +0.000 A 
ATOM      7  N   UNL     1       2.625   6.545  17.796  0.00  0.00    +0.000 NA
ATOM      8  C   UNL     1       2.455   7.649  18.600  0.00  0.00    +0.000 A 
ATOM      9  C   UNL     1       2.158   7.274  19.886  0.00  0.00    +0.000 A 
ATOM     10  N   UNL     1       2.150   5.905  19.865  0.00  0.00    +0.000 N 
ATOM     11  C   UNL     1       1.950   5.055  21.016  0.00  0.00    +0.000 C 
ENDBRANCH   5   6
BRANCH   1  12
ATOM     12  C   UNL     1       5.159   4.013  18.492  0.00  0.00    +0.000 C 
BRANCH  12  17
ATOM     13  N   UNL     1       6.897   5.327  17.106  0.00  0.00    +0.000 N 
ATOM     14  C   UNL     1       7.279   5.325  15.788  0.00  0.00    +0.000 A 
ATOM     15  N   UNL     1       6.579   4.477  15.077  0.00  0.00    +0.000 NA
ATOM     16  C   UNL     1       5.710   3.902  15.961  0.00  0.00    +0.000 A 
ATOM     17  C   UNL     1       5.877   4.408  17.237  0.00  0.00    +0.000 A 
BRANCH  13  19
ATOM     18  C   UNL     1       7.659   7.650  17.592  0.00  0.00    +0.000 C 
ATOM     19  C   UNL     1       7.469   6.229  18.088  0.00  0.00    +0.000 C 
ENDBRANCH  13  19
ENDBRANCH  12  17
ENDBRANCH   1  12
TORSDOF 4
ENDMDL
MODEL 4
REMARK VINA RESULT:      -6.4      1.722      5.479
REMARK  Name = 
REMARK  6 active torsions:
REMARK  status: ('A' for Active; 'I' for Inactive)
REMARK    1  A    between atoms: C_1  and  C_2
REMARK    2  A    between atoms: C_2  and  N_3
REMARK    3  A    between atoms: C_7  and  C_8
REMARK    4  A    between atoms: C_8  and  N_9
REMARK    5  A    between atoms: C_13  and  C_14
REMARK    6  A    between atoms: N_18  and  C_19
REMARK                            x       y       z     vdW  Elec       q    Type
REMARK                         _______ _______ _______ _____ _____    ______ ____
ROOT
ATOM      1  N   UNL     1       3.441   4.103  18.677  0.00  0.00    +0.000 N 
ATOM      2  C   UNL     1       2.711   2.950  18.835  0.00  0.00    +0.000 A 
ATOM      3  C   UNL     1       3.518   2.108  19.555  0.00  0.00    +0.000 A 
ATOM      4  N   UNL     1       4.757   2.655  19.717  0.00  0.00    +0.000 NA
ATOM      5  C   UNL     1       4.731   3.812  19.078  0.00  0.00    +0.000 A 
ENDROOT
BRANCH   5   6
ATOM      6  C   UNL     1       5.906   4.578  18.767  0.00  0.00    +0.000 A 
ATOM      7  N   UNL     1       6.566   5.346  19.617  0.00  0.00    +0.000 NA
ATOM      8  C   UNL     1       7.527   5.990  18.871  0.00  0.00    +0.000 A 
ATOM      9  C   UNL     1       7.463   5.602  17.556  0.00  0.00    +0.000 A 
ATOM     10  N   UNL     1       6.435   4.700  17.500  0.00  0.00    +0.000 N 
ATOM     11  C   UNL     1       5.947   4.068  16.296  0.00  0.00    +0.000 C 
ENDBRANCH   5   6
BRANCH   1  12
ATOM     12  C   UNL     1       2.988   5.379  18.134  0.00  0.00    +0.000 C 
BRANCH  12  17
ATOM     13  N   UNL     1       2.204   7.687  18.988  0.00  0.00    +0.000 N 
ATOM     14  C   UNL     1       1.636   8.142  20.151  0.00  0.00    +0.000 A 
ATOM     15  N   UNL     1       1.484   7.181  21.030  0.00  0.00    +0.000 NA
ATOM     16  C   UNL     1       1.967   6.059  20.418  0.00  0.00    +0.000 A 
ATOM     17  C   UNL     1       2.428   6.334  19.144  0.00  0.00    +0.000 A 
BRANCH  13  19
ATOM     18  C   UNL     1       1.828   9.903  17.911  0.00  0.00    +0.000 C 
ATOM     19  C   UNL     1       2.544   8.565  17.884  0.00  0.00    +0.000 C 
ENDBRANCH  13  19
ENDBRANCH  12  17
ENDBRANCH   1  12
TORSDOF 4
ENDMDL
MODEL 5
REMARK VINA RESULT:      -6.3      2.002      6.067
REMARK  Name = 
REMARK  6 active torsions:
REMARK  status: ('A' for Active; 'I' for Inactive)
REMARK    1  A    between atoms: C_1  and  C_2
REMARK    2  A    between atoms: C_2  and  N_3
REMARK    3  A    between atoms: C_7  and  C_8
REMARK    4  A    between atoms: C_8  and  N_9
REMARK    5  A    between atoms: C_13  and  C_14
REMARK    6  A    between atoms: N_18  and  C_19
REMARK                            x       y       z     vdW  Elec       q    Type
REMARK                         _______ _______ _______ _____ _____    ______ ____
ROOT
ATOM      1  N   UNL     1       5.365   4.990  16.348  0.00  0.00    +0.000 N 
ATOM      2  C   UNL     1       5.215   4.267  15.189  0.00  0.00    +0.000 A 
ATOM      3  C   UNL     1       6.482   4.135  14.681  0.00  0.00    +0.000 A 
ATOM      4  N   UNL     1       7.370   4.869  15.412  0.00  0.00    +0.000 NA
ATOM      5  C   UNL     1       6.659   5.474  16.347  0.00  0.00    +0.000 A 
ENDROOT
BRANCH   5   6
ATOM      6  C   UNL     1       7.157   6.552  17.156  0.00  0.00    +0.000 A 
ATOM      7  N   UNL     1       7.115   7.834  16.833  0.00  0.00    +0.000 NA
ATOM      8  C   UNL     1       7.818   8.491  17.817  0.00  0.00    +0.000 A 
ATOM      9  C   UNL     1       8.282   7.606  18.758  0.00  0.00    +0.000 A 
ATOM     10  N   UNL     1       7.852   6.377  18.333  0.00  0.00    +0.000 N 
ATOM     11  C   UNL     1       8.161   5.120  18.974  0.00  0.00    +0.000 C 
ENDBRANCH   5   6
BRANCH   1  12
ATOM     12  C   UNL     1       4.355   5.264  17.365  0.00  0.00    +0.000 C 
BRANCH  12  17
ATOM     13  N   UNL     1       3.045   3.448  18.651  0.00  0.00    +0.000 N 
ATOM     14  C   UNL     1       3.362   2.545  19.634  0.00  0.00    +0.000 A 
ATOM     15  N   UNL     1       4.610   2.656  20.016  0.00  0.00    +0.000 NA
ATOM     16  C   UNL     1       5.128   3.665  19.254  0.00  0.00    +0.000 A 
ATOM     17  C   UNL     1       4.181   4.186  18.391  0.00  0.00    +0.000 A 
BRANCH  13  19
ATOM     18  C   UNL     1       0.689   2.638  18.725  0.00  0.00    +0.000 C 
ATOM     19  C   UNL     1       1.706   3.579  18.107  0.00  0.00    +0.000 C 
ENDBRANCH  13  19
ENDBRANCH  12  17
ENDBRANCH   1  12
TORSDOF 4
ENDMDL
MODEL 6
REMARK VINA RESULT:      -6.3      1.818      2.863
REMARK  Name = 
REMARK  6 active torsions:
REMARK  status: ('A' for Active; 'I' for Inactive)
REMARK    1  A    between atoms: C_1  and  C_2
REMARK    2  A    between atoms: C_2  and  N_3
REMARK    3  A    between atoms: C_7  and  C_8
REMARK    4  A    between atoms: C_8  and  N_9
REMARK    5  A    between atoms: C_13  and  C_14
REMARK    6  A    between atoms: N_18  and  C_19
REMARK                            x       y       z     vdW  Elec       q    Type
REMARK                         _______ _______ _______ _____ _____    ______ ____
ROOT
ATOM      1  N   UNL     1       3.545   6.639  17.787  0.00  0.00    +0.000 N 
ATOM      2  C   UNL     1       2.968   7.801  18.237  0.00  0.00    +0.000 A 
ATOM      3  C   UNL     1       2.280   7.448  19.368  0.00  0.00    +0.000 A 
ATOM      4  N   UNL     1       2.303   6.094  19.539  0.00  0.00    +0.000 NA
ATOM      5  C   UNL     1       2.974   5.608  18.509  0.00  0.00    +0.000 A 
ENDROOT
BRANCH   5   6
ATOM      6  C   UNL     1       2.995   4.216  18.156  0.00  0.00    +0.000 A 
ATOM      7  N   UNL     1       2.143   3.621  17.339  0.00  0.00    +0.000 NA
ATOM      8  C   UNL     1       2.444   2.279  17.396  0.00  0.00    +0.000 A 
ATOM      9  C   UNL     1       3.499   2.053  18.244  0.00  0.00    +0.000 A 
ATOM     10  N   UNL     1       3.847   3.290  18.718  0.00  0.00    +0.000 N 
ATOM     11  C   UNL     1       4.872   3.546  19.703  0.00  0.00    +0.000 C 
ENDBRANCH   5   6
BRANCH   1  12
ATOM     12  C   UNL     1       4.523   6.484  16.715  0.00  0.00    +0.000 C 
BRANCH  12  17
ATOM     13  N   UNL     1       6.382   4.695  16.617  0.00  0.00    +0.000 N 
ATOM     14  C   UNL     1       7.586   4.521  17.251  0.00  0.00    +0.000 A 
ATOM     15  N   UNL     1       7.825   5.473  18.118  0.00  0.00    +0.000 NA
ATOM     16  C   UNL     1       6.739   6.300  18.047  0.00  0.00    +0.000 A 
ATOM     17  C   UNL     1       5.816   5.846  17.123  0.00  0.00    +0.000 A 
BRANCH  13  19
ATOM     18  C   UNL     1       6.219   4.031  14.220  0.00  0.00    +0.000 C 
ATOM     19  C   UNL     1       5.852   3.739  15.663  0.00  0.00    +0.000 C 
ENDBRANCH  13  19
ENDBRANCH  12  17
ENDBRANCH   1  12
TORSDOF 4
ENDMDL
MODEL 7
REMARK VINA RESULT:      -6.3      1.785      3.034
REMARK  Name = 
REMARK  6 active torsions:
REMARK  status: ('A' for Active; 'I' for Inactive)
REMARK    1  A    between atoms: C_1  and  C_2
REMARK    2  A    between atoms: C_2  and  N_3
REMARK    3  A    between atoms: C_7  and  C_8
REMARK    4  A    between atoms: C_8  and  N_9
REMARK    5  A    between atoms: C_13  and  C_14
REMARK    6  A    between atoms: N_18  and  C_19
REMARK                            x       y       z     vdW  Elec       q    Type
REMARK                         _______ _______ _______ _____ _____    ______ ____
ROOT
ATOM      1  N   UNL     1       4.121   5.157  17.090  0.00  0.00    +0.000 N 
ATOM      2  C   UNL     1       4.279   6.506  16.887  0.00  0.00    +0.000 A 
ATOM      3  C   UNL     1       3.637   7.107  17.938  0.00  0.00    +0.000 A 
ATOM      4  N   UNL     1       2.979   6.179  18.690  0.00  0.00    +0.000 NA
ATOM      5  C   UNL     1       3.184   5.016  18.096  0.00  0.00    +0.000 A 
ENDROOT
BRANCH   5   6
ATOM      6  C   UNL     1       2.446   3.822  18.402  0.00  0.00    +0.000 A 
ATOM      7  N   UNL     1       1.208   3.568  18.014  0.00  0.00    +0.000 NA
ATOM      8  C   UNL     1       0.854   2.393  18.638  0.00  0.00    +0.000 A 
ATOM      9  C   UNL     1       1.890   1.917  19.402  0.00  0.00    +0.000 A 
ATOM     10  N   UNL     1       2.900   2.827  19.241  0.00  0.00    +0.000 N 
ATOM     11  C   UNL     1       4.177   2.782  19.914  0.00  0.00    +0.000 C 
ENDBRANCH   5   6
BRANCH   1  12
ATOM     12  C   UNL     1       4.754   4.064  16.359  0.00  0.00    +0.000 C 
BRANCH  12  17
ATOM     13  N   UNL     1       5.966   4.311  14.093  0.00  0.00    +0.000 N 
ATOM     14  C   UNL     1       7.149   4.877  13.690  0.00  0.00    +0.000 A 
ATOM     15  N   UNL     1       7.818   5.382  14.696  0.00  0.00    +0.000 NA
ATOM     16  C   UNL     1       7.044   5.141  15.796  0.00  0.00    +0.000 A 
ATOM     17  C   UNL     1       5.881   4.472  15.460  0.00  0.00    +0.000 A 
BRANCH  13  19
ATOM     18  C   UNL     1       5.770   2.998  11.983  0.00  0.00    +0.000 C 
ATOM     19  C   UNL     1       5.075   3.620  13.180  0.00  0.00    +0.000 C 
ENDBRANCH  13  19
ENDBRANCH  12  17
ENDBRANCH   1  12
TORSDOF 4
ENDMDL
MODEL 8
REMARK VINA RESULT:      -6.3      1.764      6.095
REMARK  Name = 
REMARK  6 active torsions:
REMARK  status: ('A' for Active; 'I' for Inactive)
REMARK    1  A    between atoms: C_1  and  C_2
REMARK    2  A    between atoms: C_2  and  N_3
REMARK    3  A    between atoms: C_7  and  C_8
REMARK    4  A    between atoms: C_8  and  N_9
REMARK    5  A    between atoms: C_13  and  C_14
REMARK    6  A    between atoms: N_18  and  C_19
REMARK                            x       y       z     vdW  Elec       q    Type
REMARK                         _______ _______ _______ _____ _____    ______ ____
ROOT
ATOM      1  N   UNL     1       5.514   4.656  17.199  0.00  0.00    +0.000 N 
ATOM      2  C   UNL     1       5.221   3.788  16.175  0.00  0.00    +0.000 A 
ATOM      3  C   UNL     1       6.356   3.739  15.408  0.00  0.00    +0.000 A 
ATOM      4  N   UNL     1       7.271   4.650  15.849  0.00  0.00    +0.000 NA
ATOM      5  C   UNL     1       6.700   5.280  16.861  0.00  0.00    +0.000 A 
ENDROOT
BRANCH   5   6
ATOM      6  C   UNL     1       7.208   6.496  17.433  0.00  0.00    +0.000 A 
ATOM      7  N   UNL     1       7.172   7.685  16.857  0.00  0.00    +0.000 NA
ATOM      8  C   UNL     1       7.882   8.524  17.686  0.00  0.00    +0.000 A 
ATOM      9  C   UNL     1       8.344   7.845  18.785  0.00  0.00    +0.000 A 
ATOM     10  N   UNL     1       7.906   6.558  18.620  0.00  0.00    +0.000 N 
ATOM     11  C   UNL     1       8.210   5.455  19.501  0.00  0.00    +0.000 C 
ENDBRANCH   5   6
BRANCH   1  12
ATOM     12  C   UNL     1       4.716   4.935  18.388  0.00  0.00    +0.000 C 
BRANCH  12  17
ATOM     13  N   UNL     1       2.782   3.476  19.281  0.00  0.00    +0.000 N 
ATOM     14  C   UNL     1       1.481   3.263  18.901  0.00  0.00    +0.000 A 
ATOM     15  N   UNL     1       1.169   3.941  17.824  0.00  0.00    +0.000 NA
ATOM     16  C   UNL     1       2.304   4.624  17.491  0.00  0.00    +0.000 A 
ATOM     17  C   UNL     1       3.334   4.357  18.374  0.00  0.00    +0.000 A 
BRANCH  13  19
ATOM     18  C   UNL     1       2.482   2.612  21.599  0.00  0.00    +0.000 C 
ATOM     19  C   UNL     1       3.395   2.786  20.401  0.00  0.00    +0.000 C 
ENDBRANCH  13  19
ENDBRANCH  12  17
ENDBRANCH   1  12
TORSDOF 4
ENDMDL
MODEL 9
REMARK VINA RESULT:      -6.2      1.035      1.848
REMARK  Name = 
REMARK  6 active torsions:
REMARK  status: ('A' for Active; 'I' for Inactive)
REMARK    1  A    between atoms: C_1  and  C_2
REMARK    2  A    between atoms: C_2  and  N_3
REMARK    3  A    between atoms: C_7  and  C_8
REMARK    4  A    between atoms: C_8  and  N_9
REMARK    5  A    between atoms: C_13  and  C_14
REMARK    6  A    between atoms: N_18  and  C_19
REMARK                            x       y       z     vdW  Elec       q    Type
REMARK                         _______ _______ _______ _____ _____    ______ ____
ROOT
ATOM      1  N   UNL     1       3.211   5.848  18.430  0.00  0.00    +0.000 N 
ATOM      2  C   UNL     1       3.002   7.097  17.898  0.00  0.00    +0.000 A 
ATOM      3  C   UNL     1       2.373   7.809  18.886  0.00  0.00    +0.000 A 
ATOM      4  N   UNL     1       2.069   6.999  19.940  0.00  0.00    +0.000 NA
ATOM      5  C   UNL     1       2.478   5.789  19.600  0.00  0.00    +0.000 A 
ENDROOT
BRANCH   5   6
ATOM      6  C   UNL     1       2.105   4.593  20.304  0.00  0.00    +0.000 A 
ATOM      7  N   UNL     1       2.473   4.284  21.535  0.00  0.00    +0.000 NA
ATOM      8  C   UNL     1       2.010   3.006  21.755  0.00  0.00    +0.000 A 
ATOM      9  C   UNL     1       1.341   2.535  20.653  0.00  0.00    +0.000 A 
ATOM     10  N   UNL     1       1.400   3.552  19.738  0.00  0.00    +0.000 N 
ATOM     11  C   UNL     1       0.886   3.490  18.390  0.00  0.00    +0.000 C 
ENDBRANCH   5   6
BRANCH   1  12
ATOM     12  C   UNL     1       3.995   4.756  17.863  0.00  0.00    +0.000 C 
BRANCH  12  17
ATOM     13  N   UNL     1       6.491   4.581  17.225  0.00  0.00    +0.000 N 
ATOM     14  C   UNL     1       7.672   4.831  17.877  0.00  0.00    +0.000 A 
ATOM     15  N   UNL     1       7.476   5.223  19.112  0.00  0.00    +0.000 NA
ATOM     16  C   UNL     1       6.119   5.234  19.271  0.00  0.00    +0.000 A 
ATOM     17  C   UNL     1       5.470   4.836  18.117  0.00  0.00    +0.000 A 
BRANCH  13  19
ATOM     18  C   UNL     1       6.040   5.094  14.828  0.00  0.00    +0.000 C 
ATOM     19  C   UNL     1       6.437   4.065  15.870  0.00  0.00    +0.000 C 
ENDBRANCH  13  19
ENDBRANCH  12  17
ENDBRANCH   1  12
TORSDOF 4
ENDMDL
