MODEL 1
REMARK VINA RESULT:      -7.4      0.000      0.000
REMARK  Name = 
REMARK  8 active torsions:
REMARK  status: ('A' for Active; 'I' for Inactive)
REMARK    1  A    between atoms: C_1  and  O_2
REMARK    2  A    between atoms: O_2  and  C_3
REMARK    3  A    between atoms: C_9  and  C_10
REMARK    4  A    between atoms: C_11  and  C_12
REMARK    5  A    between atoms: C_11  and  C_15
REMARK    6  A    between atoms: C_12  and  O_14
REMARK    7  A    between atoms: C_18  and  S_19
REMARK    8  A    between atoms: S_19  and  N_22
REMARK                            x       y       z     vdW  Elec       q    Type
REMARK                         _______ _______ _______ _____ _____    ______ ____
ROOT
ATOM      1  C   UNL     1       1.138   9.364  19.125  0.00  0.00    +0.000 C 
ATOM      2  C   UNL     1       1.231   8.623  20.248  0.00  0.00    +0.000 C 
ENDROOT
BRANCH   1   9
ATOM      3  C   UNL     1      -0.710  11.025  18.671  0.00  0.00    +0.000 A 
ATOM      4  C   UNL     1      -1.100  12.342  18.389  0.00  0.00    +0.000 A 
ATOM      5  C   UNL     1      -0.157  13.372  18.353  0.00  0.00    +0.000 A 
ATOM      6  C   UNL     1       1.177  13.091  18.626  0.00  0.00    +0.000 A 
ATOM      7 BR   UNL     1       2.454  14.484  18.547  0.00  0.00    +0.000 Br
ATOM      8  C   UNL     1       1.581  11.791  18.930  0.00  0.00    +0.000 A 
ATOM      9  C   UNL     1       0.643  10.746  18.951  0.00  0.00    +0.000 A 
BRANCH   3  11
ATOM     10  C   UNL     1      -2.626   9.987  17.721  0.00  0.00    +0.000 C 
ATOM     11  O   UNL     1      -1.575   9.958  18.683  0.00  0.00    +0.000 OA
ENDBRANCH   3  11
ENDBRANCH   1   9
BRANCH   2  12
ATOM     12  C   UNL     1       1.798   7.313  20.123  0.00  0.00    +0.000 A 
ATOM     13  C   UNL     1       1.588   6.197  20.915  0.00  0.00    +0.000 A 
ATOM     14  C   UNL     1       2.280   5.047  20.436  0.00  0.00    +0.000 A 
ATOM     15  C   UNL     1       2.982   5.304  19.279  0.00  0.00    +0.000 A 
ATOM     16  S   UNL     1       2.827   6.935  18.797  0.00  0.00    +0.000 S 
BRANCH  15  17
ATOM     17  S   UNL     1       3.988   4.274  18.233  0.00  0.00    +0.000 S 
ATOM     18  O   UNL     1       4.634   3.338  19.129  0.00  0.00    +0.000 OA
ATOM     19  O   UNL     1       3.098   3.821  17.188  0.00  0.00    +0.000 OA
BRANCH  17  20
ATOM     20  N   UNL     1       5.187   5.260  17.519  0.00  0.00    +0.000 NA
ATOM     21  C   UNL     1       5.221   5.279  16.036  0.00  0.00    +0.000 C 
ATOM     22  C   UNL     1       6.329   4.310  15.670  0.00  0.00    +0.000 C 
ATOM     23  C   UNL     1       7.366   4.536  16.752  0.00  0.00    +0.000 C 
ATOM     24  C   UNL     1       6.575   4.971  17.982  0.00  0.00    +0.000 C 
ENDBRANCH  17  20
ENDBRANCH  15  17
ENDBRANCH   2  12
BRANCH   2  25
ATOM     25  C   UNL     1       0.827   9.120  21.601  0.00  0.00    +0.000 C 
ATOM     26  O   UNL     1       1.579   9.653  22.397  0.00  0.00    +0.000 OA
BRANCH  25  27
ATOM     27  O   UNL     1      -0.474   8.885  21.913  0.00  0.00    +0.000 OA
ATOM     28  H   UNL     1      -0.852   8.074  21.522  0.00  0.00    +0.000 HD
ENDBRANCH  25  27
ENDBRANCH   2  25
TORSDOF 7
ENDMDL
MODEL 2
REMARK VINA RESULT:      -7.2      3.528      8.706
REMARK  Name = 
REMARK  8 active torsions:
REMARK  status: ('A' for Active; 'I' for Inactive)
REMARK    1  A    between atoms: C_1  and  O_2
REMARK    2  A    between atoms: O_2  and  C_3
REMARK    3  A    between atoms: C_9  and  C_10
REMARK    4  A    between atoms: C_11  and  C_12
REMARK    5  A    between atoms: C_11  and  C_15
REMARK    6  A    between atoms: C_12  and  O_14
REMARK    7  A    between atoms: C_18  and  S_19
REMARK    8  A    between atoms: S_19  and  N_22
REMARK                            x       y       z     vdW  Elec       q    Type
REMARK                         _______ _______ _______ _____ _____    ______ ____
ROOT
ATOM      1  C   UNL     1       4.309   6.770  17.432  0.00  0.00    +0.000 C 
ATOM      2  C   UNL     1       3.137   6.581  18.072  0.00  0.00    +0.000 C 
ENDROOT
BRANCH   1   9
ATOM      3  C   UNL     1       6.401   5.364  17.590  0.00  0.00    +0.000 A 
ATOM      4  C   UNL     1       7.326   4.511  16.971  0.00  0.00    +0.000 A 
ATOM      5  C   UNL     1       7.134   4.088  15.654  0.00  0.00    +0.000 A 
ATOM      6  C   UNL     1       6.000   4.496  14.960  0.00  0.00    +0.000 A 
ATOM      7 BR   UNL     1       5.759   3.945  13.167  0.00  0.00    +0.000 Br
ATOM      8  C   UNL     1       5.058   5.327  15.566  0.00  0.00    +0.000 A 
ATOM      9  C   UNL     1       5.251   5.772  16.884  0.00  0.00    +0.000 A 
BRANCH   3  11
ATOM     10  C   UNL     1       7.849   5.750  19.435  0.00  0.00    +0.000 C 
ATOM     11  O   UNL     1       6.547   5.851  18.866  0.00  0.00    +0.000 OA
ENDBRANCH   3  11
ENDBRANCH   1   9
BRANCH   2  12
ATOM     12  C   UNL     1       2.406   7.751  18.457  0.00  0.00    +0.000 A 
ATOM     13  C   UNL     1       1.957   8.794  17.665  0.00  0.00    +0.000 A 
ATOM     14  C   UNL     1       1.203   9.755  18.398  0.00  0.00    +0.000 A 
ATOM     15  C   UNL     1       1.073   9.413  19.726  0.00  0.00    +0.000 A 
ATOM     16  S   UNL     1       1.887   7.955  20.085  0.00  0.00    +0.000 S 
BRANCH  15  17
ATOM     17  S   UNL     1       0.237  10.196  21.090  0.00  0.00    +0.000 S 
ATOM     18  O   UNL     1      -0.922   9.369  21.350  0.00  0.00    +0.000 OA
ATOM     19  O   UNL     1       1.260  10.393  22.091  0.00  0.00    +0.000 OA
BRANCH  17  20
ATOM     20  N   UNL     1      -0.298  11.732  20.567  0.00  0.00    +0.000 NA
ATOM     21  C   UNL     1      -0.386  12.784  21.610  0.00  0.00    +0.000 C 
ATOM     22  C   UNL     1      -1.854  12.817  21.993  0.00  0.00    +0.000 C 
ATOM     23  C   UNL     1      -2.565  12.572  20.677  0.00  0.00    +0.000 C 
ATOM     24  C   UNL     1      -1.608  11.717  19.854  0.00  0.00    +0.000 C 
ENDBRANCH  17  20
ENDBRANCH  15  17
ENDBRANCH   2  12
BRANCH   2  25
ATOM     25  C   UNL     1       2.553   5.230  18.344  0.00  0.00    +0.000 C 
ATOM     26  O   UNL     1       1.644   4.728  17.708  0.00  0.00    +0.000 OA
BRANCH  25  27
ATOM     27  O   UNL     1       3.094   4.597  19.417  0.00  0.00    +0.000 OA
ATOM     28  H   UNL     1       3.038   5.090  20.258  0.00  0.00    +0.000 HD
ENDBRANCH  25  27
ENDBRANCH   2  25
TORSDOF 7
ENDMDL
MODEL 3
REMARK VINA RESULT:      -7.1      2.727      3.740
REMARK  Name = 
REMARK  8 active torsions:
REMARK  status: ('A' for Active; 'I' for Inactive)
REMARK    1  A    between atoms: C_1  and  O_2
REMARK    2  A    between atoms: O_2  and  C_3
REMARK    3  A    between atoms: C_9  and  C_10
REMARK    4  A    between atoms: C_11  and  C_12
REMARK    5  A    between atoms: C_11  and  C_15
REMARK    6  A    between atoms: C_12  and  O_14
REMARK    7  A    between atoms: C_18  and  S_19
REMARK    8  A    between atoms: S_19  and  N_22
REMARK                            x       y       z     vdW  Elec       q    Type
REMARK                         _______ _______ _______ _____ _____    ______ ____
ROOT
ATOM      1  C   UNL     1       0.466  10.740  19.526  0.00  0.00    +0.000 C 
ATOM      2  C   UNL     1       0.821   9.545  20.042  0.00  0.00    +0.000 C 
ENDROOT
BRANCH   1   9
ATOM      3  C   UNL     1       0.325  12.744  21.056  0.00  0.00    +0.000 A 
ATOM      4  C   UNL     1      -0.461  13.697  21.721  0.00  0.00    +0.000 A 
ATOM      5  C   UNL     1      -1.842  13.745  21.521  0.00  0.00    +0.000 A 
ATOM      6  C   UNL     1      -2.439  12.856  20.633  0.00  0.00    +0.000 A 
ATOM      7 BR   UNL     1      -4.314  12.907  20.387  0.00  0.00    +0.000 Br
ATOM      8  C   UNL     1      -1.671  11.916  19.946  0.00  0.00    +0.000 A 
ATOM      9  C   UNL     1      -0.284  11.848  20.155  0.00  0.00    +0.000 A 
BRANCH   3  11
ATOM     10  C   UNL     1       2.465  13.778  20.999  0.00  0.00    +0.000 C 
ATOM     11  O   UNL     1       1.680  12.613  21.237  0.00  0.00    +0.000 OA
ENDBRANCH   3  11
ENDBRANCH   1   9
BRANCH   2  12
ATOM     12  C   UNL     1       1.593   8.675  19.205  0.00  0.00    +0.000 A 
ATOM     13  C   UNL     1       1.997   8.864  17.895  0.00  0.00    +0.000 A 
ATOM     14  C   UNL     1       2.815   7.801  17.413  0.00  0.00    +0.000 A 
ATOM     15  C   UNL     1       3.035   6.837  18.373  0.00  0.00    +0.000 A 
ATOM     16  S   UNL     1       2.230   7.206  19.833  0.00  0.00    +0.000 S 
BRANCH  15  17
ATOM     17  S   UNL     1       3.977   5.327  18.361  0.00  0.00    +0.000 S 
ATOM     18  O   UNL     1       5.154   5.619  17.572  0.00  0.00    +0.000 OA
ATOM     19  O   UNL     1       4.079   4.939  19.749  0.00  0.00    +0.000 OA
BRANCH  17  20
ATOM     20  N   UNL     1       3.057   4.140  17.545  0.00  0.00    +0.000 NA
ATOM     21  C   UNL     1       1.584   4.234  17.699  0.00  0.00    +0.000 C 
ATOM     22  C   UNL     1       1.249   3.218  18.775  0.00  0.00    +0.000 C 
ATOM     23  C   UNL     1       2.211   2.081  18.495  0.00  0.00    +0.000 C 
ATOM     24  C   UNL     1       3.439   2.735  17.870  0.00  0.00    +0.000 C 
ENDBRANCH  17  20
ENDBRANCH  15  17
ENDBRANCH   2  12
BRANCH   2  25
ATOM     25  C   UNL     1       0.496   9.120  21.440  0.00  0.00    +0.000 C 
ATOM     26  O   UNL     1      -0.441   8.405  21.746  0.00  0.00    +0.000 OA
BRANCH  25  27
ATOM     27  O   UNL     1       1.320   9.643  22.384  0.00  0.00    +0.000 OA
ATOM     28  H   UNL     1       1.145  10.576  22.613  0.00  0.00    +0.000 HD
ENDBRANCH  25  27
ENDBRANCH   2  25
TORSDOF 7
ENDMDL
MODEL 4
REMARK VINA RESULT:      -7.1      1.767      2.227
REMARK  Name = 
REMARK  8 active torsions:
REMARK  status: ('A' for Active; 'I' for Inactive)
REMARK    1  A    between atoms: C_1  and  O_2
REMARK    2  A    between atoms: O_2  and  C_3
REMARK    3  A    between atoms: C_9  and  C_10
REMARK    4  A    between atoms: C_11  and  C_12
REMARK    5  A    between atoms: C_11  and  C_15
REMARK    6  A    between atoms: C_12  and  O_14
REMARK    7  A    between atoms: C_18  and  S_19
REMARK    8  A    between atoms: S_19  and  N_22
REMARK                            x       y       z     vdW  Elec       q    Type
REMARK                         _______ _______ _______ _____ _____    ______ ____
ROOT
ATOM      1  C   UNL     1       1.216   9.353  19.084  0.00  0.00    +0.000 C 
ATOM      2  C   UNL     1       1.304   8.605  20.203  0.00  0.00    +0.000 C 
ENDROOT
BRANCH   1   9
ATOM      3  C   UNL     1      -0.704  10.881  18.485  0.00  0.00    +0.000 A 
ATOM      4  C   UNL     1      -1.168  12.174  18.201  0.00  0.00    +0.000 A 
ATOM      5  C   UNL     1      -0.313  13.274  18.293  0.00  0.00    +0.000 A 
ATOM      6  C   UNL     1       1.005  13.088  18.697  0.00  0.00    +0.000 A 
ATOM      7 BR   UNL     1       2.167  14.577  18.792  0.00  0.00    +0.000 Br
ATOM      8  C   UNL     1       1.479  11.812  19.005  0.00  0.00    +0.000 A 
ATOM      9  C   UNL     1       0.632  10.698  18.898  0.00  0.00    +0.000 A 
BRANCH   3  11
ATOM     10  C   UNL     1      -2.729   9.905  17.714  0.00  0.00    +0.000 C 
ATOM     11  O   UNL     1      -1.477   9.751  18.375  0.00  0.00    +0.000 OA
ENDBRANCH   3  11
ENDBRANCH   1   9
BRANCH   2  12
ATOM     12  C   UNL     1       1.970   7.341  20.094  0.00  0.00    +0.000 A 
ATOM     13  C   UNL     1       1.812   6.207  20.872  0.00  0.00    +0.000 A 
ATOM     14  C   UNL     1       2.605   5.114  20.417  0.00  0.00    +0.000 A 
ATOM     15  C   UNL     1       3.331   5.431  19.290  0.00  0.00    +0.000 A 
ATOM     16  S   UNL     1       3.076   7.050  18.809  0.00  0.00    +0.000 S 
BRANCH  15  17
ATOM     17  S   UNL     1       4.451   4.485  18.280  0.00  0.00    +0.000 S 
ATOM     18  O   UNL     1       4.740   5.328  17.140  0.00  0.00    +0.000 OA
ATOM     19  O   UNL     1       5.496   4.056  19.183  0.00  0.00    +0.000 OA
BRANCH  17  20
ATOM     20  N   UNL     1       3.620   3.096  17.733  0.00  0.00    +0.000 NA
ATOM     21  C   UNL     1       2.265   3.323  17.171  0.00  0.00    +0.000 C 
ATOM     22  C   UNL     1       1.321   2.982  18.309  0.00  0.00    +0.000 C 
ATOM     23  C   UNL     1       2.000   1.809  18.988  0.00  0.00    +0.000 C 
ATOM     24  C   UNL     1       3.492   2.014  18.752  0.00  0.00    +0.000 C 
ENDBRANCH  17  20
ENDBRANCH  15  17
ENDBRANCH   2  12
BRANCH   2  25
ATOM     25  C   UNL     1       0.794   9.053  21.538  0.00  0.00    +0.000 C 
ATOM     26  O   UNL     1       1.462   9.635  22.374  0.00  0.00    +0.000 OA
BRANCH  25  27
ATOM     27  O   UNL     1      -0.497   8.712  21.781  0.00  0.00    +0.000 OA
ATOM     28  H   UNL     1      -0.688   7.756  21.730  0.00  0.00    +0.000 HD
ENDBRANCH  25  27
ENDBRANCH   2  25
TORSDOF 7
ENDMDL
MODEL 5
REMARK VINA RESULT:      -7.0      3.182      8.185
REMARK  Name = 
REMARK  8 active torsions:
REMARK  status: ('A' for Active; 'I' for Inactive)
REMARK    1  A    between atoms: C_1  and  O_2
REMARK    2  A    between atoms: O_2  and  C_3
REMARK    3  A    between atoms: C_9  and  C_10
REMARK    4  A    between atoms: C_11  and  C_12
REMARK    5  A    between atoms: C_11  and  C_15
REMARK    6  A    between atoms: C_12  and  O_14
REMARK    7  A    between atoms: C_18  and  S_19
REMARK    8  A    between atoms: S_19  and  N_22
REMARK                            x       y       z     vdW  Elec       q    Type
REMARK                         _______ _______ _______ _____ _____    ______ ____
ROOT
ATOM      1  C   UNL     1       4.371   5.528  17.406  0.00  0.00    +0.000 C 
ATOM      2  C   UNL     1       3.910   4.801  18.445  0.00  0.00    +0.000 C 
ENDROOT
BRANCH   1   9
ATOM      3  C   UNL     1       6.710   5.519  16.454  0.00  0.00    +0.000 A 
ATOM      4  C   UNL     1       7.569   5.254  15.378  0.00  0.00    +0.000 A 
ATOM      5  C   UNL     1       7.084   4.663  14.209  0.00  0.00    +0.000 A 
ATOM      6  C   UNL     1       5.742   4.310  14.123  0.00  0.00    +0.000 A 
ATOM      7 BR   UNL     1       5.084   3.537  12.527  0.00  0.00    +0.000 Br
ATOM      8  C   UNL     1       4.876   4.547  15.191  0.00  0.00    +0.000 A 
ATOM      9  C   UNL     1       5.350   5.157  16.364  0.00  0.00    +0.000 A 
BRANCH   3  11
ATOM     10  C   UNL     1       7.553   7.483  17.495  0.00  0.00    +0.000 C 
ATOM     11  O   UNL     1       7.109   6.135  17.615  0.00  0.00    +0.000 OA
ENDBRANCH   3  11
ENDBRANCH   1   9
BRANCH   2  12
ATOM     12  C   UNL     1       2.917   5.410  19.280  0.00  0.00    +0.000 A 
ATOM     13  C   UNL     1       2.040   4.808  20.165  0.00  0.00    +0.000 A 
ATOM     14  C   UNL     1       1.240   5.752  20.872  0.00  0.00    +0.000 A 
ATOM     15  C   UNL     1       1.541   7.052  20.529  0.00  0.00    +0.000 A 
ATOM     16  S   UNL     1       2.761   7.122  19.336  0.00  0.00    +0.000 S 
BRANCH  15  17
ATOM     17  S   UNL     1       0.904   8.617  21.088  0.00  0.00    +0.000 S 
ATOM     18  O   UNL     1      -0.502   8.387  21.340  0.00  0.00    +0.000 OA
ATOM     19  O   UNL     1       1.800   9.029  22.144  0.00  0.00    +0.000 OA
BRANCH  17  20
ATOM     20  N   UNL     1       1.051   9.734  19.803  0.00  0.00    +0.000 NA
ATOM     21  C   UNL     1       1.058  11.169  20.181  0.00  0.00    +0.000 C 
ATOM     22  C   UNL     1      -0.364  11.635  19.929  0.00  0.00    +0.000 C 
ATOM     23  C   UNL     1      -0.766  10.873  18.681  0.00  0.00    +0.000 C 
ATOM     24  C   UNL     1       0.029   9.573  18.729  0.00  0.00    +0.000 C 
ENDBRANCH  17  20
ENDBRANCH  15  17
ENDBRANCH   2  12
BRANCH   2  25
ATOM     25  C   UNL     1       4.343   3.396  18.727  0.00  0.00    +0.000 C 
ATOM     26  O   UNL     1       3.737   2.401  18.372  0.00  0.00    +0.000 OA
BRANCH  25  27
ATOM     27  O   UNL     1       5.474   3.302  19.472  0.00  0.00    +0.000 OA
ATOM     28  H   UNL     1       5.935   2.444  19.416  0.00  0.00    +0.000 HD
ENDBRANCH  25  27
ENDBRANCH   2  25
TORSDOF 7
ENDMDL
MODEL 6
REMARK VINA RESULT:      -7.0      2.809      3.712
REMARK  Name = 
REMARK  8 active torsions:
REMARK  status: ('A' for Active; 'I' for Inactive)
REMARK    1  A    between atoms: C_1  and  O_2
REMARK    2  A    between atoms: O_2  and  C_3
REMARK    3  A    between atoms: C_9  and  C_10
REMARK    4  A    between atoms: C_11  and  C_12
REMARK    5  A    between atoms: C_11  and  C_15
REMARK    6  A    between atoms: C_12  and  O_14
REMARK    7  A    between atoms: C_18  and  S_19
REMARK    8  A    between atoms: S_19  and  N_22
REMARK                            x       y       z     vdW  Elec       q    Type
REMARK                         _______ _______ _______ _____ _____    ______ ____
ROOT
ATOM      1  C   UNL     1       0.485  10.655  19.543  0.00  0.00    +0.000 C 
ATOM      2  C   UNL     1       0.900   9.499  20.100  0.00  0.00    +0.000 C 
ENDROOT
BRANCH   1   9
ATOM      3  C   UNL     1       0.305  12.695  21.020  0.00  0.00    +0.000 A 
ATOM      4  C   UNL     1      -0.500  13.648  21.661  0.00  0.00    +0.000 A 
ATOM      5  C   UNL     1      -1.883  13.661  21.464  0.00  0.00    +0.000 A 
ATOM      6  C   UNL     1      -2.463  12.736  20.602  0.00  0.00    +0.000 A 
ATOM      7 BR   UNL     1      -4.338  12.740  20.362  0.00  0.00    +0.000 Br
ATOM      8  C   UNL     1      -1.676  11.795  19.939  0.00  0.00    +0.000 A 
ATOM      9  C   UNL     1      -0.287  11.762  20.144  0.00  0.00    +0.000 A 
BRANCH   3  11
ATOM     10  C   UNL     1       2.433  13.735  20.820  0.00  0.00    +0.000 C 
ATOM     11  O   UNL     1       1.663  12.598  21.199  0.00  0.00    +0.000 OA
ENDBRANCH   3  11
ENDBRANCH   1   9
BRANCH   2  12
ATOM     12  C   UNL     1       1.679   8.619  19.280  0.00  0.00    +0.000 A 
ATOM     13  C   UNL     1       2.169   8.831  18.003  0.00  0.00    +0.000 A 
ATOM     14  C   UNL     1       2.962   7.745  17.532  0.00  0.00    +0.000 A 
ATOM     15  C   UNL     1       3.080   6.742  18.469  0.00  0.00    +0.000 A 
ATOM     16  S   UNL     1       2.208   7.102  19.892  0.00  0.00    +0.000 S 
BRANCH  15  17
ATOM     17  S   UNL     1       3.950   5.188  18.458  0.00  0.00    +0.000 S 
ATOM     18  O   UNL     1       4.065   4.827  17.062  0.00  0.00    +0.000 OA
ATOM     19  O   UNL     1       5.121   5.410  19.276  0.00  0.00    +0.000 OA
BRANCH  17  20
ATOM     20  N   UNL     1       2.968   4.030  19.241  0.00  0.00    +0.000 NA
ATOM     21  C   UNL     1       3.644   2.781  19.671  0.00  0.00    +0.000 C 
ATOM     22  C   UNL     1       3.315   1.777  18.583  0.00  0.00    +0.000 C 
ATOM     23  C   UNL     1       1.891   2.128  18.201  0.00  0.00    +0.000 C 
ATOM     24  C   UNL     1       1.759   3.624  18.466  0.00  0.00    +0.000 C 
ENDBRANCH  17  20
ENDBRANCH  15  17
ENDBRANCH   2  12
BRANCH   2  25
ATOM     25  C   UNL     1       0.633   9.127  21.526  0.00  0.00    +0.000 C 
ATOM     26  O   UNL     1       1.362   9.403  22.462  0.00  0.00    +0.000 OA
BRANCH  25  27
ATOM     27  O   UNL     1      -0.495   8.392  21.706  0.00  0.00    +0.000 OA
ATOM     28  H   UNL     1      -0.647   7.699  21.035  0.00  0.00    +0.000 HD
ENDBRANCH  25  27
ENDBRANCH   2  25
TORSDOF 7
ENDMDL
MODEL 7
REMARK VINA RESULT:      -7.0      3.387      8.441
REMARK  Name = 
REMARK  8 active torsions:
REMARK  status: ('A' for Active; 'I' for Inactive)
REMARK    1  A    between atoms: C_1  and  O_2
REMARK    2  A    between atoms: O_2  and  C_3
REMARK    3  A    between atoms: C_9  and  C_10
REMARK    4  A    between atoms: C_11  and  C_12
REMARK    5  A    between atoms: C_11  and  C_15
REMARK    6  A    between atoms: C_12  and  O_14
REMARK    7  A    between atoms: C_18  and  S_19
REMARK    8  A    between atoms: S_19  and  N_22
REMARK                            x       y       z     vdW  Elec       q    Type
REMARK                         _______ _______ _______ _____ _____    ______ ____
ROOT
ATOM      1  C   UNL     1       4.266   6.174  18.254  0.00  0.00    +0.000 C 
ATOM      2  C   UNL     1       3.061   5.815  18.742  0.00  0.00    +0.000 C 
ENDROOT
BRANCH   1   9
ATOM      3  C   UNL     1       6.496   5.017  17.996  0.00  0.00    +0.000 A 
ATOM      4  C   UNL     1       7.428   4.373  17.169  0.00  0.00    +0.000 A 
ATOM      5  C   UNL     1       7.132   4.115  15.829  0.00  0.00    +0.000 A 
ATOM      6  C   UNL     1       5.890   4.477  15.318  0.00  0.00    +0.000 A 
ATOM      7 BR   UNL     1       5.505   4.151  13.495  0.00  0.00    +0.000 Br
ATOM      8  C   UNL     1       4.942   5.099  16.130  0.00  0.00    +0.000 A 
ATOM      9  C   UNL     1       5.237   5.379  17.475  0.00  0.00    +0.000 A 
BRANCH   3  11
ATOM     10  C   UNL     1       8.061   5.756  19.626  0.00  0.00    +0.000 C 
ATOM     11  O   UNL     1       6.736   5.339  19.310  0.00  0.00    +0.000 OA
ENDBRANCH   3  11
ENDBRANCH   1   9
BRANCH   2  12
ATOM     12  C   UNL     1       2.309   6.821  19.432  0.00  0.00    +0.000 A 
ATOM     13  C   UNL     1       1.735   6.766  20.690  0.00  0.00    +0.000 A 
ATOM     14  C   UNL     1       1.117   7.994  21.067  0.00  0.00    +0.000 A 
ATOM     15  C   UNL     1       1.254   8.964  20.099  0.00  0.00    +0.000 A 
ATOM     16  S   UNL     1       2.096   8.379  18.733  0.00  0.00    +0.000 S 
BRANCH  15  17
ATOM     17  S   UNL     1       0.726  10.663  20.021  0.00  0.00    +0.000 S 
ATOM     18  O   UNL     1       1.141  11.248  21.278  0.00  0.00    +0.000 OA
ATOM     19  O   UNL     1       1.233  11.154  18.759  0.00  0.00    +0.000 OA
BRANCH  17  20
ATOM     20  N   UNL     1      -0.981  10.680  19.950  0.00  0.00    +0.000 NA
ATOM     21  C   UNL     1      -1.582  10.514  18.603  0.00  0.00    +0.000 C 
ATOM     22  C   UNL     1      -1.921  11.925  18.163  0.00  0.00    +0.000 C 
ATOM     23  C   UNL     1      -2.374  12.594  19.446  0.00  0.00    +0.000 C 
ATOM     24  C   UNL     1      -1.609  11.887  20.560  0.00  0.00    +0.000 C 
ENDBRANCH  17  20
ENDBRANCH  15  17
ENDBRANCH   2  12
BRANCH   2  25
ATOM     25  C   UNL     1       2.464   4.456  18.551  0.00  0.00    +0.000 C 
ATOM     26  O   UNL     1       2.796   3.461  19.171  0.00  0.00    +0.000 OA
BRANCH  25  27
ATOM     27  O   UNL     1       1.526   4.394  17.571  0.00  0.00    +0.000 OA
ATOM     28  H   UNL     1       1.818   4.723  16.700  0.00  0.00    +0.000 HD
ENDBRANCH  25  27
ENDBRANCH   2  25
TORSDOF 7
ENDMDL
MODEL 8
REMARK VINA RESULT:      -7.0      3.506      8.618
REMARK  Name = 
REMARK  8 active torsions:
REMARK  status: ('A' for Active; 'I' for Inactive)
REMARK    1  A    between atoms: C_1  and  O_2
REMARK    2  A    between atoms: O_2  and  C_3
REMARK    3  A    between atoms: C_9  and  C_10
REMARK    4  A    between atoms: C_11  and  C_12
REMARK    5  A    between atoms: C_11  and  C_15
REMARK    6  A    between atoms: C_12  and  O_14
REMARK    7  A    between atoms: C_18  and  S_19
REMARK    8  A    between atoms: S_19  and  N_22
REMARK                            x       y       z     vdW  Elec       q    Type
REMARK                         _______ _______ _______ _____ _____    ______ ____
ROOT
ATOM      1  C   UNL     1       4.274   6.824  17.396  0.00  0.00    +0.000 C 
ATOM      2  C   UNL     1       3.173   6.669  18.159  0.00  0.00    +0.000 C 
ENDROOT
BRANCH   1   9
ATOM      3  C   UNL     1       6.327   5.372  17.637  0.00  0.00    +0.000 A 
ATOM      4  C   UNL     1       7.255   4.496  17.056  0.00  0.00    +0.000 A 
ATOM      5  C   UNL     1       7.103   4.073  15.733  0.00  0.00    +0.000 A 
ATOM      6  C   UNL     1       6.005   4.503  14.996  0.00  0.00    +0.000 A 
ATOM      7 BR   UNL     1       5.820   3.950  13.197  0.00  0.00    +0.000 Br
ATOM      8  C   UNL     1       5.059   5.357  15.564  0.00  0.00    +0.000 A 
ATOM      9  C   UNL     1       5.213   5.802  16.887  0.00  0.00    +0.000 A 
BRANCH   3  11
ATOM     10  C   UNL     1       7.742   5.856  19.485  0.00  0.00    +0.000 C 
ATOM     11  O   UNL     1       6.436   5.861  18.916  0.00  0.00    +0.000 OA
ENDBRANCH   3  11
ENDBRANCH   1   9
BRANCH   2  12
ATOM     12  C   UNL     1       2.420   7.849  18.468  0.00  0.00    +0.000 A 
ATOM     13  C   UNL     1       1.992   8.853  17.616  0.00  0.00    +0.000 A 
ATOM     14  C   UNL     1       1.206   9.838  18.280  0.00  0.00    +0.000 A 
ATOM     15  C   UNL     1       1.032   9.553  19.617  0.00  0.00    +0.000 A 
ATOM     16  S   UNL     1       1.843   8.119  20.066  0.00  0.00    +0.000 S 
BRANCH  15  17
ATOM     17  S   UNL     1       0.144  10.386  20.915  0.00  0.00    +0.000 S 
ATOM     18  O   UNL     1      -0.529   9.336  21.649  0.00  0.00    +0.000 OA
ATOM     19  O   UNL     1       1.123  11.239  21.549  0.00  0.00    +0.000 OA
BRANCH  17  20
ATOM     20  N   UNL     1      -1.037  11.384  20.187  0.00  0.00    +0.000 NA
ATOM     21  C   UNL     1      -0.534  12.418  19.249  0.00  0.00    +0.000 C 
ATOM     22  C   UNL     1      -0.502  13.692  20.072  0.00  0.00    +0.000 C 
ATOM     23  C   UNL     1      -1.730  13.573  20.952  0.00  0.00    +0.000 C 
ATOM     24  C   UNL     1      -1.938  12.076  21.154  0.00  0.00    +0.000 C 
ENDBRANCH  17  20
ENDBRANCH  15  17
ENDBRANCH   2  12
BRANCH   2  25
ATOM     25  C   UNL     1       2.682   5.340  18.643  0.00  0.00    +0.000 C 
ATOM     26  O   UNL     1       3.074   4.783  19.652  0.00  0.00    +0.000 OA
BRANCH  25  27
ATOM     27  O   UNL     1       1.770   4.754  17.825  0.00  0.00    +0.000 OA
ATOM     28  H   UNL     1       0.838   4.959  18.032  0.00  0.00    +0.000 HD
ENDBRANCH  25  27
ENDBRANCH   2  25
TORSDOF 7
ENDMDL
MODEL 9
REMARK VINA RESULT:      -7.0      3.465      8.350
REMARK  Name = 
REMARK  8 active torsions:
REMARK  status: ('A' for Active; 'I' for Inactive)
REMARK    1  A    between atoms: C_1  and  O_2
REMARK    2  A    between atoms: O_2  and  C_3
REMARK    3  A    between atoms: C_9  and  C_10
REMARK    4  A    between atoms: C_11  and  C_12
REMARK    5  A    between atoms: C_11  and  C_15
REMARK    6  A    between atoms: C_12  and  O_14
REMARK    7  A    between atoms: C_18  and  S_19
REMARK    8  A    between atoms: S_19  and  N_22
REMARK                            x       y       z     vdW  Elec       q    Type
REMARK                         _______ _______ _______ _____ _____    ______ ____
ROOT
ATOM      1  C   UNL     1       4.230   6.911  17.317  0.00  0.00    +0.000 C 
ATOM      2  C   UNL     1       3.235   6.817  18.224  0.00  0.00    +0.000 C 
ENDROOT
BRANCH   1   9
ATOM      3  C   UNL     1       6.300   5.499  17.635  0.00  0.00    +0.000 A 
ATOM      4  C   UNL     1       7.242   4.609  17.100  0.00  0.00    +0.000 A 
ATOM      5  C   UNL     1       7.100   4.120  15.800  0.00  0.00    +0.000 A 
ATOM      6  C   UNL     1       6.000   4.499  15.039  0.00  0.00    +0.000 A 
ATOM      7 BR   UNL     1       5.828   3.857  13.268  0.00  0.00    +0.000 Br
ATOM      8  C   UNL     1       5.041   5.367  15.562  0.00  0.00    +0.000 A 
ATOM      9  C   UNL     1       5.184   5.879  16.862  0.00  0.00    +0.000 A 
BRANCH   3  11
ATOM     10  C   UNL     1       7.583   5.752  19.620  0.00  0.00    +0.000 C 
ATOM     11  O   UNL     1       6.397   6.052  18.889  0.00  0.00    +0.000 OA
ENDBRANCH   3  11
ENDBRANCH   1   9
BRANCH   2  12
ATOM     12  C   UNL     1       2.431   7.984  18.435  0.00  0.00    +0.000 A 
ATOM     13  C   UNL     1       1.991   8.915  17.510  0.00  0.00    +0.000 A 
ATOM     14  C   UNL     1       1.150   9.909  18.088  0.00  0.00    +0.000 A 
ATOM     15  C   UNL     1       0.949   9.703  19.435  0.00  0.00    +0.000 A 
ATOM     16  S   UNL     1       1.799   8.333  19.997  0.00  0.00    +0.000 S 
BRANCH  15  17
ATOM     17  S   UNL     1      -0.006  10.583  20.653  0.00  0.00    +0.000 S 
ATOM     18  O   UNL     1      -1.369  10.544  20.167  0.00  0.00    +0.000 OA
ATOM     19  O   UNL     1       0.358   9.984  21.917  0.00  0.00    +0.000 OA
BRANCH  17  20
ATOM     20  N   UNL     1       0.522  12.207  20.663  0.00  0.00    +0.000 NA
ATOM     21  C   UNL     1      -0.422  13.206  20.102  0.00  0.00    +0.000 C 
ATOM     22  C   UNL     1       0.075  13.444  18.689  0.00  0.00    +0.000 C 
ATOM     23  C   UNL     1       1.583  13.380  18.831  0.00  0.00    +0.000 C 
ATOM     24  C   UNL     1       1.838  12.430  19.996  0.00  0.00    +0.000 C 
ENDBRANCH  17  20
ENDBRANCH  15  17
ENDBRANCH   2  12
BRANCH   2  25
ATOM     25  C   UNL     1       2.907   5.558  18.963  0.00  0.00    +0.000 C 
ATOM     26  O   UNL     1       2.019   4.784  18.654  0.00  0.00    +0.000 OA
BRANCH  25  27
ATOM     27  O   UNL     1       3.665   5.352  20.072  0.00  0.00    +0.000 OA
ATOM     28  H   UNL     1       3.969   6.165  20.520  0.00  0.00    +0.000 HD
ENDBRANCH  25  27
ENDBRANCH   2  25
TORSDOF 7
ENDMDL
