MODEL 1
REMARK VINA RESULT:      -8.4      0.000      0.000
REMARK  Name = 
REMARK  6 active torsions:
REMARK  status: ('A' for Active; 'I' for Inactive)
REMARK    1  A    between atoms: C_1  and  C_2
REMARK    2  A    between atoms: C_2  and  C_4
REMARK    3  A    between atoms: C_7  and  N_8
REMARK    4  A    between atoms: C_9  and  C_11
REMARK    5  A    between atoms: N_14  and  C_15
REMARK    6  A    between atoms: C_22  and  N_23
REMARK                            x       y       z     vdW  Elec       q    Type
REMARK                         _______ _______ _______ _____ _____    ______ ____
ROOT
ATOM      1  C   UNL     1       0.444   9.466  21.345  0.00  0.00    +0.000 A 
ATOM      2  C   UNL     1       0.524   9.251  22.733  0.00  0.00    +0.000 A 
ATOM      3  N   UNL     1      -0.068  10.214  23.443  0.00  0.00    +0.000 NA
ATOM      4  N   UNL     1      -0.621  11.048  22.516  0.00  0.00    +0.000 N 
ATOM      5  C   UNL     1      -0.333  10.612  21.237  0.00  0.00    +0.000 A 
ENDROOT
BRANCH   4   6
ATOM      6  C   UNL     1      -1.427  12.139  22.950  0.00  0.00    +0.000 A 
ATOM      7  C   UNL     1      -0.932  13.453  22.967  0.00  0.00    +0.000 A 
ATOM      8  C   UNL     1      -1.707  14.497  23.475  0.00  0.00    +0.000 A 
ATOM      9  C   UNL     1      -2.992  14.240  23.944  0.00  0.00    +0.000 A 
ATOM     10  C   UNL     1      -3.496  12.944  23.886  0.00  0.00    +0.000 A 
ATOM     11  F   UNL     1      -4.733  12.705  24.342  0.00  0.00    +0.000 F 
ATOM     12  C   UNL     1      -2.736  11.892  23.383  0.00  0.00    +0.000 A 
ENDBRANCH   4   6
BRANCH   5  13
ATOM     13  N   UNL     1      -0.624  11.306  20.059  0.00  0.00    +0.000 N 
ATOM     14  C   UNL     1       0.053  12.414  19.581  0.00  0.00    +0.000 A 
ATOM     15  C   UNL     1      -0.560  12.864  18.434  0.00  0.00    +0.000 A 
ATOM     16  C   UNL     1      -1.636  11.992  18.171  0.00  0.00    +0.000 A 
ATOM     17  C   UNL     1      -1.653  11.047  19.174  0.00  0.00    +0.000 A 
ENDBRANCH   5  13
BRANCH   1  19
ATOM     18  N   UNL     1       1.696   7.575  20.445  0.00  0.00    +0.000 N 
ATOM     19  C   UNL     1       1.182   8.848  20.253  0.00  0.00    +0.000 C 
ATOM     20  O   UNL     1       1.333   9.482  19.214  0.00  0.00    +0.000 OA
ATOM     21  H   UNL     1       1.374   7.032  21.236  0.00  0.00    +0.000 HD
BRANCH  18  25
ATOM     22  C   UNL     1       4.087   5.583  17.551  0.00  0.00    +0.000 A 
ATOM     23  C   UNL     1       3.695   6.900  17.345  0.00  0.00    +0.000 A 
ATOM     24  C   UNL     1       2.937   7.557  18.308  0.00  0.00    +0.000 A 
ATOM     25  C   UNL     1       2.519   6.922  19.487  0.00  0.00    +0.000 A 
ATOM     26  C   UNL     1       2.936   5.607  19.707  0.00  0.00    +0.000 A 
ATOM     27  C   UNL     1       3.710   4.939  18.740  0.00  0.00    +0.000 A 
BRANCH  22  29
ATOM     28  C   UNL     1       5.519   5.669  15.407  0.00  0.00    +0.000 C 
ATOM     29  C   UNL     1       4.906   4.869  16.531  0.00  0.00    +0.000 C 
ATOM     30  O   UNL     1       5.078   3.656  16.627  0.00  0.00    +0.000 OA
ENDBRANCH  22  29
ENDBRANCH  18  25
ENDBRANCH   1  19
TORSDOF 5
ENDMDL
MODEL 2
REMARK VINA RESULT:      -8.3      0.625      1.318
REMARK  Name = 
REMARK  6 active torsions:
REMARK  status: ('A' for Active; 'I' for Inactive)
REMARK    1  A    between atoms: C_1  and  C_2
REMARK    2  A    between atoms: C_2  and  C_4
REMARK    3  A    between atoms: C_7  and  N_8
REMARK    4  A    between atoms: C_9  and  C_11
REMARK    5  A    between atoms: N_14  and  C_15
REMARK    6  A    between atoms: C_22  and  N_23
REMARK                            x       y       z     vdW  Elec       q    Type
REMARK                         _______ _______ _______ _____ _____    ______ ____
ROOT
ATOM      1  C   UNL     1       0.353   9.549  21.304  0.00  0.00    +0.000 A 
ATOM      2  C   UNL     1       0.423   9.265  22.679  0.00  0.00    +0.000 A 
ATOM      3  N   UNL     1      -0.157  10.201  23.434  0.00  0.00    +0.000 NA
ATOM      4  N   UNL     1      -0.693  11.088  22.547  0.00  0.00    +0.000 N 
ATOM      5  C   UNL     1      -0.407  10.710  21.249  0.00  0.00    +0.000 A 
ENDROOT
BRANCH   4   6
ATOM      6  C   UNL     1      -1.485  12.169  23.031  0.00  0.00    +0.000 A 
ATOM      7  C   UNL     1      -0.971  13.472  23.111  0.00  0.00    +0.000 A 
ATOM      8  C   UNL     1      -1.733  14.503  23.667  0.00  0.00    +0.000 A 
ATOM      9  C   UNL     1      -3.022  14.241  24.121  0.00  0.00    +0.000 A 
ATOM     10  C   UNL     1      -3.544  12.957  24.001  0.00  0.00    +0.000 A 
ATOM     11  F   UNL     1      -4.785  12.713  24.445  0.00  0.00    +0.000 F 
ATOM     12  C   UNL     1      -2.798  11.919  23.451  0.00  0.00    +0.000 A 
ENDBRANCH   4   6
BRANCH   5  13
ATOM     13  N   UNL     1      -0.681  11.466  20.106  0.00  0.00    +0.000 N 
ATOM     14  C   UNL     1      -1.710  11.240  19.209  0.00  0.00    +0.000 A 
ATOM     15  C   UNL     1      -1.622  12.144  18.176  0.00  0.00    +0.000 A 
ATOM     16  C   UNL     1      -0.521  12.981  18.450  0.00  0.00    +0.000 A 
ATOM     17  C   UNL     1       0.035  12.550  19.634  0.00  0.00    +0.000 A 
ENDBRANCH   5  13
BRANCH   1  19
ATOM     18  N   UNL     1       1.761   7.780  20.386  0.00  0.00    +0.000 N 
ATOM     19  C   UNL     1       1.087   8.975  20.185  0.00  0.00    +0.000 C 
ATOM     20  O   UNL     1       1.092   9.575  19.116  0.00  0.00    +0.000 OA
ATOM     21  H   UNL     1       1.559   7.238  21.217  0.00  0.00    +0.000 HD
BRANCH  18  25
ATOM     22  C   UNL     1       4.311   6.060  17.454  0.00  0.00    +0.000 A 
ATOM     23  C   UNL     1       4.050   5.380  18.636  0.00  0.00    +0.000 A 
ATOM     24  C   UNL     1       3.192   5.933  19.580  0.00  0.00    +0.000 A 
ATOM     25  C   UNL     1       2.592   7.187  19.397  0.00  0.00    +0.000 A 
ATOM     26  C   UNL     1       2.832   7.860  18.196  0.00  0.00    +0.000 A 
ATOM     27  C   UNL     1       3.694   7.301  17.232  0.00  0.00    +0.000 A 
BRANCH  22  29
ATOM     28  C   UNL     1       5.167   3.988  16.178  0.00  0.00    +0.000 C 
ATOM     29  C   UNL     1       5.223   5.475  16.430  0.00  0.00    +0.000 C 
ATOM     30  O   UNL     1       5.988   6.207  15.805  0.00  0.00    +0.000 OA
ENDBRANCH  22  29
ENDBRANCH  18  25
ENDBRANCH   1  19
TORSDOF 5
ENDMDL
MODEL 3
REMARK VINA RESULT:      -8.2      0.899      1.269
REMARK  Name = 
REMARK  6 active torsions:
REMARK  status: ('A' for Active; 'I' for Inactive)
REMARK    1  A    between atoms: C_1  and  C_2
REMARK    2  A    between atoms: C_2  and  C_4
REMARK    3  A    between atoms: C_7  and  N_8
REMARK    4  A    between atoms: C_9  and  C_11
REMARK    5  A    between atoms: N_14  and  C_15
REMARK    6  A    between atoms: C_22  and  N_23
REMARK                            x       y       z     vdW  Elec       q    Type
REMARK                         _______ _______ _______ _____ _____    ______ ____
ROOT
ATOM      1  C   UNL     1       0.441   9.470  21.350  0.00  0.00    +0.000 A 
ATOM      2  C   UNL     1       0.513   9.256  22.738  0.00  0.00    +0.000 A 
ATOM      3  N   UNL     1      -0.078  10.223  23.445  0.00  0.00    +0.000 NA
ATOM      4  N   UNL     1      -0.622  11.059  22.515  0.00  0.00    +0.000 N 
ATOM      5  C   UNL     1      -0.331  10.620  21.237  0.00  0.00    +0.000 A 
ENDROOT
BRANCH   4   6
ATOM      6  C   UNL     1      -1.425  12.154  22.944  0.00  0.00    +0.000 A 
ATOM      7  C   UNL     1      -2.761  11.972  23.334  0.00  0.00    +0.000 A 
ATOM      8  C   UNL     1      -3.558  13.069  23.671  0.00  0.00    +0.000 A 
ATOM      9  C   UNL     1      -3.017  14.350  23.645  0.00  0.00    +0.000 A 
ATOM     10  C   UNL     1      -1.680  14.524  23.299  0.00  0.00    +0.000 A 
ATOM     11  F   UNL     1      -1.168  15.762  23.274  0.00  0.00    +0.000 F 
ATOM     12  C   UNL     1      -0.873  13.441  22.960  0.00  0.00    +0.000 A 
ENDBRANCH   4   6
BRANCH   5  13
ATOM     13  N   UNL     1      -0.612  11.315  20.057  0.00  0.00    +0.000 N 
ATOM     14  C   UNL     1       0.074  12.418  19.581  0.00  0.00    +0.000 A 
ATOM     15  C   UNL     1      -0.532  12.870  18.431  0.00  0.00    +0.000 A 
ATOM     16  C   UNL     1      -1.613  12.005  18.165  0.00  0.00    +0.000 A 
ATOM     17  C   UNL     1      -1.640  11.062  19.169  0.00  0.00    +0.000 A 
ENDBRANCH   5  13
BRANCH   1  19
ATOM     18  N   UNL     1       1.685   7.571  20.456  0.00  0.00    +0.000 N 
ATOM     19  C   UNL     1       1.181   8.848  20.262  0.00  0.00    +0.000 C 
ATOM     20  O   UNL     1       1.341   9.480  19.224  0.00  0.00    +0.000 OA
ATOM     21  H   UNL     1       1.356   7.030  21.245  0.00  0.00    +0.000 HD
BRANCH  18  25
ATOM     22  C   UNL     1       4.080   5.565  17.575  0.00  0.00    +0.000 A 
ATOM     23  C   UNL     1       3.701   6.886  17.369  0.00  0.00    +0.000 A 
ATOM     24  C   UNL     1       2.942   7.547  18.329  0.00  0.00    +0.000 A 
ATOM     25  C   UNL     1       2.510   6.914  19.503  0.00  0.00    +0.000 A 
ATOM     26  C   UNL     1       2.913   5.595  19.723  0.00  0.00    +0.000 A 
ATOM     27  C   UNL     1       3.689   4.922  18.760  0.00  0.00    +0.000 A 
BRANCH  22  29
ATOM     28  C   UNL     1       5.512   5.641  15.431  0.00  0.00    +0.000 C 
ATOM     29  C   UNL     1       4.900   4.846  16.559  0.00  0.00    +0.000 C 
ATOM     30  O   UNL     1       5.072   3.634  16.661  0.00  0.00    +0.000 OA
ENDBRANCH  22  29
ENDBRANCH  18  25
ENDBRANCH   1  19
TORSDOF 5
ENDMDL
MODEL 4
REMARK VINA RESULT:      -8.1      1.064      1.806
REMARK  Name = 
REMARK  6 active torsions:
REMARK  status: ('A' for Active; 'I' for Inactive)
REMARK    1  A    between atoms: C_1  and  C_2
REMARK    2  A    between atoms: C_2  and  C_4
REMARK    3  A    between atoms: C_7  and  N_8
REMARK    4  A    between atoms: C_9  and  C_11
REMARK    5  A    between atoms: N_14  and  C_15
REMARK    6  A    between atoms: C_22  and  N_23
REMARK                            x       y       z     vdW  Elec       q    Type
REMARK                         _______ _______ _______ _____ _____    ______ ____
ROOT
ATOM      1  C   UNL     1       0.416   9.599  21.328  0.00  0.00    +0.000 A 
ATOM      2  C   UNL     1       0.476   9.316  22.704  0.00  0.00    +0.000 A 
ATOM      3  N   UNL     1      -0.145  10.231  23.452  0.00  0.00    +0.000 NA
ATOM      4  N   UNL     1      -0.697  11.101  22.558  0.00  0.00    +0.000 N 
ATOM      5  C   UNL     1      -0.380  10.736  21.264  0.00  0.00    +0.000 A 
ENDROOT
BRANCH   4   6
ATOM      6  C   UNL     1      -1.530  12.155  23.033  0.00  0.00    +0.000 A 
ATOM      7  C   UNL     1      -2.872  11.927  23.375  0.00  0.00    +0.000 A 
ATOM      8  C   UNL     1      -3.697  12.988  23.757  0.00  0.00    +0.000 A 
ATOM      9  C   UNL     1      -3.178  14.277  23.825  0.00  0.00    +0.000 A 
ATOM     10  C   UNL     1      -1.836  14.493  23.527  0.00  0.00    +0.000 A 
ATOM     11  F   UNL     1      -1.346  15.738  23.592  0.00  0.00    +0.000 F 
ATOM     12  C   UNL     1      -1.001  13.447  23.144  0.00  0.00    +0.000 A 
ENDBRANCH   4   6
BRANCH   5  13
ATOM     13  N   UNL     1      -0.663  11.484  20.118  0.00  0.00    +0.000 N 
ATOM     14  C   UNL     1      -1.646  11.204  19.186  0.00  0.00    +0.000 A 
ATOM     15  C   UNL     1      -1.580  12.122  18.163  0.00  0.00    +0.000 A 
ATOM     16  C   UNL     1      -0.542  13.022  18.480  0.00  0.00    +0.000 A 
ATOM     17  C   UNL     1       0.000  12.615  19.679  0.00  0.00    +0.000 A 
ENDBRANCH   5  13
BRANCH   1  19
ATOM     18  N   UNL     1       1.713   7.777  20.353  0.00  0.00    +0.000 N 
ATOM     19  C   UNL     1       1.183   9.051  20.219  0.00  0.00    +0.000 C 
ATOM     20  O   UNL     1       1.342   9.740  19.218  0.00  0.00    +0.000 OA
ATOM     21  H   UNL     1       1.386   7.188  21.109  0.00  0.00    +0.000 HD
BRANCH  18  25
ATOM     22  C   UNL     1       4.320   6.073  17.462  0.00  0.00    +0.000 A 
ATOM     23  C   UNL     1       4.095   5.421  18.668  0.00  0.00    +0.000 A 
ATOM     24  C   UNL     1       3.218   5.968  19.599  0.00  0.00    +0.000 A 
ATOM     25  C   UNL     1       2.564   7.188  19.378  0.00  0.00    +0.000 A 
ATOM     26  C   UNL     1       2.769   7.831  18.154  0.00  0.00    +0.000 A 
ATOM     27  C   UNL     1       3.648   7.279  17.204  0.00  0.00    +0.000 A 
BRANCH  22  29
ATOM     28  C   UNL     1       5.078   4.048  16.054  0.00  0.00    +0.000 C 
ATOM     29  C   UNL     1       5.251   5.494  16.452  0.00  0.00    +0.000 C 
ATOM     30  O   UNL     1       6.126   6.200  15.955  0.00  0.00    +0.000 OA
ENDBRANCH  22  29
ENDBRANCH  18  25
ENDBRANCH   1  19
TORSDOF 5
ENDMDL
MODEL 5
REMARK VINA RESULT:      -8.0      0.772      1.250
REMARK  Name = 
REMARK  6 active torsions:
REMARK  status: ('A' for Active; 'I' for Inactive)
REMARK    1  A    between atoms: C_1  and  C_2
REMARK    2  A    between atoms: C_2  and  C_4
REMARK    3  A    between atoms: C_7  and  N_8
REMARK    4  A    between atoms: C_9  and  C_11
REMARK    5  A    between atoms: N_14  and  C_15
REMARK    6  A    between atoms: C_22  and  N_23
REMARK                            x       y       z     vdW  Elec       q    Type
REMARK                         _______ _______ _______ _____ _____    ______ ____
ROOT
ATOM      1  C   UNL     1       0.854   9.165  20.996  0.00  0.00    +0.000 A 
ATOM      2  C   UNL     1       1.140   9.078  22.370  0.00  0.00    +0.000 A 
ATOM      3  N   UNL     1       0.567  10.050  23.085  0.00  0.00    +0.000 NA
ATOM      4  N   UNL     1      -0.178  10.755  22.186  0.00  0.00    +0.000 N 
ATOM      5  C   UNL     1      -0.030  10.234  20.915  0.00  0.00    +0.000 A 
ENDROOT
BRANCH   4   6
ATOM      6  C   UNL     1      -1.012  11.814  22.648  0.00  0.00    +0.000 A 
ATOM      7  C   UNL     1      -0.616  13.156  22.541  0.00  0.00    +0.000 A 
ATOM      8  C   UNL     1      -1.408  14.175  23.076  0.00  0.00    +0.000 A 
ATOM      9  C   UNL     1      -2.613  13.860  23.696  0.00  0.00    +0.000 A 
ATOM     10  C   UNL     1      -3.024  12.532  23.763  0.00  0.00    +0.000 A 
ATOM     11  F   UNL     1      -4.184  12.237  24.365  0.00  0.00    +0.000 F 
ATOM     12  C   UNL     1      -2.246  11.505  23.236  0.00  0.00    +0.000 A 
ENDBRANCH   4   6
BRANCH   5  13
ATOM     13  N   UNL     1      -0.538  10.800  19.742  0.00  0.00    +0.000 N 
ATOM     14  C   UNL     1      -1.544  10.271  18.954  0.00  0.00    +0.000 A 
ATOM     15  C   UNL     1      -1.725  11.070  17.849  0.00  0.00    +0.000 A 
ATOM     16  C   UNL     1      -0.825  12.148  17.964  0.00  0.00    +0.000 A 
ATOM     17  C   UNL     1      -0.113  11.964  19.130  0.00  0.00    +0.000 A 
ENDBRANCH   5  13
BRANCH   1  19
ATOM     18  N   UNL     1       2.037   7.255  20.044  0.00  0.00    +0.000 N 
ATOM     19  C   UNL     1       1.489   8.515  19.859  0.00  0.00    +0.000 C 
ATOM     20  O   UNL     1       1.528   9.111  18.788  0.00  0.00    +0.000 OA
ATOM     21  H   UNL     1       1.802   6.738  20.882  0.00  0.00    +0.000 HD
BRANCH  18  25
ATOM     22  C   UNL     1       4.287   5.200  17.083  0.00  0.00    +0.000 A 
ATOM     23  C   UNL     1       3.115   4.643  17.579  0.00  0.00    +0.000 A 
ATOM     24  C   UNL     1       2.367   5.333  18.527  0.00  0.00    +0.000 A 
ATOM     25  C   UNL     1       2.770   6.576  19.033  0.00  0.00    +0.000 A 
ATOM     26  C   UNL     1       3.934   7.150  18.514  0.00  0.00    +0.000 A 
ATOM     27  C   UNL     1       4.692   6.461  17.548  0.00  0.00    +0.000 A 
BRANCH  22  29
ATOM     28  C   UNL     1       5.523   5.218  14.819  0.00  0.00    +0.000 C 
ATOM     29  C   UNL     1       5.095   4.475  16.061  0.00  0.00    +0.000 C 
ATOM     30  O   UNL     1       5.407   3.302  16.250  0.00  0.00    +0.000 OA
ENDBRANCH  22  29
ENDBRANCH  18  25
ENDBRANCH   1  19
TORSDOF 5
ENDMDL
MODEL 6
REMARK VINA RESULT:      -7.7      0.655      1.157
REMARK  Name = 
REMARK  6 active torsions:
REMARK  status: ('A' for Active; 'I' for Inactive)
REMARK    1  A    between atoms: C_1  and  C_2
REMARK    2  A    between atoms: C_2  and  C_4
REMARK    3  A    between atoms: C_7  and  N_8
REMARK    4  A    between atoms: C_9  and  C_11
REMARK    5  A    between atoms: N_14  and  C_15
REMARK    6  A    between atoms: C_22  and  N_23
REMARK                            x       y       z     vdW  Elec       q    Type
REMARK                         _______ _______ _______ _____ _____    ______ ____
ROOT
ATOM      1  C   UNL     1       0.123   9.724  21.244  0.00  0.00    +0.000 A 
ATOM      2  C   UNL     1      -0.010   9.434  22.614  0.00  0.00    +0.000 A 
ATOM      3  N   UNL     1      -0.399  10.488  23.335  0.00  0.00    +0.000 NA
ATOM      4  N   UNL     1      -0.605  11.482  22.423  0.00  0.00    +0.000 N 
ATOM      5  C   UNL     1      -0.305  11.042  21.148  0.00  0.00    +0.000 A 
ENDROOT
BRANCH   4   6
ATOM      6  C   UNL     1      -1.135  12.730  22.858  0.00  0.00    +0.000 A 
ATOM      7  C   UNL     1      -0.400  13.919  22.734  0.00  0.00    +0.000 A 
ATOM      8  C   UNL     1      -0.901  15.120  23.243  0.00  0.00    +0.000 A 
ATOM      9  C   UNL     1      -2.150  15.143  23.855  0.00  0.00    +0.000 A 
ATOM     10  C   UNL     1      -2.895  13.971  23.939  0.00  0.00    +0.000 A 
ATOM     11  F   UNL     1      -4.096  14.002  24.533  0.00  0.00    +0.000 F 
ATOM     12  C   UNL     1      -2.410  12.767  23.437  0.00  0.00    +0.000 A 
ENDBRANCH   4   6
BRANCH   5  13
ATOM     13  N   UNL     1      -0.269  11.842  20.002  0.00  0.00    +0.000 N 
ATOM     14  C   UNL     1       0.807  12.597  19.571  0.00  0.00    +0.000 A 
ATOM     15  C   UNL     1       0.447  13.303  18.447  0.00  0.00    +0.000 A 
ATOM     16  C   UNL     1      -0.886  12.957  18.148  0.00  0.00    +0.000 A 
ATOM     17  C   UNL     1      -1.301  12.061  19.109  0.00  0.00    +0.000 A 
ENDBRANCH   5  13
BRANCH   1  19
ATOM     18  N   UNL     1       1.599   7.913  20.539  0.00  0.00    +0.000 N 
ATOM     19  C   UNL     1       0.786   8.979  20.184  0.00  0.00    +0.000 C 
ATOM     20  O   UNL     1       0.612   9.331  19.022  0.00  0.00    +0.000 OA
ATOM     21  H   UNL     1       1.546   7.552  21.482  0.00  0.00    +0.000 HD
BRANCH  18  25
ATOM     22  C   UNL     1       3.988   5.780  17.746  0.00  0.00    +0.000 A 
ATOM     23  C   UNL     1       3.545   5.155  18.905  0.00  0.00    +0.000 A 
ATOM     24  C   UNL     1       2.738   5.849  19.802  0.00  0.00    +0.000 A 
ATOM     25  C   UNL     1       2.374   7.186  19.595  0.00  0.00    +0.000 A 
ATOM     26  C   UNL     1       2.797   7.807  18.416  0.00  0.00    +0.000 A 
ATOM     27  C   UNL     1       3.606   7.108  17.500  0.00  0.00    +0.000 A 
BRANCH  22  29
ATOM     28  C   UNL     1       5.481   5.821  15.643  0.00  0.00    +0.000 C 
ATOM     29  C   UNL     1       4.846   5.047  16.773  0.00  0.00    +0.000 C 
ATOM     30  O   UNL     1       5.031   3.840  16.911  0.00  0.00    +0.000 OA
ENDBRANCH  22  29
ENDBRANCH  18  25
ENDBRANCH   1  19
TORSDOF 5
ENDMDL
MODEL 7
REMARK VINA RESULT:      -7.7      1.129      1.571
REMARK  Name = 
REMARK  6 active torsions:
REMARK  status: ('A' for Active; 'I' for Inactive)
REMARK    1  A    between atoms: C_1  and  C_2
REMARK    2  A    between atoms: C_2  and  C_4
REMARK    3  A    between atoms: C_7  and  N_8
REMARK    4  A    between atoms: C_9  and  C_11
REMARK    5  A    between atoms: N_14  and  C_15
REMARK    6  A    between atoms: C_22  and  N_23
REMARK                            x       y       z     vdW  Elec       q    Type
REMARK                         _______ _______ _______ _____ _____    ______ ____
ROOT
ATOM      1  C   UNL     1       0.335   9.132  21.703  0.00  0.00    +0.000 A 
ATOM      2  C   UNL     1       0.411   9.181  23.107  0.00  0.00    +0.000 A 
ATOM      3  N   UNL     1      -0.099  10.305  23.617  0.00  0.00    +0.000 NA
ATOM      4  N   UNL     1      -0.593  10.987  22.544  0.00  0.00    +0.000 N 
ATOM      5  C   UNL     1      -0.352  10.293  21.373  0.00  0.00    +0.000 A 
ENDROOT
BRANCH   4   6
ATOM      6  C   UNL     1      -1.309  12.200  22.756  0.00  0.00    +0.000 A 
ATOM      7  C   UNL     1      -0.692  13.450  22.596  0.00  0.00    +0.000 A 
ATOM      8  C   UNL     1      -1.385  14.627  22.891  0.00  0.00    +0.000 A 
ATOM      9  C   UNL     1      -2.706  14.561  23.321  0.00  0.00    +0.000 A 
ATOM     10  C   UNL     1      -3.329  13.323  23.438  0.00  0.00    +0.000 A 
ATOM     11  F   UNL     1      -4.601  13.269  23.857  0.00  0.00    +0.000 F 
ATOM     12  C   UNL     1      -2.652  12.141  23.149  0.00  0.00    +0.000 A 
ENDBRANCH   4   6
BRANCH   5  13
ATOM     13  N   UNL     1      -0.598  10.770  20.083  0.00  0.00    +0.000 N 
ATOM     14  C   UNL     1      -1.542  10.276  19.200  0.00  0.00    +0.000 A 
ATOM     15  C   UNL     1      -1.446  10.952  18.005  0.00  0.00    +0.000 A 
ATOM     16  C   UNL     1      -0.430  11.917  18.155  0.00  0.00    +0.000 A 
ATOM     17  C   UNL     1       0.070  11.790  19.432  0.00  0.00    +0.000 A 
ENDBRANCH   5  13
BRANCH   1  19
ATOM     18  N   UNL     1       1.151   6.920  21.074  0.00  0.00    +0.000 N 
ATOM     19  C   UNL     1       1.014   8.262  20.754  0.00  0.00    +0.000 C 
ATOM     20  O   UNL     1       1.449   8.751  19.717  0.00  0.00    +0.000 OA
ATOM     21  H   UNL     1       0.605   6.541  21.838  0.00  0.00    +0.000 HD
BRANCH  18  25
ATOM     22  C   UNL     1       3.285   4.192  18.611  0.00  0.00    +0.000 A 
ATOM     23  C   UNL     1       3.672   5.525  18.675  0.00  0.00    +0.000 A 
ATOM     24  C   UNL     1       2.989   6.407  19.505  0.00  0.00    +0.000 A 
ATOM     25  C   UNL     1       1.885   6.006  20.270  0.00  0.00    +0.000 A 
ATOM     26  C   UNL     1       1.512   4.660  20.228  0.00  0.00    +0.000 A 
ATOM     27  C   UNL     1       2.204   3.759  19.397  0.00  0.00    +0.000 A 
BRANCH  22  29
ATOM     28  C   UNL     1       3.719   1.759  17.872  0.00  0.00    +0.000 C 
ATOM     29  C   UNL     1       4.013   3.234  17.732  0.00  0.00    +0.000 C 
ATOM     30  O   UNL     1       4.821   3.655  16.908  0.00  0.00    +0.000 OA
ENDBRANCH  22  29
ENDBRANCH  18  25
ENDBRANCH   1  19
TORSDOF 5
ENDMDL
MODEL 8
REMARK VINA RESULT:      -7.6      1.835      2.374
REMARK  Name = 
REMARK  6 active torsions:
REMARK  status: ('A' for Active; 'I' for Inactive)
REMARK    1  A    between atoms: C_1  and  C_2
REMARK    2  A    between atoms: C_2  and  C_4
REMARK    3  A    between atoms: C_7  and  N_8
REMARK    4  A    between atoms: C_9  and  C_11
REMARK    5  A    between atoms: N_14  and  C_15
REMARK    6  A    between atoms: C_22  and  N_23
REMARK                            x       y       z     vdW  Elec       q    Type
REMARK                         _______ _______ _______ _____ _____    ______ ____
ROOT
ATOM      1  C   UNL     1       0.123  10.116  22.015  0.00  0.00    +0.000 A 
ATOM      2  C   UNL     1      -0.747  10.057  23.118  0.00  0.00    +0.000 A 
ATOM      3  N   UNL     1      -1.307  11.236  23.404  0.00  0.00    +0.000 NA
ATOM      4  N   UNL     1      -0.864  12.082  22.430  0.00  0.00    +0.000 N 
ATOM      5  C   UNL     1      -0.004  11.426  21.570  0.00  0.00    +0.000 A 
ENDROOT
BRANCH   4   6
ATOM      6  C   UNL     1      -1.365  13.414  22.382  0.00  0.00    +0.000 A 
ATOM      7  C   UNL     1      -0.927  14.393  23.288  0.00  0.00    +0.000 A 
ATOM      8  C   UNL     1      -1.491  15.671  23.280  0.00  0.00    +0.000 A 
ATOM      9  C   UNL     1      -2.477  15.985  22.350  0.00  0.00    +0.000 A 
ATOM     10  C   UNL     1      -2.879  15.026  21.426  0.00  0.00    +0.000 A 
ATOM     11  F   UNL     1      -3.832  15.337  20.536  0.00  0.00    +0.000 F 
ATOM     12  C   UNL     1      -2.328  13.748  21.421  0.00  0.00    +0.000 A 
ENDBRANCH   4   6
BRANCH   5  13
ATOM     13  N   UNL     1       0.737  12.029  20.550  0.00  0.00    +0.000 N 
ATOM     14  C   UNL     1       0.488  11.924  19.193  0.00  0.00    +0.000 A 
ATOM     15  C   UNL     1       1.467  12.595  18.497  0.00  0.00    +0.000 A 
ATOM     16  C   UNL     1       2.338  13.162  19.448  0.00  0.00    +0.000 A 
ATOM     17  C   UNL     1       1.871  12.806  20.695  0.00  0.00    +0.000 A 
ENDBRANCH   5  13
BRANCH   1  19
ATOM     18  N   UNL     1       0.925   8.516  20.357  0.00  0.00    +0.000 N 
ATOM     19  C   UNL     1       1.133   9.172  21.561  0.00  0.00    +0.000 C 
ATOM     20  O   UNL     1       2.120   8.984  22.264  0.00  0.00    +0.000 OA
ATOM     21  H   UNL     1       0.203   8.854  19.734  0.00  0.00    +0.000 HD
BRANCH  18  25
ATOM     22  C   UNL     1       3.587   5.522  18.939  0.00  0.00    +0.000 A 
ATOM     23  C   UNL     1       2.867   5.317  20.110  0.00  0.00    +0.000 A 
ATOM     24  C   UNL     1       1.975   6.288  20.554  0.00  0.00    +0.000 A 
ATOM     25  C   UNL     1       1.792   7.499  19.873  0.00  0.00    +0.000 A 
ATOM     26  C   UNL     1       2.495   7.694  18.681  0.00  0.00    +0.000 A 
ATOM     27  C   UNL     1       3.394   6.713  18.221  0.00  0.00    +0.000 A 
BRANCH  22  29
ATOM     28  C   UNL     1       4.553   4.159  16.974  0.00  0.00    +0.000 C 
ATOM     29  C   UNL     1       4.540   4.488  18.447  0.00  0.00    +0.000 C 
ATOM     30  O   UNL     1       5.301   3.934  19.238  0.00  0.00    +0.000 OA
ENDBRANCH  22  29
ENDBRANCH  18  25
ENDBRANCH   1  19
TORSDOF 5
ENDMDL
MODEL 9
REMARK VINA RESULT:      -7.6      2.066      2.359
REMARK  Name = 
REMARK  6 active torsions:
REMARK  status: ('A' for Active; 'I' for Inactive)
REMARK    1  A    between atoms: C_1  and  C_2
REMARK    2  A    between atoms: C_2  and  C_4
REMARK    3  A    between atoms: C_7  and  N_8
REMARK    4  A    between atoms: C_9  and  C_11
REMARK    5  A    between atoms: N_14  and  C_15
REMARK    6  A    between atoms: C_22  and  N_23
REMARK                            x       y       z     vdW  Elec       q    Type
REMARK                         _______ _______ _______ _____ _____    ______ ____
ROOT
ATOM      1  C   UNL     1       0.078  10.213  22.070  0.00  0.00    +0.000 A 
ATOM      2  C   UNL     1      -0.819  10.225  23.153  0.00  0.00    +0.000 A 
ATOM      3  N   UNL     1      -1.363  11.426  23.365  0.00  0.00    +0.000 NA
ATOM      4  N   UNL     1      -0.882  12.214  22.360  0.00  0.00    +0.000 N 
ATOM      5  C   UNL     1      -0.014  11.500  21.556  0.00  0.00    +0.000 A 
ENDROOT
BRANCH   4   6
ATOM      6  C   UNL     1      -1.357  13.550  22.232  0.00  0.00    +0.000 A 
ATOM      7  C   UNL     1      -0.776  14.605  22.953  0.00  0.00    +0.000 A 
ATOM      8  C   UNL     1      -1.309  15.894  22.880  0.00  0.00    +0.000 A 
ATOM      9  C   UNL     1      -2.408  16.141  22.064  0.00  0.00    +0.000 A 
ATOM     10  C   UNL     1      -2.956  15.103  21.317  0.00  0.00    +0.000 A 
ATOM     11  F   UNL     1      -4.018  15.350  20.537  0.00  0.00    +0.000 F 
ATOM     12  C   UNL     1      -2.438  13.813  21.380  0.00  0.00    +0.000 A 
ENDBRANCH   4   6
BRANCH   5  13
ATOM     13  N   UNL     1       0.763  12.037  20.525  0.00  0.00    +0.000 N 
ATOM     14  C   UNL     1       1.851  12.876  20.681  0.00  0.00    +0.000 A 
ATOM     15  C   UNL     1       2.317  13.252  19.442  0.00  0.00    +0.000 A 
ATOM     16  C   UNL     1       1.513  12.605  18.482  0.00  0.00    +0.000 A 
ATOM     17  C   UNL     1       0.573  11.866  19.167  0.00  0.00    +0.000 A 
ENDBRANCH   5  13
BRANCH   1  19
ATOM     18  N   UNL     1       0.813   8.400  20.611  0.00  0.00    +0.000 N 
ATOM     19  C   UNL     1       1.081   9.229  21.690  0.00  0.00    +0.000 C 
ATOM     20  O   UNL     1       2.116   9.162  22.345  0.00  0.00    +0.000 OA
ATOM     21  H   UNL     1       0.043   8.632  19.996  0.00  0.00    +0.000 HD
BRANCH  18  25
ATOM     22  C   UNL     1       3.320   5.190  19.402  0.00  0.00    +0.000 A 
ATOM     23  C   UNL     1       3.394   6.415  18.752  0.00  0.00    +0.000 A 
ATOM     24  C   UNL     1       2.592   7.472  19.170  0.00  0.00    +0.000 A 
ATOM     25  C   UNL     1       1.674   7.339  20.221  0.00  0.00    +0.000 A 
ATOM     26  C   UNL     1       1.618   6.115  20.893  0.00  0.00    +0.000 A 
ATOM     27  C   UNL     1       2.432   5.043  20.480  0.00  0.00    +0.000 A 
BRANCH  22  29
ATOM     28  C   UNL     1       3.584   3.002  18.060  0.00  0.00    +0.000 C 
ATOM     29  C   UNL     1       4.178   4.051  18.969  0.00  0.00    +0.000 C 
ATOM     30  O   UNL     1       5.347   3.991  19.344  0.00  0.00    +0.000 OA
ENDBRANCH  22  29
ENDBRANCH  18  25
ENDBRANCH   1  19
TORSDOF 5
ENDMDL
