MODEL 1
REMARK VINA RESULT:      -7.6      0.000      0.000
REMARK  Name = 
REMARK  4 active torsions:
REMARK  status: ('A' for Active; 'I' for Inactive)
REMARK    1  A    between atoms: C_1  and  C_2
REMARK    2  A    between atoms: C_2  and  C_3
REMARK    3  A    between atoms: C_3  and  C_4
REMARK    4  A    between atoms: C_7  and  C_8
REMARK                            x       y       z     vdW  Elec       q    Type
REMARK                         _______ _______ _______ _____ _____    ______ ____
ROOT
ATOM      1  C   UNL     1       1.798   3.743  19.430  0.00  0.00    +0.000 C 
ATOM      2  C   UNL     1       0.771   2.623  19.689  0.00  0.00    +0.000 C 
ATOM      3  C   UNL     1       3.199   3.210  19.791  0.00  0.00    +0.000 C 
ATOM      4  O   UNL     1       3.764   2.377  18.788  0.00  0.00    +0.000 OA
ATOM      5  C   UNL     1       3.759   2.981  17.496  0.00  0.00    +0.000 C 
ATOM      6  O   UNL     1       2.418   3.243  17.085  0.00  0.00    +0.000 OA
ATOM      7  C   UNL     1       1.737   4.142  17.947  0.00  0.00    +0.000 C 
ENDROOT
BRANCH   5   8
ATOM      8  C   UNL     1       4.726   4.155  17.332  0.00  0.00    +0.000 A 
ATOM      9  C   UNL     1       4.800   4.879  16.116  0.00  0.00    +0.000 A 
ATOM     10  C   UNL     1       5.680   5.957  15.961  0.00  0.00    +0.000 A 
ATOM     11  C   UNL     1       6.510   6.267  17.012  0.00  0.00    +0.000 A 
ATOM     12  C   UNL     1       6.482   5.548  18.188  0.00  0.00    +0.000 A 
ATOM     13  C   UNL     1       5.618   4.495  18.375  0.00  0.00    +0.000 A 
ATOM     14  O   UNL     1       7.391   6.008  19.088  0.00  0.00    +0.000 OA
ATOM     15  C   UNL     1       8.022   7.059  18.331  0.00  0.00    +0.000 C 
ATOM     16  O   UNL     1       7.433   7.264  17.029  0.00  0.00    +0.000 OA
ENDBRANCH   5   8
BRANCH   1  18
ATOM     17  C   UNL     1       2.312   6.229  20.016  0.00  0.00    +0.000 C 
ATOM     18  C   UNL     1       1.505   4.976  20.328  0.00  0.00    +0.000 C 
ENDBRANCH   1  18
TORSDOF 2
ENDMDL
MODEL 2
REMARK VINA RESULT:      -7.5      1.911      3.154
REMARK  Name = 
REMARK  4 active torsions:
REMARK  status: ('A' for Active; 'I' for Inactive)
REMARK    1  A    between atoms: C_1  and  C_2
REMARK    2  A    between atoms: C_2  and  C_3
REMARK    3  A    between atoms: C_3  and  C_4
REMARK    4  A    between atoms: C_7  and  C_8
REMARK                            x       y       z     vdW  Elec       q    Type
REMARK                         _______ _______ _______ _____ _____    ______ ____
ROOT
ATOM      1  C   UNL     1       1.975   3.544  19.270  0.00  0.00    +0.000 C 
ATOM      2  C   UNL     1       0.744   3.777  20.169  0.00  0.00    +0.000 C 
ATOM      3  C   UNL     1       1.883   4.499  18.063  0.00  0.00    +0.000 C 
ATOM      4  O   UNL     1       2.278   5.831  18.362  0.00  0.00    +0.000 OA
ATOM      5  C   UNL     1       3.560   5.904  18.982  0.00  0.00    +0.000 C 
ATOM      6  O   UNL     1       3.542   5.207  20.226  0.00  0.00    +0.000 OA
ATOM      7  C   UNL     1       3.247   3.825  20.086  0.00  0.00    +0.000 C 
ENDROOT
BRANCH   5   8
ATOM      8  C   UNL     1       4.737   5.562  18.066  0.00  0.00    +0.000 A 
ATOM      9  C   UNL     1       6.046   5.405  18.584  0.00  0.00    +0.000 A 
ATOM     10  C   UNL     1       7.126   5.086  17.751  0.00  0.00    +0.000 A 
ATOM     11  C   UNL     1       6.889   4.976  16.401  0.00  0.00    +0.000 A 
ATOM     12  C   UNL     1       5.630   5.167  15.874  0.00  0.00    +0.000 A 
ATOM     13  C   UNL     1       4.547   5.463  16.669  0.00  0.00    +0.000 A 
ATOM     14  O   UNL     1       5.616   5.028  14.521  0.00  0.00    +0.000 OA
ATOM     15  C   UNL     1       7.011   4.778  14.257  0.00  0.00    +0.000 C 
ATOM     16  O   UNL     1       7.818   4.692  15.451  0.00  0.00    +0.000 OA
ENDBRANCH   5   8
BRANCH   1  18
ATOM     17  C   UNL     1       3.364   1.545  18.343  0.00  0.00    +0.000 C 
ATOM     18  C   UNL     1       1.996   2.087  18.732  0.00  0.00    +0.000 C 
ENDBRANCH   1  18
TORSDOF 2
ENDMDL
MODEL 3
REMARK VINA RESULT:      -7.3      1.054      1.862
REMARK  Name = 
REMARK  4 active torsions:
REMARK  status: ('A' for Active; 'I' for Inactive)
REMARK    1  A    between atoms: C_1  and  C_2
REMARK    2  A    between atoms: C_2  and  C_3
REMARK    3  A    between atoms: C_3  and  C_4
REMARK    4  A    between atoms: C_7  and  C_8
REMARK                            x       y       z     vdW  Elec       q    Type
REMARK                         _______ _______ _______ _____ _____    ______ ____
ROOT
ATOM      1  C   UNL     1       1.627   3.120  19.236  0.00  0.00    +0.000 C 
ATOM      2  C   UNL     1       0.447   2.183  18.911  0.00  0.00    +0.000 C 
ATOM      3  C   UNL     1       2.928   2.295  19.198  0.00  0.00    +0.000 C 
ATOM      4  O   UNL     1       3.407   2.049  17.883  0.00  0.00    +0.000 OA
ATOM      5  C   UNL     1       3.527   3.238  17.105  0.00  0.00    +0.000 C 
ATOM      6  O   UNL     1       2.250   3.856  16.954  0.00  0.00    +0.000 OA
ATOM      7  C   UNL     1       1.671   4.246  18.191  0.00  0.00    +0.000 C 
ENDROOT
BRANCH   5   8
ATOM      8  C   UNL     1       4.652   4.180  17.540  0.00  0.00    +0.000 A 
ATOM      9  C   UNL     1       5.235   4.079  18.828  0.00  0.00    +0.000 A 
ATOM     10  C   UNL     1       6.268   4.936  19.229  0.00  0.00    +0.000 A 
ATOM     11  C   UNL     1       6.672   5.914  18.353  0.00  0.00    +0.000 A 
ATOM     12  C   UNL     1       6.087   6.055  17.112  0.00  0.00    +0.000 A 
ATOM     13  C   UNL     1       5.083   5.218  16.684  0.00  0.00    +0.000 A 
ATOM     14  O   UNL     1       6.621   7.091  16.411  0.00  0.00    +0.000 OA
ATOM     15  C   UNL     1       7.566   7.611  17.366  0.00  0.00    +0.000 C 
ATOM     16  O   UNL     1       7.641   6.837  18.583  0.00  0.00    +0.000 OA
ENDBRANCH   5   8
BRANCH   1  18
ATOM     17  C   UNL     1       1.683   2.747  21.814  0.00  0.00    +0.000 C 
ATOM     18  C   UNL     1       1.477   3.720  20.661  0.00  0.00    +0.000 C 
ENDBRANCH   1  18
TORSDOF 2
ENDMDL
MODEL 4
REMARK VINA RESULT:      -7.2      1.974      2.738
REMARK  Name = 
REMARK  4 active torsions:
REMARK  status: ('A' for Active; 'I' for Inactive)
REMARK    1  A    between atoms: C_1  and  C_2
REMARK    2  A    between atoms: C_2  and  C_3
REMARK    3  A    between atoms: C_3  and  C_4
REMARK    4  A    between atoms: C_7  and  C_8
REMARK                            x       y       z     vdW  Elec       q    Type
REMARK                         _______ _______ _______ _____ _____    ______ ____
ROOT
ATOM      1  C   UNL     1       2.516   5.474  19.304  0.00  0.00    +0.000 C 
ATOM      2  C   UNL     1       1.446   4.980  20.298  0.00  0.00    +0.000 C 
ATOM      3  C   UNL     1       3.904   5.089  19.853  0.00  0.00    +0.000 C 
ATOM      4  O   UNL     1       4.243   3.726  19.634  0.00  0.00    +0.000 OA
ATOM      5  C   UNL     1       4.099   3.329  18.273  0.00  0.00    +0.000 C 
ATOM      6  O   UNL     1       2.739   3.471  17.863  0.00  0.00    +0.000 OA
ATOM      7  C   UNL     1       2.272   4.810  17.939  0.00  0.00    +0.000 C 
ENDROOT
BRANCH   5   8
ATOM      8  C   UNL     1       5.128   3.934  17.315  0.00  0.00    +0.000 A 
ATOM      9  C   UNL     1       6.079   4.882  17.765  0.00  0.00    +0.000 A 
ATOM     10  C   UNL     1       7.026   5.435  16.893  0.00  0.00    +0.000 A 
ATOM     11  C   UNL     1       6.977   5.066  15.570  0.00  0.00    +0.000 A 
ATOM     12  C   UNL     1       6.031   4.176  15.105  0.00  0.00    +0.000 A 
ATOM     13  C   UNL     1       5.100   3.605  15.940  0.00  0.00    +0.000 A 
ATOM     14  O   UNL     1       6.148   3.961  13.768  0.00  0.00    +0.000 OA
ATOM     15  C   UNL     1       7.235   4.848  13.439  0.00  0.00    +0.000 C 
ATOM     16  O   UNL     1       7.802   5.514  14.588  0.00  0.00    +0.000 OA
ENDBRANCH   5   8
BRANCH   1  18
ATOM     17  C   UNL     1       3.009   7.583  17.857  0.00  0.00    +0.000 C 
ATOM     18  C   UNL     1       2.464   7.020  19.162  0.00  0.00    +0.000 C 
ENDBRANCH   1  18
TORSDOF 2
ENDMDL
MODEL 5
REMARK VINA RESULT:      -7.1      2.923      5.422
REMARK  Name = 
REMARK  4 active torsions:
REMARK  status: ('A' for Active; 'I' for Inactive)
REMARK    1  A    between atoms: C_1  and  C_2
REMARK    2  A    between atoms: C_2  and  C_3
REMARK    3  A    between atoms: C_3  and  C_4
REMARK    4  A    between atoms: C_7  and  C_8
REMARK                            x       y       z     vdW  Elec       q    Type
REMARK                         _______ _______ _______ _____ _____    ______ ____
ROOT
ATOM      1  C   UNL     1       6.827   5.650  17.918  0.00  0.00    +0.000 C 
ATOM      2  C   UNL     1       7.701   4.516  17.346  0.00  0.00    +0.000 C 
ATOM      3  C   UNL     1       5.915   6.175  16.793  0.00  0.00    +0.000 C 
ATOM      4  O   UNL     1       4.785   5.349  16.546  0.00  0.00    +0.000 OA
ATOM      5  C   UNL     1       4.037   5.063  17.725  0.00  0.00    +0.000 C 
ATOM      6  O   UNL     1       4.850   4.356  18.661  0.00  0.00    +0.000 OA
ATOM      7  C   UNL     1       5.988   5.095  19.080  0.00  0.00    +0.000 C 
ENDROOT
BRANCH   5   8
ATOM      8  C   UNL     1       3.273   6.255  18.306  0.00  0.00    +0.000 A 
ATOM      9  C   UNL     1       2.696   6.196  19.599  0.00  0.00    +0.000 A 
ATOM     10  C   UNL     1       1.999   7.285  20.136  0.00  0.00    +0.000 A 
ATOM     11  C   UNL     1       1.849   8.405  19.353  0.00  0.00    +0.000 A 
ATOM     12  C   UNL     1       2.368   8.465  18.077  0.00  0.00    +0.000 A 
ATOM     13  C   UNL     1       3.070   7.418  17.528  0.00  0.00    +0.000 A 
ATOM     14  O   UNL     1       2.094   9.651  17.471  0.00  0.00    +0.000 OA
ATOM     15  C   UNL     1       1.308  10.305  18.486  0.00  0.00    +0.000 C 
ATOM     16  O   UNL     1       1.191   9.540  19.706  0.00  0.00    +0.000 OA
ENDBRANCH   5   8
BRANCH   1  18
ATOM     17  C   UNL     1       7.696   8.078  17.542  0.00  0.00    +0.000 C 
ATOM     18  C   UNL     1       7.710   6.829  18.413  0.00  0.00    +0.000 C 
ENDBRANCH   1  18
TORSDOF 2
ENDMDL
MODEL 6
REMARK VINA RESULT:      -7.1      1.863      2.784
REMARK  Name = 
REMARK  4 active torsions:
REMARK  status: ('A' for Active; 'I' for Inactive)
REMARK    1  A    between atoms: C_1  and  C_2
REMARK    2  A    between atoms: C_2  and  C_3
REMARK    3  A    between atoms: C_3  and  C_4
REMARK    4  A    between atoms: C_7  and  C_8
REMARK                            x       y       z     vdW  Elec       q    Type
REMARK                         _______ _______ _______ _____ _____    ______ ____
ROOT
ATOM      1  C   UNL     1       2.367   3.331  20.302  0.00  0.00    +0.000 C 
ATOM      2  C   UNL     1       1.022   3.039  20.997  0.00  0.00    +0.000 C 
ATOM      3  C   UNL     1       2.245   2.930  18.818  0.00  0.00    +0.000 C 
ATOM      4  O   UNL     1       1.558   3.889  18.026  0.00  0.00    +0.000 OA
ATOM      5  C   UNL     1       2.090   5.205  18.163  0.00  0.00    +0.000 C 
ATOM      6  O   UNL     1       1.966   5.644  19.514  0.00  0.00    +0.000 OA
ATOM      7  C   UNL     1       2.680   4.830  20.432  0.00  0.00    +0.000 C 
ENDROOT
BRANCH   5   8
ATOM      8  C   UNL     1       3.474   5.407  17.542  0.00  0.00    +0.000 A 
ATOM      9  C   UNL     1       4.172   6.631  17.690  0.00  0.00    +0.000 A 
ATOM     10  C   UNL     1       5.441   6.819  17.128  0.00  0.00    +0.000 A 
ATOM     11  C   UNL     1       5.975   5.794  16.385  0.00  0.00    +0.000 A 
ATOM     12  C   UNL     1       5.293   4.611  16.195  0.00  0.00    +0.000 A 
ATOM     13  C   UNL     1       4.053   4.391  16.748  0.00  0.00    +0.000 A 
ATOM     14  O   UNL     1       5.990   3.740  15.418  0.00  0.00    +0.000 OA
ATOM     15  C   UNL     1       7.157   4.524  15.104  0.00  0.00    +0.000 C 
ATOM     16  O   UNL     1       7.180   5.812  15.757  0.00  0.00    +0.000 OA
ENDBRANCH   5   8
BRANCH   1  18
ATOM     17  C   UNL     1       4.592   2.013  19.978  0.00  0.00    +0.000 C 
ATOM     18  C   UNL     1       3.509   2.490  20.937  0.00  0.00    +0.000 C 
ENDBRANCH   1  18
TORSDOF 2
ENDMDL
MODEL 7
REMARK VINA RESULT:      -7.1      2.890      5.328
REMARK  Name = 
REMARK  4 active torsions:
REMARK  status: ('A' for Active; 'I' for Inactive)
REMARK    1  A    between atoms: C_1  and  C_2
REMARK    2  A    between atoms: C_2  and  C_3
REMARK    3  A    between atoms: C_3  and  C_4
REMARK    4  A    between atoms: C_7  and  C_8
REMARK                            x       y       z     vdW  Elec       q    Type
REMARK                         _______ _______ _______ _____ _____    ______ ____
ROOT
ATOM      1  C   UNL     1       6.840   5.659  17.979  0.00  0.00    +0.000 C 
ATOM      2  C   UNL     1       7.725   4.485  17.515  0.00  0.00    +0.000 C 
ATOM      3  C   UNL     1       5.954   6.097  16.797  0.00  0.00    +0.000 C 
ATOM      4  O   UNL     1       4.829   5.254  16.587  0.00  0.00    +0.000 OA
ATOM      5  C   UNL     1       4.054   5.057  17.767  0.00  0.00    +0.000 C 
ATOM      6  O   UNL     1       4.845   4.423  18.772  0.00  0.00    +0.000 OA
ATOM      7  C   UNL     1       5.974   5.192  19.160  0.00  0.00    +0.000 C 
ENDROOT
BRANCH   5   8
ATOM      8  C   UNL     1       3.279   6.289  18.239  0.00  0.00    +0.000 A 
ATOM      9  C   UNL     1       3.198   7.456  17.438  0.00  0.00    +0.000 A 
ATOM     10  C   UNL     1       2.486   8.584  17.863  0.00  0.00    +0.000 A 
ATOM     11  C   UNL     1       1.902   8.547  19.107  0.00  0.00    +0.000 A 
ATOM     12  C   UNL     1       2.005   7.437  19.918  0.00  0.00    +0.000 A 
ATOM     13  C   UNL     1       2.684   6.308  19.521  0.00  0.00    +0.000 A 
ATOM     14  O   UNL     1       1.371   7.614  21.108  0.00  0.00    +0.000 OA
ATOM     15  C   UNL     1       0.904   8.970  20.972  0.00  0.00    +0.000 C 
ATOM     16  O   UNL     1       1.192   9.552  19.683  0.00  0.00    +0.000 OA
ENDBRANCH   5   8
BRANCH   1  18
ATOM     17  C   UNL     1       7.623   8.098  17.506  0.00  0.00    +0.000 C 
ATOM     18  C   UNL     1       7.713   6.871  18.404  0.00  0.00    +0.000 C 
ENDBRANCH   1  18
TORSDOF 2
ENDMDL
MODEL 8
REMARK VINA RESULT:      -7.0      2.826      4.315
REMARK  Name = 
REMARK  4 active torsions:
REMARK  status: ('A' for Active; 'I' for Inactive)
REMARK    1  A    between atoms: C_1  and  C_2
REMARK    2  A    between atoms: C_2  and  C_3
REMARK    3  A    between atoms: C_3  and  C_4
REMARK    4  A    between atoms: C_7  and  C_8
REMARK                            x       y       z     vdW  Elec       q    Type
REMARK                         _______ _______ _______ _____ _____    ______ ____
ROOT
ATOM      1  C   UNL     1       2.781   2.683  18.681  0.00  0.00    +0.000 C 
ATOM      2  C   UNL     1       3.567   1.419  18.280  0.00  0.00    +0.000 C 
ATOM      3  C   UNL     1       3.602   3.451  19.735  0.00  0.00    +0.000 C 
ATOM      4  O   UNL     1       4.664   4.214  19.182  0.00  0.00    +0.000 OA
ATOM      5  C   UNL     1       4.239   5.078  18.130  0.00  0.00    +0.000 C 
ATOM      6  O   UNL     1       3.699   4.310  17.055  0.00  0.00    +0.000 OA
ATOM      7  C   UNL     1       2.561   3.550  17.431  0.00  0.00    +0.000 C 
ENDROOT
BRANCH   5   8
ATOM      8  C   UNL     1       3.374   6.258  18.577  0.00  0.00    +0.000 A 
ATOM      9  C   UNL     1       2.712   6.248  19.830  0.00  0.00    +0.000 A 
ATOM     10  C   UNL     1       1.923   7.328  20.246  0.00  0.00    +0.000 A 
ATOM     11  C   UNL     1       1.769   8.385  19.382  0.00  0.00    +0.000 A 
ATOM     12  C   UNL     1       2.371   8.394  18.142  0.00  0.00    +0.000 A 
ATOM     13  C   UNL     1       3.165   7.356  17.712  0.00  0.00    +0.000 A 
ATOM     14  O   UNL     1       2.078   9.522  17.440  0.00  0.00    +0.000 OA
ATOM     15  C   UNL     1       1.190  10.192  18.355  0.00  0.00    +0.000 C 
ATOM     16  O   UNL     1       1.029   9.501  19.613  0.00  0.00    +0.000 OA
ENDBRANCH   5   8
BRANCH   1  18
ATOM     17  C   UNL     1       1.094   2.971  20.645  0.00  0.00    +0.000 C 
ATOM     18  C   UNL     1       1.415   2.303  19.315  0.00  0.00    +0.000 C 
ENDBRANCH   1  18
TORSDOF 2
ENDMDL
MODEL 9
REMARK VINA RESULT:      -7.0      1.528      2.229
REMARK  Name = 
REMARK  4 active torsions:
REMARK  status: ('A' for Active; 'I' for Inactive)
REMARK    1  A    between atoms: C_1  and  C_2
REMARK    2  A    between atoms: C_2  and  C_3
REMARK    3  A    between atoms: C_3  and  C_4
REMARK    4  A    between atoms: C_7  and  C_8
REMARK                            x       y       z     vdW  Elec       q    Type
REMARK                         _______ _______ _______ _____ _____    ______ ____
ROOT
ATOM      1  C   UNL     1       1.878   4.230  19.638  0.00  0.00    +0.000 C 
ATOM      2  C   UNL     1       0.690   3.491  20.287  0.00  0.00    +0.000 C 
ATOM      3  C   UNL     1       3.178   3.503  20.037  0.00  0.00    +0.000 C 
ATOM      4  O   UNL     1       3.423   2.323  19.285  0.00  0.00    +0.000 OA
ATOM      5  C   UNL     1       3.364   2.540  17.877  0.00  0.00    +0.000 C 
ATOM      6  O   UNL     1       2.061   2.986  17.504  0.00  0.00    +0.000 OA
ATOM      7  C   UNL     1       1.699   4.217  18.112  0.00  0.00    +0.000 C 
ENDROOT
BRANCH   5   8
ATOM      8  C   UNL     1       4.517   3.369  17.306  0.00  0.00    +0.000 A 
ATOM      9  C   UNL     1       5.308   4.197  18.140  0.00  0.00    +0.000 A 
ATOM     10  C   UNL     1       6.367   4.954  17.623  0.00  0.00    +0.000 A 
ATOM     11  C   UNL     1       6.591   4.908  16.268  0.00  0.00    +0.000 A 
ATOM     12  C   UNL     1       5.806   4.141  15.435  0.00  0.00    +0.000 A 
ATOM     13  C   UNL     1       4.770   3.375  15.915  0.00  0.00    +0.000 A 
ATOM     14  O   UNL     1       6.185   4.250  14.133  0.00  0.00    +0.000 OA
ATOM     15  C   UNL     1       7.259   5.204  14.239  0.00  0.00    +0.000 C 
ATOM     16  O   UNL     1       7.558   5.588  15.598  0.00  0.00    +0.000 OA
ENDBRANCH   5   8
BRANCH   1  18
ATOM     17  C   UNL     1       2.697   6.672  19.247  0.00  0.00    +0.000 C 
ATOM     18  C   UNL     1       1.964   5.692  20.154  0.00  0.00    +0.000 C 
ENDBRANCH   1  18
TORSDOF 2
ENDMDL
