MODEL 1
REMARK VINA RESULT:      -9.0      0.000      0.000
REMARK  Name = 
REMARK  9 active torsions:
REMARK  status: ('A' for Active; 'I' for Inactive)
REMARK    1  A    between atoms: N_1  and  C_2
REMARK    2  A    between atoms: C_2  and  C_3
REMARK    3  A    between atoms: C_3  and  C_4
REMARK    4  A    between atoms: C_4  and  N_5
REMARK    5  A    between atoms: C_6  and  C_8
REMARK    6  A    between atoms: C_10  and  N_11
REMARK    7  A    between atoms: C_12  and  C_14
REMARK    8  A    between atoms: C_16  and  C_17
REMARK    9  A    between atoms: N_28  and  C_29
REMARK                            x       y       z     vdW  Elec       q    Type
REMARK                         _______ _______ _______ _____ _____    ______ ____
ROOT
ATOM      1  C   UNL     1       6.454   4.555  14.135  0.00  0.00    +0.000 A 
ATOM      2  C   UNL     1       5.245   4.297  14.840  0.00  0.00    +0.000 A 
ATOM      3  C   UNL     1       5.364   4.988  16.018  0.00  0.00    +0.000 A 
ATOM      4  N   UNL     1       6.627   5.558  16.017  0.00  0.00    +0.000 N 
ATOM      5  N   UNL     1       7.275   5.357  14.842  0.00  0.00    +0.000 NA
ENDROOT
BRANCH   4   6
ATOM      6  C   UNL     1       7.216   6.302  17.071  0.00  0.00    +0.000 A 
ATOM      7  C   UNL     1       7.434   7.684  16.945  0.00  0.00    +0.000 A 
ATOM      8  C   UNL     1       8.093   8.383  17.956  0.00  0.00    +0.000 A 
ATOM      9  C   UNL     1       8.535   7.707  19.091  0.00  0.00    +0.000 A 
ATOM     10  C   UNL     1       8.282   6.344  19.239  0.00  0.00    +0.000 A 
ATOM     11  C   UNL     1       7.603   5.642  18.242  0.00  0.00    +0.000 A 
ENDBRANCH   4   6
BRANCH   1  13
ATOM     12  N   UNL     1       6.154   2.892  12.436  0.00  0.00    +0.000 N 
ATOM     13  C   UNL     1       6.788   4.067  12.786  0.00  0.00    +0.000 C 
ATOM     14  O   UNL     1       7.559   4.668  12.053  0.00  0.00    +0.000 OA
ATOM     15  H   UNL     1       5.541   2.479  13.129  0.00  0.00    +0.000 HD
BRANCH  12  16
ATOM     16  C   UNL     1       6.369   2.247  11.156  0.00  0.00    +0.000 C 
BRANCH  16  17
ATOM     17  C   UNL     1       6.880   0.815  11.312  0.00  0.00    +0.000 C 
BRANCH  17  18
ATOM     18  C   UNL     1       5.774  -0.195  11.003  0.00  0.00    +0.000 C 
BRANCH  18  19
ATOM     19  N   UNL     1       6.076  -1.491  11.595  0.00  0.00    +0.000 NA
ATOM     20  H   UNL     1       6.499  -2.097  10.889  0.00  0.00    +0.000 HD
ATOM     21  H   UNL     1       5.212  -1.949  11.884  0.00  0.00    +0.000 HD
ENDBRANCH  18  19
ENDBRANCH  17  18
ENDBRANCH  16  17
ENDBRANCH  12  16
ENDBRANCH   1  13
BRANCH   3  22
ATOM     22  N   UNL     1       4.347   5.223  16.936  0.00  0.00    +0.000 N 
ATOM     23  C   UNL     1       4.212   4.452  18.134  0.00  0.00    +0.000 C 
ATOM     24  O   UNL     1       5.014   3.568  18.378  0.00  0.00    +0.000 OA
ATOM     25  H   UNL     1       3.786   6.059  16.803  0.00  0.00    +0.000 HD
BRANCH  23  26
ATOM     26  C   UNL     1       3.176   4.889  19.106  0.00  0.00    +0.000 A 
ATOM     27  C   UNL     1       2.824   6.253  19.101  0.00  0.00    +0.000 A 
ATOM     28  C   UNL     1       1.871   6.782  19.999  0.00  0.00    +0.000 A 
ATOM     29  C   UNL     1       1.258   5.884  20.882  0.00  0.00    +0.000 A 
ATOM     30  C   UNL     1       1.595   4.530  20.896  0.00  0.00    +0.000 A 
ATOM     31  C   UNL     1       2.553   4.029  20.015  0.00  0.00    +0.000 A 
ATOM     32 CL   UNL     1       2.916   2.346  20.142  0.00  0.00    +0.000 Cl
BRANCH  28  33
ATOM     33  C   UNL     1       1.553   8.226  19.997  0.00  0.00    +0.000 A 
ATOM     34  N   UNL     1       1.284   8.764  21.220  0.00  0.00    +0.000 NA
ATOM     35  C   UNL     1       0.963  10.079  21.270  0.00  0.00    +0.000 A 
ATOM     36  C   UNL     1       0.891  10.901  20.157  0.00  0.00    +0.000 A 
ATOM     37  C   UNL     1       1.167  10.346  18.914  0.00  0.00    +0.000 A 
ATOM     38  C   UNL     1       1.498   9.000  18.835  0.00  0.00    +0.000 A 
ATOM     39  F   UNL     1       1.735   8.470  17.625  0.00  0.00    +0.000 F 
ENDBRANCH  28  33
ENDBRANCH  23  26
ENDBRANCH   3  22
TORSDOF 9
ENDMDL
MODEL 2
REMARK VINA RESULT:      -8.9      2.584      4.741
REMARK  Name = 
REMARK  9 active torsions:
REMARK  status: ('A' for Active; 'I' for Inactive)
REMARK    1  A    between atoms: N_1  and  C_2
REMARK    2  A    between atoms: C_2  and  C_3
REMARK    3  A    between atoms: C_3  and  C_4
REMARK    4  A    between atoms: C_4  and  N_5
REMARK    5  A    between atoms: C_6  and  C_8
REMARK    6  A    between atoms: C_10  and  N_11
REMARK    7  A    between atoms: C_12  and  C_14
REMARK    8  A    between atoms: C_16  and  C_17
REMARK    9  A    between atoms: N_28  and  C_29
REMARK                            x       y       z     vdW  Elec       q    Type
REMARK                         _______ _______ _______ _____ _____    ______ ____
ROOT
ATOM      1  C   UNL     1       5.071   5.230  16.317  0.00  0.00    +0.000 A 
ATOM      2  C   UNL     1       4.618   6.526  16.689  0.00  0.00    +0.000 A 
ATOM      3  C   UNL     1       3.789   6.320  17.761  0.00  0.00    +0.000 A 
ATOM      4  N   UNL     1       3.713   4.949  17.946  0.00  0.00    +0.000 N 
ATOM      5  N   UNL     1       4.547   4.277  17.113  0.00  0.00    +0.000 NA
ENDROOT
BRANCH   4   6
ATOM      6  C   UNL     1       2.907   4.270  18.896  0.00  0.00    +0.000 A 
ATOM      7  C   UNL     1       3.469   3.734  20.067  0.00  0.00    +0.000 A 
ATOM      8  C   UNL     1       2.678   2.996  20.946  0.00  0.00    +0.000 A 
ATOM      9  C   UNL     1       1.331   2.790  20.661  0.00  0.00    +0.000 A 
ATOM     10  C   UNL     1       0.760   3.357  19.521  0.00  0.00    +0.000 A 
ATOM     11  C   UNL     1       1.540   4.117  18.648  0.00  0.00    +0.000 A 
ENDBRANCH   4   6
BRANCH   1  13
ATOM     12  N   UNL     1       5.527   4.092  14.258  0.00  0.00    +0.000 N 
ATOM     13  C   UNL     1       6.026   4.926  15.237  0.00  0.00    +0.000 C 
ATOM     14  O   UNL     1       7.158   5.388  15.225  0.00  0.00    +0.000 OA
ATOM     15  H   UNL     1       4.575   3.765  14.377  0.00  0.00    +0.000 HD
BRANCH  12  16
ATOM     16  C   UNL     1       6.322   3.666  13.123  0.00  0.00    +0.000 C 
BRANCH  16  17
ATOM     17  C   UNL     1       5.455   3.290  11.922  0.00  0.00    +0.000 C 
BRANCH  17  18
ATOM     18  C   UNL     1       5.821   1.900  11.400  0.00  0.00    +0.000 C 
BRANCH  18  19
ATOM     19  N   UNL     1       7.266   1.713  11.392  0.00  0.00    +0.000 NA
ATOM     20  H   UNL     1       7.537   1.123  12.181  0.00  0.00    +0.000 HD
ATOM     21  H   UNL     1       7.731   2.610  11.532  0.00  0.00    +0.000 HD
ENDBRANCH  18  19
ENDBRANCH  17  18
ENDBRANCH  16  17
ENDBRANCH  12  16
ENDBRANCH   1  13
BRANCH   3  22
ATOM     22  N   UNL     1       3.283   7.301  18.606  0.00  0.00    +0.000 N 
ATOM     23  C   UNL     1       2.083   8.020  18.303  0.00  0.00    +0.000 C 
ATOM     24  O   UNL     1       1.466   7.765  17.284  0.00  0.00    +0.000 OA
ATOM     25  H   UNL     1       3.713   7.393  19.521  0.00  0.00    +0.000 HD
BRANCH  23  26
ATOM     26  C   UNL     1       1.565   8.941  19.348  0.00  0.00    +0.000 A 
ATOM     27  C   UNL     1       1.425  10.298  18.999  0.00  0.00    +0.000 A 
ATOM     28  C   UNL     1       0.967  11.265  19.921  0.00  0.00    +0.000 A 
ATOM     29  C   UNL     1       0.621  10.812  21.200  0.00  0.00    +0.000 A 
ATOM     30  C   UNL     1       0.750   9.470  21.560  0.00  0.00    +0.000 A 
ATOM     31  C   UNL     1       1.224   8.534  20.641  0.00  0.00    +0.000 A 
ATOM     32 CL   UNL     1       1.376   6.907  21.203  0.00  0.00    +0.000 Cl
BRANCH  28  33
ATOM     33  C   UNL     1       0.871  12.689  19.536  0.00  0.00    +0.000 A 
ATOM     34  N   UNL     1      -0.318  13.290  19.824  0.00  0.00    +0.000 NA
ATOM     35  C   UNL     1      -0.466  14.589  19.470  0.00  0.00    +0.000 A 
ATOM     36  C   UNL     1       0.513  15.335  18.833  0.00  0.00    +0.000 A 
ATOM     37  C   UNL     1       1.722  14.715  18.543  0.00  0.00    +0.000 A 
ATOM     38  C   UNL     1       1.900  13.384  18.896  0.00  0.00    +0.000 A 
ATOM     39  F   UNL     1       3.062  12.790  18.584  0.00  0.00    +0.000 F 
ENDBRANCH  28  33
ENDBRANCH  23  26
ENDBRANCH   3  22
TORSDOF 9
ENDMDL
MODEL 3
REMARK VINA RESULT:      -8.8      2.760      4.662
REMARK  Name = 
REMARK  9 active torsions:
REMARK  status: ('A' for Active; 'I' for Inactive)
REMARK    1  A    between atoms: N_1  and  C_2
REMARK    2  A    between atoms: C_2  and  C_3
REMARK    3  A    between atoms: C_3  and  C_4
REMARK    4  A    between atoms: C_4  and  N_5
REMARK    5  A    between atoms: C_6  and  C_8
REMARK    6  A    between atoms: C_10  and  N_11
REMARK    7  A    between atoms: C_12  and  C_14
REMARK    8  A    between atoms: C_16  and  C_17
REMARK    9  A    between atoms: N_28  and  C_29
REMARK                            x       y       z     vdW  Elec       q    Type
REMARK                         _______ _______ _______ _____ _____    ______ ____
ROOT
ATOM      1  C   UNL     1       5.308   5.241  15.962  0.00  0.00    +0.000 A 
ATOM      2  C   UNL     1       4.863   6.529  16.372  0.00  0.00    +0.000 A 
ATOM      3  C   UNL     1       4.002   6.294  17.413  0.00  0.00    +0.000 A 
ATOM      4  N   UNL     1       3.902   4.919  17.543  0.00  0.00    +0.000 N 
ATOM      5  N   UNL     1       4.749   4.266  16.707  0.00  0.00    +0.000 NA
ENDROOT
BRANCH   4   6
ATOM      6  C   UNL     1       3.061   4.216  18.444  0.00  0.00    +0.000 A 
ATOM      7  C   UNL     1       3.527   3.828  19.712  0.00  0.00    +0.000 A 
ATOM      8  C   UNL     1       2.716   3.064  20.550  0.00  0.00    +0.000 A 
ATOM      9  C   UNL     1       1.444   2.685  20.128  0.00  0.00    +0.000 A 
ATOM     10  C   UNL     1       0.963   3.105  18.887  0.00  0.00    +0.000 A 
ATOM     11  C   UNL     1       1.759   3.890  18.052  0.00  0.00    +0.000 A 
ENDBRANCH   4   6
BRANCH   1  13
ATOM     12  N   UNL     1       5.805   4.169  13.878  0.00  0.00    +0.000 N 
ATOM     13  C   UNL     1       6.287   4.964  14.897  0.00  0.00    +0.000 C 
ATOM     14  O   UNL     1       7.423   5.415  14.930  0.00  0.00    +0.000 OA
ATOM     15  H   UNL     1       4.847   3.848  13.961  0.00  0.00    +0.000 HD
BRANCH  12  16
ATOM     16  C   UNL     1       6.625   3.774  12.750  0.00  0.00    +0.000 C 
BRANCH  16  17
ATOM     17  C   UNL     1       5.834   2.969  11.718  0.00  0.00    +0.000 C 
BRANCH  17  18
ATOM     18  C   UNL     1       4.334   3.227  11.860  0.00  0.00    +0.000 C 
BRANCH  18  19
ATOM     19  N   UNL     1       3.721   3.450  10.557  0.00  0.00    +0.000 NA
ATOM     20  H   UNL     1       4.345   4.016   9.979  0.00  0.00    +0.000 HD
ATOM     21  H   UNL     1       2.863   3.991  10.666  0.00  0.00    +0.000 HD
ENDBRANCH  18  19
ENDBRANCH  17  18
ENDBRANCH  16  17
ENDBRANCH  12  16
ENDBRANCH   1  13
BRANCH   3  22
ATOM     22  N   UNL     1       3.487   7.250  18.281  0.00  0.00    +0.000 N 
ATOM     23  C   UNL     1       2.172   7.791  18.123  0.00  0.00    +0.000 C 
ATOM     24  O   UNL     1       1.463   7.400  17.213  0.00  0.00    +0.000 OA
ATOM     25  H   UNL     1       4.021   7.449  19.122  0.00  0.00    +0.000 HD
BRANCH  23  26
ATOM     26  C   UNL     1       1.680   8.696  19.194  0.00  0.00    +0.000 A 
ATOM     27  C   UNL     1       1.532  10.059  18.868  0.00  0.00    +0.000 A 
ATOM     28  C   UNL     1       1.098  11.012  19.814  0.00  0.00    +0.000 A 
ATOM     29  C   UNL     1       0.783  10.541  21.096  0.00  0.00    +0.000 A 
ATOM     30  C   UNL     1       0.921   9.194  21.433  0.00  0.00    +0.000 A 
ATOM     31  C   UNL     1       1.371   8.271  20.489  0.00  0.00    +0.000 A 
ATOM     32 CL   UNL     1       1.536   6.637  21.023  0.00  0.00    +0.000 Cl
BRANCH  28  33
ATOM     33  C   UNL     1       0.993  12.442  19.452  0.00  0.00    +0.000 A 
ATOM     34  N   UNL     1       2.180  13.074  19.232  0.00  0.00    +0.000 NA
ATOM     35  C   UNL     1       2.140  14.391  18.921  0.00  0.00    +0.000 A 
ATOM     36  C   UNL     1       0.971  15.128  18.817  0.00  0.00    +0.000 A 
ATOM     37  C   UNL     1      -0.235  14.476  19.042  0.00  0.00    +0.000 A 
ATOM     38  C   UNL     1      -0.222  13.126  19.363  0.00  0.00    +0.000 A 
ATOM     39  F   UNL     1      -1.392  12.515  19.606  0.00  0.00    +0.000 F 
ENDBRANCH  28  33
ENDBRANCH  23  26
ENDBRANCH   3  22
TORSDOF 9
ENDMDL
MODEL 4
REMARK VINA RESULT:      -8.8      2.693      4.873
REMARK  Name = 
REMARK  9 active torsions:
REMARK  status: ('A' for Active; 'I' for Inactive)
REMARK    1  A    between atoms: N_1  and  C_2
REMARK    2  A    between atoms: C_2  and  C_3
REMARK    3  A    between atoms: C_3  and  C_4
REMARK    4  A    between atoms: C_4  and  N_5
REMARK    5  A    between atoms: C_6  and  C_8
REMARK    6  A    between atoms: C_10  and  N_11
REMARK    7  A    between atoms: C_12  and  C_14
REMARK    8  A    between atoms: C_16  and  C_17
REMARK    9  A    between atoms: N_28  and  C_29
REMARK                            x       y       z     vdW  Elec       q    Type
REMARK                         _______ _______ _______ _____ _____    ______ ____
ROOT
ATOM      1  C   UNL     1       5.125   5.370  16.464  0.00  0.00    +0.000 A 
ATOM      2  C   UNL     1       4.622   6.632  16.888  0.00  0.00    +0.000 A 
ATOM      3  C   UNL     1       3.737   6.344  17.893  0.00  0.00    +0.000 A 
ATOM      4  N   UNL     1       3.681   4.963  17.989  0.00  0.00    +0.000 N 
ATOM      5  N   UNL     1       4.576   4.360  17.167  0.00  0.00    +0.000 NA
ENDROOT
BRANCH   4   6
ATOM      6  C   UNL     1       2.836   4.211  18.846  0.00  0.00    +0.000 A 
ATOM      7  C   UNL     1       1.597   3.726  18.393  0.00  0.00    +0.000 A 
ATOM      8  C   UNL     1       0.743   3.064  19.274  0.00  0.00    +0.000 A 
ATOM      9  C   UNL     1       1.119   2.886  20.603  0.00  0.00    +0.000 A 
ATOM     10  C   UNL     1       2.366   3.328  21.045  0.00  0.00    +0.000 A 
ATOM     11  C   UNL     1       3.237   3.971  20.163  0.00  0.00    +0.000 A 
ENDBRANCH   4   6
BRANCH   1  13
ATOM     12  N   UNL     1       5.739   4.335  14.392  0.00  0.00    +0.000 N 
ATOM     13  C   UNL     1       6.147   5.152  15.426  0.00  0.00    +0.000 C 
ATOM     14  O   UNL     1       7.255   5.665  15.491  0.00  0.00    +0.000 OA
ATOM     15  H   UNL     1       4.799   3.961  14.448  0.00  0.00    +0.000 HD
BRANCH  12  16
ATOM     16  C   UNL     1       6.610   3.989  13.286  0.00  0.00    +0.000 C 
BRANCH  16  17
ATOM     17  C   UNL     1       5.882   3.187  12.208  0.00  0.00    +0.000 C 
BRANCH  17  18
ATOM     18  C   UNL     1       6.854   2.278  11.456  0.00  0.00    +0.000 C 
BRANCH  18  19
ATOM     19  N   UNL     1       6.278   0.955  11.258  0.00  0.00    +0.000 NA
ATOM     20  H   UNL     1       6.294   0.723  10.263  0.00  0.00    +0.000 HD
ATOM     21  H   UNL     1       5.297   0.959  11.535  0.00  0.00    +0.000 HD
ENDBRANCH  18  19
ENDBRANCH  17  18
ENDBRANCH  16  17
ENDBRANCH  12  16
ENDBRANCH   1  13
BRANCH   3  22
ATOM     22  N   UNL     1       3.161   7.261  18.766  0.00  0.00    +0.000 N 
ATOM     23  C   UNL     1       2.296   8.305  18.309  0.00  0.00    +0.000 C 
ATOM     24  O   UNL     1       2.034   8.397  17.123  0.00  0.00    +0.000 OA
ATOM     25  H   UNL     1       3.257   7.079  19.761  0.00  0.00    +0.000 HD
BRANCH  23  26
ATOM     26  C   UNL     1       1.629   9.133  19.347  0.00  0.00    +0.000 A 
ATOM     27  C   UNL     1       1.516  10.514  19.094  0.00  0.00    +0.000 A 
ATOM     28  C   UNL     1       0.924  11.398  20.023  0.00  0.00    +0.000 A 
ATOM     29  C   UNL     1       0.416  10.839  21.202  0.00  0.00    +0.000 A 
ATOM     30  C   UNL     1       0.517   9.472  21.465  0.00  0.00    +0.000 A 
ATOM     31  C   UNL     1       1.124   8.618  20.544  0.00  0.00    +0.000 A 
ATOM     32 CL   UNL     1       1.225   6.951  20.985  0.00  0.00    +0.000 Cl
BRANCH  28  33
ATOM     33  C   UNL     1       0.858  12.849  19.746  0.00  0.00    +0.000 A 
ATOM     34  N   UNL     1      -0.242  13.260  19.054  0.00  0.00    +0.000 NA
ATOM     35  C   UNL     1      -0.337  14.577  18.754  0.00  0.00    +0.000 A 
ATOM     36  C   UNL     1       0.612  15.523  19.106  0.00  0.00    +0.000 A 
ATOM     37  C   UNL     1       1.730  15.097  19.813  0.00  0.00    +0.000 A 
ATOM     38  C   UNL     1       1.852  13.752  20.132  0.00  0.00    +0.000 A 
ATOM     39  F   UNL     1       2.951  13.349  20.790  0.00  0.00    +0.000 F 
ENDBRANCH  28  33
ENDBRANCH  23  26
ENDBRANCH   3  22
TORSDOF 9
ENDMDL
MODEL 5
REMARK VINA RESULT:      -8.8      2.669      4.844
REMARK  Name = 
REMARK  9 active torsions:
REMARK  status: ('A' for Active; 'I' for Inactive)
REMARK    1  A    between atoms: N_1  and  C_2
REMARK    2  A    between atoms: C_2  and  C_3
REMARK    3  A    between atoms: C_3  and  C_4
REMARK    4  A    between atoms: C_4  and  N_5
REMARK    5  A    between atoms: C_6  and  C_8
REMARK    6  A    between atoms: C_10  and  N_11
REMARK    7  A    between atoms: C_12  and  C_14
REMARK    8  A    between atoms: C_16  and  C_17
REMARK    9  A    between atoms: N_28  and  C_29
REMARK                            x       y       z     vdW  Elec       q    Type
REMARK                         _______ _______ _______ _____ _____    ______ ____
ROOT
ATOM      1  C   UNL     1       5.165   5.343  16.378  0.00  0.00    +0.000 A 
ATOM      2  C   UNL     1       4.664   6.611  16.785  0.00  0.00    +0.000 A 
ATOM      3  C   UNL     1       3.773   6.338  17.790  0.00  0.00    +0.000 A 
ATOM      4  N   UNL     1       3.712   4.958  17.901  0.00  0.00    +0.000 N 
ATOM      5  N   UNL     1       4.610   4.343  17.090  0.00  0.00    +0.000 NA
ENDROOT
BRANCH   4   6
ATOM      6  C   UNL     1       2.861   4.219  18.762  0.00  0.00    +0.000 A 
ATOM      7  C   UNL     1       1.639   3.701  18.298  0.00  0.00    +0.000 A 
ATOM      8  C   UNL     1       0.777   3.052  19.180  0.00  0.00    +0.000 A 
ATOM      9  C   UNL     1       1.127   2.919  20.522  0.00  0.00    +0.000 A 
ATOM     10  C   UNL     1       2.358   3.394  20.976  0.00  0.00    +0.000 A 
ATOM     11  C   UNL     1       3.237   4.024  20.094  0.00  0.00    +0.000 A 
ENDBRANCH   4   6
BRANCH   1  13
ATOM     12  N   UNL     1       5.799   4.252  14.341  0.00  0.00    +0.000 N 
ATOM     13  C   UNL     1       6.191   5.110  15.348  0.00  0.00    +0.000 C 
ATOM     14  O   UNL     1       7.289   5.646  15.395  0.00  0.00    +0.000 OA
ATOM     15  H   UNL     1       4.866   3.862  14.410  0.00  0.00    +0.000 HD
BRANCH  12  16
ATOM     16  C   UNL     1       6.677   3.886  13.248  0.00  0.00    +0.000 C 
BRANCH  16  17
ATOM     17  C   UNL     1       5.900   3.524  11.982  0.00  0.00    +0.000 C 
BRANCH  17  18
ATOM     18  C   UNL     1       5.842   2.007  11.795  0.00  0.00    +0.000 C 
BRANCH  18  19
ATOM     19  N   UNL     1       7.097   1.503  11.254  0.00  0.00    +0.000 NA
ATOM     20  H   UNL     1       6.902   0.851  10.492  0.00  0.00    +0.000 HD
ATOM     21  H   UNL     1       7.593   0.970  11.968  0.00  0.00    +0.000 HD
ENDBRANCH  18  19
ENDBRANCH  17  18
ENDBRANCH  16  17
ENDBRANCH  12  16
ENDBRANCH   1  13
BRANCH   3  22
ATOM     22  N   UNL     1       3.196   7.266  18.649  0.00  0.00    +0.000 N 
ATOM     23  C   UNL     1       2.380   8.340  18.171  0.00  0.00    +0.000 C 
ATOM     24  O   UNL     1       2.162   8.448  16.977  0.00  0.00    +0.000 OA
ATOM     25  H   UNL     1       3.252   7.075  19.645  0.00  0.00    +0.000 HD
BRANCH  23  26
ATOM     26  C   UNL     1       1.703   9.181  19.191  0.00  0.00    +0.000 A 
ATOM     27  C   UNL     1       1.602  10.561  18.925  0.00  0.00    +0.000 A 
ATOM     28  C   UNL     1       1.002  11.457  19.836  0.00  0.00    +0.000 A 
ATOM     29  C   UNL     1       0.475  10.912  21.014  0.00  0.00    +0.000 A 
ATOM     30  C   UNL     1       0.564   9.546  21.290  0.00  0.00    +0.000 A 
ATOM     31  C   UNL     1       1.179   8.680  20.387  0.00  0.00    +0.000 A 
ATOM     32 CL   UNL     1       1.263   7.017  20.844  0.00  0.00    +0.000 Cl
BRANCH  28  33
ATOM     33  C   UNL     1       0.949  12.906  19.546  0.00  0.00    +0.000 A 
ATOM     34  N   UNL     1       2.095  13.594  19.812  0.00  0.00    +0.000 NA
ATOM     35  C   UNL     1       2.090  14.929  19.586  0.00  0.00    +0.000 A 
ATOM     36  C   UNL     1       0.996  15.630  19.105  0.00  0.00    +0.000 A 
ATOM     37  C   UNL     1      -0.168  14.921  18.836  0.00  0.00    +0.000 A 
ATOM     38  C   UNL     1      -0.190  13.551  19.059  0.00  0.00    +0.000 A 
ATOM     39  F   UNL     1      -1.330  12.883  18.821  0.00  0.00    +0.000 F 
ENDBRANCH  28  33
ENDBRANCH  23  26
ENDBRANCH   3  22
TORSDOF 9
ENDMDL
MODEL 6
REMARK VINA RESULT:      -8.8      0.949      1.151
REMARK  Name = 
REMARK  9 active torsions:
REMARK  status: ('A' for Active; 'I' for Inactive)
REMARK    1  A    between atoms: N_1  and  C_2
REMARK    2  A    between atoms: C_2  and  C_3
REMARK    3  A    between atoms: C_3  and  C_4
REMARK    4  A    between atoms: C_4  and  N_5
REMARK    5  A    between atoms: C_6  and  C_8
REMARK    6  A    between atoms: C_10  and  N_11
REMARK    7  A    between atoms: C_12  and  C_14
REMARK    8  A    between atoms: C_16  and  C_17
REMARK    9  A    between atoms: N_28  and  C_29
REMARK                            x       y       z     vdW  Elec       q    Type
REMARK                         _______ _______ _______ _____ _____    ______ ____
ROOT
ATOM      1  C   UNL     1       6.374   4.545  14.128  0.00  0.00    +0.000 A 
ATOM      2  C   UNL     1       5.177   4.293  14.855  0.00  0.00    +0.000 A 
ATOM      3  C   UNL     1       5.315   4.994  16.024  0.00  0.00    +0.000 A 
ATOM      4  N   UNL     1       6.577   5.565  15.998  0.00  0.00    +0.000 N 
ATOM      5  N   UNL     1       7.206   5.354  14.814  0.00  0.00    +0.000 NA
ENDROOT
BRANCH   4   6
ATOM      6  C   UNL     1       7.183   6.319  17.036  0.00  0.00    +0.000 A 
ATOM      7  C   UNL     1       7.378   7.704  16.902  0.00  0.00    +0.000 A 
ATOM      8  C   UNL     1       8.052   8.413  17.895  0.00  0.00    +0.000 A 
ATOM      9  C   UNL     1       8.534   7.746  19.019  0.00  0.00    +0.000 A 
ATOM     10  C   UNL     1       8.305   6.379  19.174  0.00  0.00    +0.000 A 
ATOM     11  C   UNL     1       7.610   5.666  18.196  0.00  0.00    +0.000 A 
ENDBRANCH   4   6
BRANCH   1  13
ATOM     12  N   UNL     1       5.896   2.991  12.368  0.00  0.00    +0.000 N 
ATOM     13  C   UNL     1       6.686   4.045  12.779  0.00  0.00    +0.000 C 
ATOM     14  O   UNL     1       7.571   4.538  12.094  0.00  0.00    +0.000 OA
ATOM     15  H   UNL     1       5.197   2.661  13.024  0.00  0.00    +0.000 HD
BRANCH  12  16
ATOM     16  C   UNL     1       6.063   2.352  11.078  0.00  0.00    +0.000 C 
BRANCH  16  17
ATOM     17  C   UNL     1       6.776   1.005  11.191  0.00  0.00    +0.000 C 
BRANCH  17  18
ATOM     18  C   UNL     1       5.767  -0.136  11.321  0.00  0.00    +0.000 C 
BRANCH  18  19
ATOM     19  N   UNL     1       6.445  -1.424  11.378  0.00  0.00    +0.000 NA
ATOM     20  H   UNL     1       7.428  -1.303  11.128  0.00  0.00    +0.000 HD
ATOM     21  H   UNL     1       6.048  -2.056  10.683  0.00  0.00    +0.000 HD
ENDBRANCH  18  19
ENDBRANCH  17  18
ENDBRANCH  16  17
ENDBRANCH  12  16
ENDBRANCH   1  13
BRANCH   3  22
ATOM     22  N   UNL     1       4.313   5.238  16.957  0.00  0.00    +0.000 N 
ATOM     23  C   UNL     1       4.237   4.523  18.195  0.00  0.00    +0.000 C 
ATOM     24  O   UNL     1       5.079   3.683  18.461  0.00  0.00    +0.000 OA
ATOM     25  H   UNL     1       3.716   6.044  16.798  0.00  0.00    +0.000 HD
BRANCH  23  26
ATOM     26  C   UNL     1       3.210   4.970  19.171  0.00  0.00    +0.000 A 
ATOM     27  C   UNL     1       2.824   6.324  19.126  0.00  0.00    +0.000 A 
ATOM     28  C   UNL     1       1.877   6.862  20.024  0.00  0.00    +0.000 A 
ATOM     29  C   UNL     1       1.303   5.982  20.950  0.00  0.00    +0.000 A 
ATOM     30  C   UNL     1       1.673   4.637  21.005  0.00  0.00    +0.000 A 
ATOM     31  C   UNL     1       2.626   4.129  20.123  0.00  0.00    +0.000 A 
ATOM     32 CL   UNL     1       3.033   2.460  20.301  0.00  0.00    +0.000 Cl
BRANCH  28  33
ATOM     33  C   UNL     1       1.523   8.297  19.977  0.00  0.00    +0.000 A 
ATOM     34  N   UNL     1       1.580   8.870  18.741  0.00  0.00    +0.000 NA
ATOM     35  C   UNL     1       1.289  10.189  18.649  0.00  0.00    +0.000 A 
ATOM     36  C   UNL     1       0.942  10.984  19.729  0.00  0.00    +0.000 A 
ATOM     37  C   UNL     1       0.886  10.393  20.985  0.00  0.00    +0.000 A 
ATOM     38  C   UNL     1       1.180   9.042  21.108  0.00  0.00    +0.000 A 
ATOM     39  F   UNL     1       1.150   8.490  22.331  0.00  0.00    +0.000 F 
ENDBRANCH  28  33
ENDBRANCH  23  26
ENDBRANCH   3  22
TORSDOF 9
ENDMDL
MODEL 7
REMARK VINA RESULT:      -8.4      2.438      4.074
REMARK  Name = 
REMARK  9 active torsions:
REMARK  status: ('A' for Active; 'I' for Inactive)
REMARK    1  A    between atoms: N_1  and  C_2
REMARK    2  A    between atoms: C_2  and  C_3
REMARK    3  A    between atoms: C_3  and  C_4
REMARK    4  A    between atoms: C_4  and  N_5
REMARK    5  A    between atoms: C_6  and  C_8
REMARK    6  A    between atoms: C_10  and  N_11
REMARK    7  A    between atoms: C_12  and  C_14
REMARK    8  A    between atoms: C_16  and  C_17
REMARK    9  A    between atoms: N_28  and  C_29
REMARK                            x       y       z     vdW  Elec       q    Type
REMARK                         _______ _______ _______ _____ _____    ______ ____
ROOT
ATOM      1  C   UNL     1       5.638   5.146  15.592  0.00  0.00    +0.000 A 
ATOM      2  C   UNL     1       5.116   6.376  16.082  0.00  0.00    +0.000 A 
ATOM      3  C   UNL     1       4.287   6.025  17.116  0.00  0.00    +0.000 A 
ATOM      4  N   UNL     1       4.280   4.641  17.166  0.00  0.00    +0.000 N 
ATOM      5  N   UNL     1       5.155   4.096  16.284  0.00  0.00    +0.000 NA
ENDROOT
BRANCH   4   6
ATOM      6  C   UNL     1       3.500   3.833  18.034  0.00  0.00    +0.000 A 
ATOM      7  C   UNL     1       4.027   3.359  19.246  0.00  0.00    +0.000 A 
ATOM      8  C   UNL     1       3.277   2.496  20.044  0.00  0.00    +0.000 A 
ATOM      9  C   UNL     1       2.004   2.105  19.637  0.00  0.00    +0.000 A 
ATOM     10  C   UNL     1       1.460   2.608  18.455  0.00  0.00    +0.000 A 
ATOM     11  C   UNL     1       2.196   3.491  17.662  0.00  0.00    +0.000 A 
ENDBRANCH   4   6
BRANCH   1  13
ATOM     12  N   UNL     1       6.127   4.353  13.385  0.00  0.00    +0.000 N 
ATOM     13  C   UNL     1       6.617   4.997  14.502  0.00  0.00    +0.000 C 
ATOM     14  O   UNL     1       7.760   5.420  14.597  0.00  0.00    +0.000 OA
ATOM     15  H   UNL     1       5.164   4.040  13.423  0.00  0.00    +0.000 HD
BRANCH  12  16
ATOM     16  C   UNL     1       6.945   4.097  12.216  0.00  0.00    +0.000 C 
BRANCH  16  17
ATOM     17  C   UNL     1       7.123   2.602  11.954  0.00  0.00    +0.000 C 
BRANCH  17  18
ATOM     18  C   UNL     1       5.804   1.966  11.513  0.00  0.00    +0.000 C 
BRANCH  18  19
ATOM     19  N   UNL     1       5.974   0.542  11.258  0.00  0.00    +0.000 NA
ATOM     20  H   UNL     1       5.091   0.057  11.429  0.00  0.00    +0.000 HD
ATOM     21  H   UNL     1       6.648   0.150  11.917  0.00  0.00    +0.000 HD
ENDBRANCH  18  19
ENDBRANCH  17  18
ENDBRANCH  16  17
ENDBRANCH  12  16
ENDBRANCH   1  13
BRANCH   3  22
ATOM     22  N   UNL     1       3.724   6.893  18.046  0.00  0.00    +0.000 N 
ATOM     23  C   UNL     1       2.337   7.239  18.018  0.00  0.00    +0.000 C 
ATOM     24  O   UNL     1       1.609   6.755  17.170  0.00  0.00    +0.000 OA
ATOM     25  H   UNL     1       4.300   7.163  18.838  0.00  0.00    +0.000 HD
BRANCH  23  26
ATOM     26  C   UNL     1       1.822   8.059  19.146  0.00  0.00    +0.000 A 
ATOM     27  C   UNL     1       1.480   9.397  18.865  0.00  0.00    +0.000 A 
ATOM     28  C   UNL     1       1.006  10.274  19.865  0.00  0.00    +0.000 A 
ATOM     29  C   UNL     1       0.855   9.748  21.155  0.00  0.00    +0.000 A 
ATOM     30  C   UNL     1       1.187   8.424  21.448  0.00  0.00    +0.000 A 
ATOM     31  C   UNL     1       1.673   7.580  20.450  0.00  0.00    +0.000 A 
ATOM     32 CL   UNL     1       2.083   5.972  20.930  0.00  0.00    +0.000 Cl
BRANCH  28  33
ATOM     33  C   UNL     1       0.695  11.684  19.548  0.00  0.00    +0.000 A 
ATOM     34  N   UNL     1      -0.508  12.131  20.007  0.00  0.00    +0.000 NA
ATOM     35  C   UNL     1      -0.852  13.409  19.721  0.00  0.00    +0.000 A 
ATOM     36  C   UNL     1      -0.058  14.281  18.993  0.00  0.00    +0.000 A 
ATOM     37  C   UNL     1       1.167  13.817  18.529  0.00  0.00    +0.000 A 
ATOM     38  C   UNL     1       1.543  12.511  18.808  0.00  0.00    +0.000 A 
ATOM     39  F   UNL     1       2.716  12.067  18.329  0.00  0.00    +0.000 F 
ENDBRANCH  28  33
ENDBRANCH  23  26
ENDBRANCH   3  22
TORSDOF 9
ENDMDL
MODEL 8
REMARK VINA RESULT:      -8.2      2.897      5.116
REMARK  Name = 
REMARK  9 active torsions:
REMARK  status: ('A' for Active; 'I' for Inactive)
REMARK    1  A    between atoms: N_1  and  C_2
REMARK    2  A    between atoms: C_2  and  C_3
REMARK    3  A    between atoms: C_3  and  C_4
REMARK    4  A    between atoms: C_4  and  N_5
REMARK    5  A    between atoms: C_6  and  C_8
REMARK    6  A    between atoms: C_10  and  N_11
REMARK    7  A    between atoms: C_12  and  C_14
REMARK    8  A    between atoms: C_16  and  C_17
REMARK    9  A    between atoms: N_28  and  C_29
REMARK                            x       y       z     vdW  Elec       q    Type
REMARK                         _______ _______ _______ _____ _____    ______ ____
ROOT
ATOM      1  C   UNL     1       5.268   5.406  16.608  0.00  0.00    +0.000 A 
ATOM      2  C   UNL     1       4.787   6.684  17.006  0.00  0.00    +0.000 A 
ATOM      3  C   UNL     1       3.829   6.426  17.952  0.00  0.00    +0.000 A 
ATOM      4  N   UNL     1       3.717   5.048  18.036  0.00  0.00    +0.000 N 
ATOM      5  N   UNL     1       4.640   4.415  17.270  0.00  0.00    +0.000 NA
ENDROOT
BRANCH   4   6
ATOM      6  C   UNL     1       2.792   4.326  18.834  0.00  0.00    +0.000 A 
ATOM      7  C   UNL     1       1.546   3.933  18.317  0.00  0.00    +0.000 A 
ATOM      8  C   UNL     1       0.616   3.300  19.141  0.00  0.00    +0.000 A 
ATOM      9  C   UNL     1       0.925   3.059  20.478  0.00  0.00    +0.000 A 
ATOM     10  C   UNL     1       2.177   3.409  20.983  0.00  0.00    +0.000 A 
ATOM     11  C   UNL     1       3.122   4.022  20.158  0.00  0.00    +0.000 A 
ENDBRANCH   4   6
BRANCH   1  13
ATOM     12  N   UNL     1       6.026   4.230  14.663  0.00  0.00    +0.000 N 
ATOM     13  C   UNL     1       6.346   5.153  15.636  0.00  0.00    +0.000 C 
ATOM     14  O   UNL     1       7.423   5.728  15.700  0.00  0.00    +0.000 OA
ATOM     15  H   UNL     1       5.103   3.812  14.714  0.00  0.00    +0.000 HD
BRANCH  12  16
ATOM     16  C   UNL     1       6.961   3.836  13.628  0.00  0.00    +0.000 C 
BRANCH  16  17
ATOM     17  C   UNL     1       6.665   4.519  12.293  0.00  0.00    +0.000 C 
BRANCH  17  18
ATOM     18  C   UNL     1       7.707   5.596  11.989  0.00  0.00    +0.000 C 
BRANCH  18  19
ATOM     19  N   UNL     1       8.579   5.812  13.137  0.00  0.00    +0.000 NA
ATOM     20  H   UNL     1       9.336   6.445  12.874  0.00  0.00    +0.000 HD
ATOM     21  H   UNL     1       9.020   4.933  13.406  0.00  0.00    +0.000 HD
ENDBRANCH  18  19
ENDBRANCH  17  18
ENDBRANCH  16  17
ENDBRANCH  12  16
ENDBRANCH   1  13
BRANCH   3  22
ATOM     22  N   UNL     1       3.234   7.362  18.791  0.00  0.00    +0.000 N 
ATOM     23  C   UNL     1       2.242   8.280  18.322  0.00  0.00    +0.000 C 
ATOM     24  O   UNL     1       1.886   8.244  17.158  0.00  0.00    +0.000 OA
ATOM     25  H   UNL     1       3.419   7.277  19.786  0.00  0.00    +0.000 HD
BRANCH  23  26
ATOM     26  C   UNL     1       1.575   9.133  19.340  0.00  0.00    +0.000 A 
ATOM     27  C   UNL     1       1.451  10.506  19.049  0.00  0.00    +0.000 A 
ATOM     28  C   UNL     1       0.859  11.412  19.955  0.00  0.00    +0.000 A 
ATOM     29  C   UNL     1       0.364  10.884  21.154  0.00  0.00    +0.000 A 
ATOM     30  C   UNL     1       0.476   9.526  21.455  0.00  0.00    +0.000 A 
ATOM     31  C   UNL     1       1.083   8.649  20.556  0.00  0.00    +0.000 A 
ATOM     32 CL   UNL     1       1.198   6.997  21.045  0.00  0.00    +0.000 Cl
BRANCH  28  33
ATOM     33  C   UNL     1       0.781  12.854  19.638  0.00  0.00    +0.000 A 
ATOM     34  N   UNL     1       1.705  13.638  20.263  0.00  0.00    +0.000 NA
ATOM     35  C   UNL     1       1.661  14.970  20.025  0.00  0.00    +0.000 A 
ATOM     36  C   UNL     1       0.737  15.578  19.190  0.00  0.00    +0.000 A 
ATOM     37  C   UNL     1      -0.201  14.772  18.555  0.00  0.00    +0.000 A 
ATOM     38  C   UNL     1      -0.177  13.403  18.783  0.00  0.00    +0.000 A 
ATOM     39  F   UNL     1      -1.107  12.640  18.186  0.00  0.00    +0.000 F 
ENDBRANCH  28  33
ENDBRANCH  23  26
ENDBRANCH   3  22
TORSDOF 9
ENDMDL
MODEL 9
REMARK VINA RESULT:      -8.1      0.968      1.628
REMARK  Name = 
REMARK  9 active torsions:
REMARK  status: ('A' for Active; 'I' for Inactive)
REMARK    1  A    between atoms: N_1  and  C_2
REMARK    2  A    between atoms: C_2  and  C_3
REMARK    3  A    between atoms: C_3  and  C_4
REMARK    4  A    between atoms: C_4  and  N_5
REMARK    5  A    between atoms: C_6  and  C_8
REMARK    6  A    between atoms: C_10  and  N_11
REMARK    7  A    between atoms: C_12  and  C_14
REMARK    8  A    between atoms: C_16  and  C_17
REMARK    9  A    between atoms: N_28  and  C_29
REMARK                            x       y       z     vdW  Elec       q    Type
REMARK                         _______ _______ _______ _____ _____    ______ ____
ROOT
ATOM      1  C   UNL     1       6.277   4.325  14.152  0.00  0.00    +0.000 A 
ATOM      2  C   UNL     1       5.081   4.172  14.907  0.00  0.00    +0.000 A 
ATOM      3  C   UNL     1       5.285   4.901  16.050  0.00  0.00    +0.000 A 
ATOM      4  N   UNL     1       6.578   5.391  15.982  0.00  0.00    +0.000 N 
ATOM      5  N   UNL     1       7.170   5.103  14.796  0.00  0.00    +0.000 NA
ENDROOT
BRANCH   4   6
ATOM      6  C   UNL     1       7.249   6.139  16.984  0.00  0.00    +0.000 A 
ATOM      7  C   UNL     1       7.644   5.538  18.191  0.00  0.00    +0.000 A 
ATOM      8  C   UNL     1       8.224   6.308  19.198  0.00  0.00    +0.000 A 
ATOM      9  C   UNL     1       8.411   7.674  19.006  0.00  0.00    +0.000 A 
ATOM     10  C   UNL     1       8.059   8.267  17.793  0.00  0.00    +0.000 A 
ATOM     11  C   UNL     1       7.500   7.498  16.771  0.00  0.00    +0.000 A 
ENDBRANCH   4   6
BRANCH   1  13
ATOM     12  N   UNL     1       5.748   2.673  12.500  0.00  0.00    +0.000 N 
ATOM     13  C   UNL     1       6.532   3.763  12.815  0.00  0.00    +0.000 C 
ATOM     14  O   UNL     1       7.368   4.240  12.061  0.00  0.00    +0.000 OA
ATOM     15  H   UNL     1       5.092   2.362  13.207  0.00  0.00    +0.000 HD
BRANCH  12  16
ATOM     16  C   UNL     1       5.864   1.972  11.236  0.00  0.00    +0.000 C 
BRANCH  16  17
ATOM     17  C   UNL     1       4.635   2.173  10.350  0.00  0.00    +0.000 C 
BRANCH  17  18
ATOM     18  C   UNL     1       3.732   3.271  10.913  0.00  0.00    +0.000 C 
BRANCH  18  19
ATOM     19  N   UNL     1       2.995   3.934   9.845  0.00  0.00    +0.000 NA
ATOM     20  H   UNL     1       1.992   3.843  10.016  0.00  0.00    +0.000 HD
ATOM     21  H   UNL     1       3.178   3.467   8.957  0.00  0.00    +0.000 HD
ENDBRANCH  18  19
ENDBRANCH  17  18
ENDBRANCH  16  17
ENDBRANCH  12  16
ENDBRANCH   1  13
BRANCH   3  22
ATOM     22  N   UNL     1       4.317   5.235  16.991  0.00  0.00    +0.000 N 
ATOM     23  C   UNL     1       4.149   4.495  18.204  0.00  0.00    +0.000 C 
ATOM     24  O   UNL     1       4.878   3.548  18.441  0.00  0.00    +0.000 OA
ATOM     25  H   UNL     1       3.826   6.115  16.860  0.00  0.00    +0.000 HD
BRANCH  23  26
ATOM     26  C   UNL     1       3.182   5.033  19.196  0.00  0.00    +0.000 A 
ATOM     27  C   UNL     1       2.803   6.383  19.059  0.00  0.00    +0.000 A 
ATOM     28  C   UNL     1       1.912   7.005  19.960  0.00  0.00    +0.000 A 
ATOM     29  C   UNL     1       1.386   6.211  20.988  0.00  0.00    +0.000 A 
ATOM     30  C   UNL     1       1.750   4.871  21.134  0.00  0.00    +0.000 A 
ATOM     31  C   UNL     1       2.648   4.280  20.246  0.00  0.00    +0.000 A 
ATOM     32 CL   UNL     1       3.053   2.628  20.540  0.00  0.00    +0.000 Cl
BRANCH  28  33
ATOM     33  C   UNL     1       1.565   8.434  19.813  0.00  0.00    +0.000 A 
ATOM     34  N   UNL     1       1.161   9.055  20.958  0.00  0.00    +0.000 NA
ATOM     35  C   UNL     1       0.809  10.360  20.872  0.00  0.00    +0.000 A 
ATOM     36  C   UNL     1       0.834  11.094  19.697  0.00  0.00    +0.000 A 
ATOM     37  C   UNL     1       1.248  10.454  18.535  0.00  0.00    +0.000 A 
ATOM     38  C   UNL     1       1.614   9.117  18.595  0.00  0.00    +0.000 A 
ATOM     39  F   UNL     1       1.985   8.504  17.460  0.00  0.00    +0.000 F 
ENDBRANCH  28  33
ENDBRANCH  23  26
ENDBRANCH   3  22
TORSDOF 9
ENDMDL
