MODEL 1
REMARK VINA RESULT:      -8.7      0.000      0.000
REMARK  Name = 
REMARK  4 active torsions:
REMARK  status: ('A' for Active; 'I' for Inactive)
REMARK    1  A    between atoms: N_1  and  C_2
REMARK    2  A    between atoms: C_11  and  C_12
REMARK    3  A    between atoms: C_12  and  C_14
REMARK    4  A    between atoms: C_15  and  C_16
REMARK                            x       y       z     vdW  Elec       q    Type
REMARK                         _______ _______ _______ _____ _____    ______ ____
ROOT
ATOM      1  C   UNL     1       6.860   5.427  19.335  0.00  0.00    +0.000 A 
ATOM      2  N   UNL     1       5.789   4.669  19.726  0.00  0.00    +0.000 NA
ATOM      3  C   UNL     1       4.810   4.765  18.851  0.00  0.00    +0.000 A 
ATOM      4  N   UNL     1       3.622   4.118  18.970  0.00  0.00    +0.000 N 
ATOM      5  C   UNL     1       3.305   3.326  20.141  0.00  0.00    +0.000 C 
ATOM      6  C   UNL     1       2.029   2.614  19.708  0.00  0.00    +0.000 C 
ATOM      7  C   UNL     1       1.304   3.663  18.874  0.00  0.00    +0.000 C 
ATOM      8  C   UNL     1       2.416   4.518  18.260  0.00  0.00    +0.000 C 
ATOM      9  S   UNL     1       5.191   5.756  17.484  0.00  0.00    +0.000 S 
ATOM     10  C   UNL     1       6.722   6.127  18.159  0.00  0.00    +0.000 A 
ENDROOT
BRANCH   1  11
ATOM     11  N   UNL     1       7.938   5.384  20.136  0.00  0.00    +0.000 N 
ATOM     12  H   UNL     1       8.719   4.841  19.772  0.00  0.00    +0.000 HD
ATOM     13  H   UNL     1       8.254   6.212  20.629  0.00  0.00    +0.000 HD
ENDBRANCH   1  11
BRANCH  10  14
ATOM     14  C   UNL     1       7.590   7.046  17.455  0.00  0.00    +0.000 C 
ATOM     15  O   UNL     1       7.860   6.948  16.258  0.00  0.00    +0.000 OA
BRANCH  14  16
ATOM     16  C   UNL     1       8.152   8.190  18.231  0.00  0.00    +0.000 C 
ATOM     17  C   UNL     1       8.289   9.399  17.670  0.00  0.00    +0.000 C 
BRANCH  17  18
ATOM     18  C   UNL     1       8.853  10.513  18.426  0.00  0.00    +0.000 A 
ATOM     19  C   UNL     1       8.893  11.792  17.861  0.00  0.00    +0.000 A 
ATOM     20  C   UNL     1       9.471  12.852  18.563  0.00  0.00    +0.000 A 
ATOM     21  C   UNL     1      10.010  12.630  19.829  0.00  0.00    +0.000 A 
ATOM     22 CL   UNL     1      10.735  13.934  20.687  0.00  0.00    +0.000 Cl
ATOM     23  C   UNL     1       9.968  11.361  20.403  0.00  0.00    +0.000 A 
ATOM     24  C   UNL     1       9.392  10.300  19.701  0.00  0.00    +0.000 A 
ENDBRANCH  17  18
ENDBRANCH  14  16
ENDBRANCH  10  14
TORSDOF 4
ENDMDL
MODEL 2
REMARK VINA RESULT:      -8.7      0.103      1.037
REMARK  Name = 
REMARK  4 active torsions:
REMARK  status: ('A' for Active; 'I' for Inactive)
REMARK    1  A    between atoms: N_1  and  C_2
REMARK    2  A    between atoms: C_11  and  C_12
REMARK    3  A    between atoms: C_12  and  C_14
REMARK    4  A    between atoms: C_15  and  C_16
REMARK                            x       y       z     vdW  Elec       q    Type
REMARK                         _______ _______ _______ _____ _____    ______ ____
ROOT
ATOM      1  C   UNL     1       6.880   5.438  19.358  0.00  0.00    +0.000 A 
ATOM      2  N   UNL     1       5.809   4.691  19.769  0.00  0.00    +0.000 NA
ATOM      3  C   UNL     1       4.808   4.812  18.923  0.00  0.00    +0.000 A 
ATOM      4  N   UNL     1       3.614   4.181  19.066  0.00  0.00    +0.000 N 
ATOM      5  C   UNL     1       3.317   3.380  20.237  0.00  0.00    +0.000 C 
ATOM      6  C   UNL     1       2.019   2.692  19.830  0.00  0.00    +0.000 C 
ATOM      7  C   UNL     1       1.288   3.761  19.030  0.00  0.00    +0.000 C 
ATOM      8  C   UNL     1       2.396   4.607  18.395  0.00  0.00    +0.000 C 
ATOM      9  S   UNL     1       5.166   5.813  17.557  0.00  0.00    +0.000 S 
ATOM     10  C   UNL     1       6.721   6.154  18.194  0.00  0.00    +0.000 A 
ENDROOT
BRANCH   1  11
ATOM     11  N   UNL     1       7.980   5.369  20.128  0.00  0.00    +0.000 N 
ATOM     12  H   UNL     1       8.791   4.951  19.677  0.00  0.00    +0.000 HD
ATOM     13  H   UNL     1       8.240   6.140  20.733  0.00  0.00    +0.000 HD
ENDBRANCH   1  11
BRANCH  10  14
ATOM     14  C   UNL     1       7.583   7.068  17.477  0.00  0.00    +0.000 C 
ATOM     15  O   UNL     1       7.826   6.975  16.274  0.00  0.00    +0.000 OA
BRANCH  14  16
ATOM     16  C   UNL     1       8.172   8.202  18.248  0.00  0.00    +0.000 C 
ATOM     17  C   UNL     1       8.283   9.420  17.700  0.00  0.00    +0.000 C 
BRANCH  17  18
ATOM     18  C   UNL     1       8.875  10.524  18.451  0.00  0.00    +0.000 A 
ATOM     19  C   UNL     1       9.362  10.308  19.744  0.00  0.00    +0.000 A 
ATOM     20  C   UNL     1       9.889  11.370  20.482  0.00  0.00    +0.000 A 
ATOM     21  C   UNL     1       9.927  12.647  19.926  0.00  0.00    +0.000 A 
ATOM     22 CL   UNL     1      10.563  13.957  20.842  0.00  0.00    +0.000 Cl
ATOM     23  C   UNL     1       9.451  12.870  18.635  0.00  0.00    +0.000 A 
ATOM     24  C   UNL     1       8.922  11.809  17.897  0.00  0.00    +0.000 A 
ENDBRANCH  17  18
ENDBRANCH  14  16
ENDBRANCH  10  14
TORSDOF 4
ENDMDL
MODEL 3
REMARK VINA RESULT:      -8.2      5.010      6.960
REMARK  Name = 
REMARK  4 active torsions:
REMARK  status: ('A' for Active; 'I' for Inactive)
REMARK    1  A    between atoms: N_1  and  C_2
REMARK    2  A    between atoms: C_11  and  C_12
REMARK    3  A    between atoms: C_12  and  C_14
REMARK    4  A    between atoms: C_15  and  C_16
REMARK                            x       y       z     vdW  Elec       q    Type
REMARK                         _______ _______ _______ _____ _____    ______ ____
ROOT
ATOM      1  C   UNL     1       6.880   5.722  17.271  0.00  0.00    +0.000 A 
ATOM      2  N   UNL     1       7.317   5.673  15.975  0.00  0.00    +0.000 NA
ATOM      3  C   UNL     1       6.536   4.901  15.251  0.00  0.00    +0.000 A 
ATOM      4  N   UNL     1       6.719   4.667  13.926  0.00  0.00    +0.000 N 
ATOM      5  C   UNL     1       7.868   5.193  13.216  0.00  0.00    +0.000 C 
ATOM      6  C   UNL     1       7.505   4.902  11.765  0.00  0.00    +0.000 C 
ATOM      7  C   UNL     1       6.796   3.556  11.841  0.00  0.00    +0.000 C 
ATOM      8  C   UNL     1       6.138   3.534  13.223  0.00  0.00    +0.000 C 
ATOM      9  S   UNL     1       5.198   4.242  16.130  0.00  0.00    +0.000 S 
ATOM     10  C   UNL     1       5.760   4.981  17.571  0.00  0.00    +0.000 A 
ENDROOT
BRANCH   1  11
ATOM     11  N   UNL     1       7.582   6.509  18.104  0.00  0.00    +0.000 N 
ATOM     12  H   UNL     1       7.532   7.504  17.895  0.00  0.00    +0.000 HD
ATOM     13  H   UNL     1       7.589   6.334  19.103  0.00  0.00    +0.000 HD
ENDBRANCH   1  11
BRANCH  10  14
ATOM     14  C   UNL     1       5.036   4.747  18.802  0.00  0.00    +0.000 C 
ATOM     15  O   UNL     1       5.176   3.740  19.495  0.00  0.00    +0.000 OA
BRANCH  14  16
ATOM     16  C   UNL     1       4.100   5.815  19.259  0.00  0.00    +0.000 C 
ATOM     17  C   UNL     1       3.364   6.506  18.378  0.00  0.00    +0.000 C 
BRANCH  17  18
ATOM     18  C   UNL     1       2.460   7.561  18.825  0.00  0.00    +0.000 A 
ATOM     19  C   UNL     1       2.010   7.582  20.150  0.00  0.00    +0.000 A 
ATOM     20  C   UNL     1       1.112   8.564  20.572  0.00  0.00    +0.000 A 
ATOM     21  C   UNL     1       0.663   9.524  19.668  0.00  0.00    +0.000 A 
ATOM     22 CL   UNL     1      -0.456  10.725  20.185  0.00  0.00    +0.000 Cl
ATOM     23  C   UNL     1       1.110   9.516  18.347  0.00  0.00    +0.000 A 
ATOM     24  C   UNL     1       2.008   8.533  17.924  0.00  0.00    +0.000 A 
ENDBRANCH  17  18
ENDBRANCH  14  16
ENDBRANCH  10  14
TORSDOF 4
ENDMDL
MODEL 4
REMARK VINA RESULT:      -7.9      5.221      6.799
REMARK  Name = 
REMARK  4 active torsions:
REMARK  status: ('A' for Active; 'I' for Inactive)
REMARK    1  A    between atoms: N_1  and  C_2
REMARK    2  A    between atoms: C_11  and  C_12
REMARK    3  A    between atoms: C_12  and  C_14
REMARK    4  A    between atoms: C_15  and  C_16
REMARK                            x       y       z     vdW  Elec       q    Type
REMARK                         _______ _______ _______ _____ _____    ______ ____
ROOT
ATOM      1  C   UNL     1       6.908   4.864  17.742  0.00  0.00    +0.000 A 
ATOM      2  N   UNL     1       7.371   4.931  16.456  0.00  0.00    +0.000 NA
ATOM      3  C   UNL     1       6.451   4.521  15.609  0.00  0.00    +0.000 A 
ATOM      4  N   UNL     1       6.623   4.482  14.263  0.00  0.00    +0.000 N 
ATOM      5  C   UNL     1       7.896   4.812  13.653  0.00  0.00    +0.000 C 
ATOM      6  C   UNL     1       7.531   4.879  12.175  0.00  0.00    +0.000 C 
ATOM      7  C   UNL     1       6.503   3.767  12.013  0.00  0.00    +0.000 C 
ATOM      8  C   UNL     1       5.804   3.674  13.372  0.00  0.00    +0.000 C 
ATOM      9  S   UNL     1       4.955   4.084  16.363  0.00  0.00    +0.000 S 
ATOM     10  C   UNL     1       5.626   4.393  17.910  0.00  0.00    +0.000 A 
ENDROOT
BRANCH   1  11
ATOM     11  N   UNL     1       7.751   5.289  18.699  0.00  0.00    +0.000 N 
ATOM     12  H   UNL     1       7.628   4.842  19.605  0.00  0.00    +0.000 HD
ATOM     13  H   UNL     1       8.729   5.459  18.492  0.00  0.00    +0.000 HD
ENDBRANCH   1  11
BRANCH  10  14
ATOM     14  C   UNL     1       4.817   4.143  19.083  0.00  0.00    +0.000 C 
ATOM     15  O   UNL     1       4.880   3.109  19.747  0.00  0.00    +0.000 OA
BRANCH  14  16
ATOM     16  C   UNL     1       3.885   5.225  19.517  0.00  0.00    +0.000 C 
ATOM     17  C   UNL     1       3.442   6.140  18.644  0.00  0.00    +0.000 C 
BRANCH  17  18
ATOM     18  C   UNL     1       2.543   7.207  19.073  0.00  0.00    +0.000 A 
ATOM     19  C   UNL     1       2.205   8.236  18.187  0.00  0.00    +0.000 A 
ATOM     20  C   UNL     1       1.382   9.282  18.607  0.00  0.00    +0.000 A 
ATOM     21  C   UNL     1       0.897   9.299  19.914  0.00  0.00    +0.000 A 
ATOM     22 CL   UNL     1      -0.106  10.597  20.434  0.00  0.00    +0.000 Cl
ATOM     23  C   UNL     1       1.222   8.275  20.802  0.00  0.00    +0.000 A 
ATOM     24  C   UNL     1       2.048   7.229  20.383  0.00  0.00    +0.000 A 
ENDBRANCH  17  18
ENDBRANCH  14  16
ENDBRANCH  10  14
TORSDOF 4
ENDMDL
MODEL 5
REMARK VINA RESULT:      -7.9      1.573      2.226
REMARK  Name = 
REMARK  4 active torsions:
REMARK  status: ('A' for Active; 'I' for Inactive)
REMARK    1  A    between atoms: N_1  and  C_2
REMARK    2  A    between atoms: C_11  and  C_12
REMARK    3  A    between atoms: C_12  and  C_14
REMARK    4  A    between atoms: C_15  and  C_16
REMARK                            x       y       z     vdW  Elec       q    Type
REMARK                         _______ _______ _______ _____ _____    ______ ____
ROOT
ATOM      1  C   UNL     1       4.612   6.407  17.422  0.00  0.00    +0.000 A 
ATOM      2  N   UNL     1       3.521   5.850  18.030  0.00  0.00    +0.000 NA
ATOM      3  C   UNL     1       3.893   4.972  18.937  0.00  0.00    +0.000 A 
ATOM      4  N   UNL     1       3.027   4.263  19.706  0.00  0.00    +0.000 N 
ATOM      5  C   UNL     1       1.593   4.359  19.518  0.00  0.00    +0.000 C 
ATOM      6  C   UNL     1       1.062   3.618  20.739  0.00  0.00    +0.000 C 
ATOM      7  C   UNL     1       2.061   2.484  20.927  0.00  0.00    +0.000 C 
ATOM      8  C   UNL     1       3.387   3.034  20.396  0.00  0.00    +0.000 C 
ATOM      9  S   UNL     1       5.610   4.835  19.112  0.00  0.00    +0.000 S 
ATOM     10  C   UNL     1       5.845   5.962  17.842  0.00  0.00    +0.000 A 
ENDROOT
BRANCH   1  11
ATOM     11  N   UNL     1       4.358   7.347  16.495  0.00  0.00    +0.000 N 
ATOM     12  H   UNL     1       4.539   8.303  16.796  0.00  0.00    +0.000 HD
ATOM     13  H   UNL     1       4.613   7.203  15.524  0.00  0.00    +0.000 HD
ENDBRANCH   1  11
BRANCH  10  14
ATOM     14  C   UNL     1       7.195   6.270  17.425  0.00  0.00    +0.000 C 
ATOM     15  O   UNL     1       7.794   5.656  16.543  0.00  0.00    +0.000 OA
BRANCH  14  16
ATOM     16  C   UNL     1       7.871   7.425  18.087  0.00  0.00    +0.000 C 
ATOM     17  C   UNL     1       7.805   8.654  17.559  0.00  0.00    +0.000 C 
BRANCH  17  18
ATOM     18  C   UNL     1       8.480   9.779  18.200  0.00  0.00    +0.000 A 
ATOM     19  C   UNL     1       9.139   9.596  19.421  0.00  0.00    +0.000 A 
ATOM     20  C   UNL     1       9.748  10.677  20.059  0.00  0.00    +0.000 A 
ATOM     21  C   UNL     1       9.698  11.942  19.476  0.00  0.00    +0.000 A 
ATOM     22 CL   UNL     1      10.437  13.277  20.271  0.00  0.00    +0.000 Cl
ATOM     23  C   UNL     1       9.051  12.133  18.256  0.00  0.00    +0.000 A 
ATOM     24  C   UNL     1       8.439  11.052  17.618  0.00  0.00    +0.000 A 
ENDBRANCH  17  18
ENDBRANCH  14  16
ENDBRANCH  10  14
TORSDOF 4
ENDMDL
MODEL 6
REMARK VINA RESULT:      -7.8      1.548      1.949
REMARK  Name = 
REMARK  4 active torsions:
REMARK  status: ('A' for Active; 'I' for Inactive)
REMARK    1  A    between atoms: N_1  and  C_2
REMARK    2  A    between atoms: C_11  and  C_12
REMARK    3  A    between atoms: C_12  and  C_14
REMARK    4  A    between atoms: C_15  and  C_16
REMARK                            x       y       z     vdW  Elec       q    Type
REMARK                         _______ _______ _______ _____ _____    ______ ____
ROOT
ATOM      1  C   UNL     1       4.536   6.673  17.516  0.00  0.00    +0.000 A 
ATOM      2  N   UNL     1       3.494   6.061  18.159  0.00  0.00    +0.000 NA
ATOM      3  C   UNL     1       3.936   5.110  18.954  0.00  0.00    +0.000 A 
ATOM      4  N   UNL     1       3.132   4.334  19.726  0.00  0.00    +0.000 N 
ATOM      5  C   UNL     1       1.688   4.440  19.660  0.00  0.00    +0.000 C 
ATOM      6  C   UNL     1       1.253   3.594  20.851  0.00  0.00    +0.000 C 
ATOM      7  C   UNL     1       2.261   2.452  20.861  0.00  0.00    +0.000 C 
ATOM      8  C   UNL     1       3.542   3.051  20.276  0.00  0.00    +0.000 C 
ATOM      9  S   UNL     1       5.661   4.966  18.980  0.00  0.00    +0.000 S 
ATOM     10  C   UNL     1       5.797   6.200  17.797  0.00  0.00    +0.000 A 
ENDROOT
BRANCH   1  11
ATOM     11  N   UNL     1       4.212   7.688  16.697  0.00  0.00    +0.000 N 
ATOM     12  H   UNL     1       4.236   7.461  15.705  0.00  0.00    +0.000 HD
ATOM     13  H   UNL     1       3.445   8.314  16.921  0.00  0.00    +0.000 HD
ENDBRANCH   1  11
BRANCH  10  14
ATOM     14  C   UNL     1       7.111   6.548  17.302  0.00  0.00    +0.000 C 
ATOM     15  O   UNL     1       7.628   6.027  16.315  0.00  0.00    +0.000 OA
BRANCH  14  16
ATOM     16  C   UNL     1       7.850   7.627  18.021  0.00  0.00    +0.000 C 
ATOM     17  C   UNL     1       7.833   8.889  17.570  0.00  0.00    +0.000 C 
BRANCH  17  18
ATOM     18  C   UNL     1       8.570   9.940  18.265  0.00  0.00    +0.000 A 
ATOM     19  C   UNL     1       8.697  11.207  17.685  0.00  0.00    +0.000 A 
ATOM     20  C   UNL     1       9.437  12.202  18.326  0.00  0.00    +0.000 A 
ATOM     21  C   UNL     1      10.051  11.928  19.547  0.00  0.00    +0.000 A 
ATOM     22 CL   UNL     1      10.976  13.151  20.328  0.00  0.00    +0.000 Cl
ATOM     23  C   UNL     1       9.925  10.672  20.136  0.00  0.00    +0.000 A 
ATOM     24  C   UNL     1       9.186   9.675  19.495  0.00  0.00    +0.000 A 
ENDBRANCH  17  18
ENDBRANCH  14  16
ENDBRANCH  10  14
TORSDOF 4
ENDMDL
MODEL 7
REMARK VINA RESULT:      -7.2      1.668      2.021
REMARK  Name = 
REMARK  4 active torsions:
REMARK  status: ('A' for Active; 'I' for Inactive)
REMARK    1  A    between atoms: N_1  and  C_2
REMARK    2  A    between atoms: C_11  and  C_12
REMARK    3  A    between atoms: C_12  and  C_14
REMARK    4  A    between atoms: C_15  and  C_16
REMARK                            x       y       z     vdW  Elec       q    Type
REMARK                         _______ _______ _______ _____ _____    ______ ____
ROOT
ATOM      1  C   UNL     1       4.964   5.024  16.436  0.00  0.00    +0.000 A 
ATOM      2  N   UNL     1       3.871   4.488  17.063  0.00  0.00    +0.000 NA
ATOM      3  C   UNL     1       3.818   4.880  18.318  0.00  0.00    +0.000 A 
ATOM      4  N   UNL     1       2.841   4.513  19.186  0.00  0.00    +0.000 N 
ATOM      5  C   UNL     1       1.809   3.569  18.808  0.00  0.00    +0.000 C 
ATOM      6  C   UNL     1       0.835   3.678  19.976  0.00  0.00    +0.000 C 
ATOM      7  C   UNL     1       1.748   3.870  21.180  0.00  0.00    +0.000 C 
ATOM      8  C   UNL     1       2.980   4.593  20.632  0.00  0.00    +0.000 C 
ATOM      9  S   UNL     1       5.089   5.969  18.762  0.00  0.00    +0.000 S 
ATOM     10  C   UNL     1       5.777   5.830  17.198  0.00  0.00    +0.000 A 
ENDROOT
BRANCH   1  11
ATOM     11  N   UNL     1       5.108   4.720  15.134  0.00  0.00    +0.000 N 
ATOM     12  H   UNL     1       5.323   3.743  14.945  0.00  0.00    +0.000 HD
ATOM     13  H   UNL     1       4.484   5.110  14.436  0.00  0.00    +0.000 HD
ENDBRANCH   1  11
BRANCH  10  14
ATOM     14  C   UNL     1       7.013   6.527  16.916  0.00  0.00    +0.000 C 
ATOM     15  O   UNL     1       7.780   6.215  16.006  0.00  0.00    +0.000 OA
BRANCH  14  16
ATOM     16  C   UNL     1       7.342   7.710  17.765  0.00  0.00    +0.000 C 
ATOM     17  C   UNL     1       8.255   8.607  17.368  0.00  0.00    +0.000 C 
BRANCH  17  18
ATOM     18  C   UNL     1       8.587   9.755  18.207  0.00  0.00    +0.000 A 
ATOM     19  C   UNL     1       8.468  11.052  17.696  0.00  0.00    +0.000 A 
ATOM     20  C   UNL     1       8.826  12.150  18.480  0.00  0.00    +0.000 A 
ATOM     21  C   UNL     1       9.304  11.950  19.774  0.00  0.00    +0.000 A 
ATOM     22 CL   UNL     1       9.759  13.304  20.733  0.00  0.00    +0.000 Cl
ATOM     23  C   UNL     1       9.418  10.662  20.294  0.00  0.00    +0.000 A 
ATOM     24  C   UNL     1       9.062   9.562  19.510  0.00  0.00    +0.000 A 
ENDBRANCH  17  18
ENDBRANCH  14  16
ENDBRANCH  10  14
TORSDOF 4
ENDMDL
MODEL 8
REMARK VINA RESULT:      -7.1      5.553      6.934
REMARK  Name = 
REMARK  4 active torsions:
REMARK  status: ('A' for Active; 'I' for Inactive)
REMARK    1  A    between atoms: N_1  and  C_2
REMARK    2  A    between atoms: C_11  and  C_12
REMARK    3  A    between atoms: C_12  and  C_14
REMARK    4  A    between atoms: C_15  and  C_16
REMARK                            x       y       z     vdW  Elec       q    Type
REMARK                         _______ _______ _______ _____ _____    ______ ____
ROOT
ATOM      1  C   UNL     1       4.501   3.757  16.911  0.00  0.00    +0.000 A 
ATOM      2  N   UNL     1       4.837   3.558  15.600  0.00  0.00    +0.000 NA
ATOM      3  C   UNL     1       5.925   4.232  15.292  0.00  0.00    +0.000 A 
ATOM      4  N   UNL     1       6.499   4.222  14.062  0.00  0.00    +0.000 N 
ATOM      5  C   UNL     1       5.892   3.522  12.948  0.00  0.00    +0.000 C 
ATOM      6  C   UNL     1       6.996   3.576  11.898  0.00  0.00    +0.000 C 
ATOM      7  C   UNL     1       7.620   4.949  12.111  0.00  0.00    +0.000 C 
ATOM      8  C   UNL     1       7.426   5.244  13.601  0.00  0.00    +0.000 C 
ATOM      9  S   UNL     1       6.607   5.101  16.625  0.00  0.00    +0.000 S 
ATOM     10  C   UNL     1       5.317   4.596  17.635  0.00  0.00    +0.000 A 
ENDROOT
BRANCH   1  11
ATOM     11  N   UNL     1       3.420   3.092  17.354  0.00  0.00    +0.000 N 
ATOM     12  H   UNL     1       3.074   3.395  18.262  0.00  0.00    +0.000 HD
ATOM     13  H   UNL     1       2.663   2.851  16.724  0.00  0.00    +0.000 HD
ENDBRANCH   1  11
BRANCH  10  14
ATOM     14  C   UNL     1       5.271   5.076  18.999  0.00  0.00    +0.000 C 
ATOM     15  O   UNL     1       6.081   4.748  19.866  0.00  0.00    +0.000 OA
BRANCH  14  16
ATOM     16  C   UNL     1       4.196   6.051  19.346  0.00  0.00    +0.000 C 
ATOM     17  C   UNL     1       3.547   6.726  18.387  0.00  0.00    +0.000 C 
BRANCH  17  18
ATOM     18  C   UNL     1       2.506   7.691  18.730  0.00  0.00    +0.000 A 
ATOM     19  C   UNL     1       2.031   8.582  17.760  0.00  0.00    +0.000 A 
ATOM     20  C   UNL     1       1.068   9.535  18.093  0.00  0.00    +0.000 A 
ATOM     21  C   UNL     1       0.580   9.598  19.397  0.00  0.00    +0.000 A 
ATOM     22 CL   UNL     1      -0.597  10.784  19.810  0.00  0.00    +0.000 Cl
ATOM     23  C   UNL     1       1.041   8.711  20.368  0.00  0.00    +0.000 A 
ATOM     24  C   UNL     1       2.007   7.758  20.036  0.00  0.00    +0.000 A 
ENDBRANCH  17  18
ENDBRANCH  14  16
ENDBRANCH  10  14
TORSDOF 4
ENDMDL
MODEL 9
REMARK VINA RESULT:      -7.0      6.391      8.415
REMARK  Name = 
REMARK  4 active torsions:
REMARK  status: ('A' for Active; 'I' for Inactive)
REMARK    1  A    between atoms: N_1  and  C_2
REMARK    2  A    between atoms: C_11  and  C_12
REMARK    3  A    between atoms: C_12  and  C_14
REMARK    4  A    between atoms: C_15  and  C_16
REMARK                            x       y       z     vdW  Elec       q    Type
REMARK                         _______ _______ _______ _____ _____    ______ ____
ROOT
ATOM      1  C   UNL     1       2.114   7.286  19.947  0.00  0.00    +0.000 A 
ATOM      2  N   UNL     1       2.450   5.979  20.176  0.00  0.00    +0.000 NA
ATOM      3  C   UNL     1       2.883   5.411  19.070  0.00  0.00    +0.000 A 
ATOM      4  N   UNL     1       3.294   4.120  18.993  0.00  0.00    +0.000 N 
ATOM      5  C   UNL     1       3.201   3.226  20.129  0.00  0.00    +0.000 C 
ATOM      6  C   UNL     1       3.998   2.018  19.651  0.00  0.00    +0.000 C 
ATOM      7  C   UNL     1       3.656   1.934  18.169  0.00  0.00    +0.000 C 
ATOM      8  C   UNL     1       3.381   3.378  17.744  0.00  0.00    +0.000 C 
ATOM      9  S   UNL     1       2.940   6.483  17.712  0.00  0.00    +0.000 S 
ATOM     10  C   UNL     1       2.272   7.745  18.659  0.00  0.00    +0.000 A 
ENDROOT
BRANCH   1  11
ATOM     11  N   UNL     1       1.687   7.983  21.013  0.00  0.00    +0.000 N 
ATOM     12  H   UNL     1       0.728   8.319  20.948  0.00  0.00    +0.000 HD
ATOM     13  H   UNL     1       1.919   7.688  21.955  0.00  0.00    +0.000 HD
ENDBRANCH   1  11
BRANCH  10  14
ATOM     14  C   UNL     1       1.994   9.018  18.029  0.00  0.00    +0.000 C 
ATOM     15  O   UNL     1       2.868   9.804  17.665  0.00  0.00    +0.000 OA
BRANCH  14  16
ATOM     16  C   UNL     1       0.563   9.362  17.783  0.00  0.00    +0.000 C 
ATOM     17  C   UNL     1      -0.075  10.244  18.565  0.00  0.00    +0.000 C 
BRANCH  17  18
ATOM     18  C   UNL     1      -1.479  10.568  18.333  0.00  0.00    +0.000 A 
ATOM     19  C   UNL     1      -2.194   9.904  17.329  0.00  0.00    +0.000 A 
ATOM     20  C   UNL     1      -3.524  10.241  17.074  0.00  0.00    +0.000 A 
ATOM     21  C   UNL     1      -4.140  11.242  17.823  0.00  0.00    +0.000 A 
ATOM     22 CL   UNL     1      -5.775  11.667  17.498  0.00  0.00    +0.000 Cl
ATOM     23  C   UNL     1      -3.439  11.904  18.830  0.00  0.00    +0.000 A 
ATOM     24  C   UNL     1      -2.107  11.570  19.084  0.00  0.00    +0.000 A 
ENDBRANCH  17  18
ENDBRANCH  14  16
ENDBRANCH  10  14
TORSDOF 4
ENDMDL
