MODEL 1
REMARK VINA RESULT:      -7.5      0.000      0.000
REMARK  Name = 
REMARK  9 active torsions:
REMARK  status: ('A' for Active; 'I' for Inactive)
REMARK    1  A    between atoms: C_1  and  C_2
REMARK    2  A    between atoms: C_2  and  O_3
REMARK    3  A    between atoms: O_3  and  C_4
REMARK    4  A    between atoms: C_4  and  C_6
REMARK    5  A    between atoms: C_10  and  C_11
REMARK    6  A    between atoms: C_14  and  C_15
REMARK    7  A    between atoms: C_15  and  C_16
REMARK    8  A    between atoms: C_15  and  C_17
REMARK    9  A    between atoms: C_15  and  C_18
REMARK                            x       y       z     vdW  Elec       q    Type
REMARK                         _______ _______ _______ _____ _____    ______ ____
ROOT
ATOM      1  C   UNL     1       4.780   6.011  16.970  0.00  0.00    +0.000 A 
ATOM      2  C   UNL     1       4.096   6.900  17.710  0.00  0.00    +0.000 A 
ATOM      3  C   UNL     1       3.213   6.460  18.782  0.00  0.00    +0.000 A 
ATOM      4  C   UNL     1       2.508   7.375  19.558  0.00  0.00    +0.000 A 
ATOM      5  C   UNL     1       1.614   6.906  20.521  0.00  0.00    +0.000 A 
ATOM      6  C   UNL     1       1.409   5.530  20.705  0.00  0.00    +0.000 A 
ATOM      7  C   UNL     1       2.103   4.573  19.938  0.00  0.00    +0.000 A 
ATOM      8  C   UNL     1       3.017   5.089  18.993  0.00  0.00    +0.000 A 
ATOM      9  O   UNL     1       3.780   4.182  18.225  0.00  0.00    +0.000 OA
ATOM     10  C   UNL     1       4.727   4.570  17.285  0.00  0.00    +0.000 A 
ATOM     11  O   UNL     1       5.473   3.738  16.782  0.00  0.00    +0.000 OA
ENDROOT
BRANCH   7  12
ATOM     12  C   UNL     1       1.833   3.060  20.103  0.00  0.00    +0.000 C 
ATOM     13  C   UNL     1       0.841   2.505  19.048  0.00  0.00    +0.000 C 
ATOM     14  C   UNL     1       3.145   2.262  19.929  0.00  0.00    +0.000 C 
ATOM     15  C   UNL     1       1.218   2.740  21.483  0.00  0.00    +0.000 C 
ENDBRANCH   7  12
BRANCH   1  16
ATOM     16  C   UNL     1       5.563   6.548  15.834  0.00  0.00    +0.000 C 
ATOM     17  O   UNL     1       5.066   6.960  14.796  0.00  0.00    +0.000 OA
BRANCH  16  18
ATOM     18  O   UNL     1       6.889   6.438  16.081  0.00  0.00    +0.000 OA
BRANCH  18  20
ATOM     19  C   UNL     1       7.777   8.164  17.539  0.00  0.00    +0.000 C 
ATOM     20  C   UNL     1       7.327   6.719  17.417  0.00  0.00    +0.000 C 
ENDBRANCH  18  20
ENDBRANCH  16  18
ENDBRANCH   1  16
BRANCH   5  21
ATOM     21  C   UNL     1       0.844   7.857  21.347  0.00  0.00    +0.000 C 
ATOM     22  O   UNL     1       0.486   8.945  20.916  0.00  0.00    +0.000 OA
ENDBRANCH   5  21
TORSDOF 5
ENDMDL
MODEL 2
REMARK VINA RESULT:      -7.5      0.479      1.025
REMARK  Name = 
REMARK  9 active torsions:
REMARK  status: ('A' for Active; 'I' for Inactive)
REMARK    1  A    between atoms: C_1  and  C_2
REMARK    2  A    between atoms: C_2  and  O_3
REMARK    3  A    between atoms: O_3  and  C_4
REMARK    4  A    between atoms: C_4  and  C_6
REMARK    5  A    between atoms: C_10  and  C_11
REMARK    6  A    between atoms: C_14  and  C_15
REMARK    7  A    between atoms: C_15  and  C_16
REMARK    8  A    between atoms: C_15  and  C_17
REMARK    9  A    between atoms: C_15  and  C_18
REMARK                            x       y       z     vdW  Elec       q    Type
REMARK                         _______ _______ _______ _____ _____    ______ ____
ROOT
ATOM      1  C   UNL     1       4.738   5.893  17.093  0.00  0.00    +0.000 A 
ATOM      2  C   UNL     1       4.043   6.798  17.805  0.00  0.00    +0.000 A 
ATOM      3  C   UNL     1       3.142   6.379  18.870  0.00  0.00    +0.000 A 
ATOM      4  C   UNL     1       2.425   7.311  19.617  0.00  0.00    +0.000 A 
ATOM      5  C   UNL     1       1.514   6.861  20.573  0.00  0.00    +0.000 A 
ATOM      6  C   UNL     1       1.305   5.490  20.780  0.00  0.00    +0.000 A 
ATOM      7  C   UNL     1       2.009   4.517  20.044  0.00  0.00    +0.000 A 
ATOM      8  C   UNL     1       2.940   5.013  19.104  0.00  0.00    +0.000 A 
ATOM      9  O   UNL     1       3.714   4.091  18.367  0.00  0.00    +0.000 OA
ATOM     10  C   UNL     1       4.678   4.459  17.436  0.00  0.00    +0.000 A 
ATOM     11  O   UNL     1       5.431   3.617  16.962  0.00  0.00    +0.000 OA
ENDROOT
BRANCH   7  12
ATOM     12  C   UNL     1       1.734   3.008  20.234  0.00  0.00    +0.000 C 
ATOM     13  C   UNL     1       3.001   2.134  20.044  0.00  0.00    +0.000 C 
ATOM     14  C   UNL     1       1.228   2.735  21.669  0.00  0.00    +0.000 C 
ATOM     15  C   UNL     1       0.695   2.488  19.217  0.00  0.00    +0.000 C 
ENDBRANCH   7  12
BRANCH   1  16
ATOM     16  C   UNL     1       5.541   6.407  15.961  0.00  0.00    +0.000 C 
ATOM     17  O   UNL     1       5.493   5.952  14.827  0.00  0.00    +0.000 OA
BRANCH  16  18
ATOM     18  O   UNL     1       6.381   7.381  16.381  0.00  0.00    +0.000 OA
BRANCH  18  20
ATOM     19  C   UNL     1       8.091   8.228  17.881  0.00  0.00    +0.000 C 
ATOM     20  C   UNL     1       7.401   7.001  17.314  0.00  0.00    +0.000 C 
ENDBRANCH  18  20
ENDBRANCH  16  18
ENDBRANCH   1  16
BRANCH   5  21
ATOM     21  C   UNL     1       0.732   7.830  21.368  0.00  0.00    +0.000 C 
ATOM     22  O   UNL     1       1.267   8.740  21.986  0.00  0.00    +0.000 OA
ENDBRANCH   5  21
TORSDOF 5
ENDMDL
MODEL 3
REMARK VINA RESULT:      -7.5      2.057      5.399
REMARK  Name = 
REMARK  9 active torsions:
REMARK  status: ('A' for Active; 'I' for Inactive)
REMARK    1  A    between atoms: C_1  and  C_2
REMARK    2  A    between atoms: C_2  and  O_3
REMARK    3  A    between atoms: O_3  and  C_4
REMARK    4  A    between atoms: C_4  and  C_6
REMARK    5  A    between atoms: C_10  and  C_11
REMARK    6  A    between atoms: C_14  and  C_15
REMARK    7  A    between atoms: C_15  and  C_16
REMARK    8  A    between atoms: C_15  and  C_17
REMARK    9  A    between atoms: C_15  and  C_18
REMARK                            x       y       z     vdW  Elec       q    Type
REMARK                         _______ _______ _______ _____ _____    ______ ____
ROOT
ATOM      1  C   UNL     1       2.103   3.299  18.429  0.00  0.00    +0.000 A 
ATOM      2  C   UNL     1       1.653   4.566  18.436  0.00  0.00    +0.000 A 
ATOM      3  C   UNL     1       2.526   5.671  18.062  0.00  0.00    +0.000 A 
ATOM      4  C   UNL     1       2.064   6.985  18.059  0.00  0.00    +0.000 A 
ATOM      5  C   UNL     1       2.956   8.018  17.772  0.00  0.00    +0.000 A 
ATOM      6  C   UNL     1       4.306   7.751  17.501  0.00  0.00    +0.000 A 
ATOM      7  C   UNL     1       4.811   6.436  17.496  0.00  0.00    +0.000 A 
ATOM      8  C   UNL     1       3.871   5.417  17.767  0.00  0.00    +0.000 A 
ATOM      9  O   UNL     1       4.301   4.073  17.730  0.00  0.00    +0.000 OA
ATOM     10  C   UNL     1       3.465   2.985  17.952  0.00  0.00    +0.000 A 
ATOM     11  O   UNL     1       3.862   1.847  17.735  0.00  0.00    +0.000 OA
ENDROOT
BRANCH   7  12
ATOM     12  C   UNL     1       6.310   6.150  17.255  0.00  0.00    +0.000 C 
ATOM     13  C   UNL     1       7.186   7.429  17.309  0.00  0.00    +0.000 C 
ATOM     14  C   UNL     1       6.855   5.204  18.350  0.00  0.00    +0.000 C 
ATOM     15  C   UNL     1       6.553   5.520  15.867  0.00  0.00    +0.000 C 
ENDBRANCH   7  12
BRANCH   1  16
ATOM     16  C   UNL     1       1.177   2.258  18.929  0.00  0.00    +0.000 C 
ATOM     17  O   UNL     1       0.172   1.895  18.335  0.00  0.00    +0.000 OA
BRANCH  16  18
ATOM     18  O   UNL     1       1.557   1.838  20.158  0.00  0.00    +0.000 OA
BRANCH  18  20
ATOM     19  C   UNL     1       2.332   3.390  21.856  0.00  0.00    +0.000 C 
ATOM     20  C   UNL     1       1.148   2.640  21.274  0.00  0.00    +0.000 C 
ENDBRANCH  18  20
ENDBRANCH  16  18
ENDBRANCH   1  16
BRANCH   5  21
ATOM     21  C   UNL     1       2.494   9.421  17.776  0.00  0.00    +0.000 C 
ATOM     22  O   UNL     1       1.305   9.710  17.798  0.00  0.00    +0.000 OA
ENDBRANCH   5  21
TORSDOF 5
ENDMDL
MODEL 4
REMARK VINA RESULT:      -7.4      2.083      3.051
REMARK  Name = 
REMARK  9 active torsions:
REMARK  status: ('A' for Active; 'I' for Inactive)
REMARK    1  A    between atoms: C_1  and  C_2
REMARK    2  A    between atoms: C_2  and  O_3
REMARK    3  A    between atoms: O_3  and  C_4
REMARK    4  A    between atoms: C_4  and  C_6
REMARK    5  A    between atoms: C_10  and  C_11
REMARK    6  A    between atoms: C_14  and  C_15
REMARK    7  A    between atoms: C_15  and  C_16
REMARK    8  A    between atoms: C_15  and  C_17
REMARK    9  A    between atoms: C_15  and  C_18
REMARK                            x       y       z     vdW  Elec       q    Type
REMARK                         _______ _______ _______ _____ _____    ______ ____
ROOT
ATOM      1  C   UNL     1       5.580   5.113  15.719  0.00  0.00    +0.000 A 
ATOM      2  C   UNL     1       5.049   6.306  16.038  0.00  0.00    +0.000 A 
ATOM      3  C   UNL     1       4.059   6.423  17.101  0.00  0.00    +0.000 A 
ATOM      4  C   UNL     1       3.509   7.656  17.442  0.00  0.00    +0.000 A 
ATOM      5  C   UNL     1       2.507   7.710  18.411  0.00  0.00    +0.000 A 
ATOM      6  C   UNL     1       2.041   6.541  19.032  0.00  0.00    +0.000 A 
ATOM      7  C   UNL     1       2.571   5.276  18.712  0.00  0.00    +0.000 A 
ATOM      8  C   UNL     1       3.601   5.267  17.745  0.00  0.00    +0.000 A 
ATOM      9  O   UNL     1       4.208   4.036  17.415  0.00  0.00    +0.000 OA
ATOM     10  C   UNL     1       5.246   3.906  16.500  0.00  0.00    +0.000 A 
ATOM     11  O   UNL     1       5.841   2.841  16.390  0.00  0.00    +0.000 OA
ENDROOT
BRANCH   7  12
ATOM     12  C   UNL     1       2.015   3.985  19.355  0.00  0.00    +0.000 C 
ATOM     13  C   UNL     1       3.126   3.071  19.936  0.00  0.00    +0.000 C 
ATOM     14  C   UNL     1       1.081   4.337  20.536  0.00  0.00    +0.000 C 
ATOM     15  C   UNL     1       1.243   3.126  18.330  0.00  0.00    +0.000 C 
ENDBRANCH   7  12
BRANCH   1  16
ATOM     16  C   UNL     1       6.493   5.078  14.554  0.00  0.00    +0.000 C 
ATOM     17  O   UNL     1       7.663   5.432  14.592  0.00  0.00    +0.000 OA
BRANCH  16  18
ATOM     18  O   UNL     1       5.828   4.683  13.443  0.00  0.00    +0.000 OA
BRANCH  18  20
ATOM     19  C   UNL     1       5.273   2.988  11.797  0.00  0.00    +0.000 C 
ATOM     20  C   UNL     1       6.302   3.499  12.789  0.00  0.00    +0.000 C 
ENDBRANCH  18  20
ENDBRANCH  16  18
ENDBRANCH   1  16
BRANCH   5  21
ATOM     21  C   UNL     1       1.899   9.004  18.780  0.00  0.00    +0.000 C 
ATOM     22  O   UNL     1       2.018   9.998  18.077  0.00  0.00    +0.000 OA
ENDBRANCH   5  21
TORSDOF 5
ENDMDL
MODEL 5
REMARK VINA RESULT:      -7.4      2.004      2.893
REMARK  Name = 
REMARK  9 active torsions:
REMARK  status: ('A' for Active; 'I' for Inactive)
REMARK    1  A    between atoms: C_1  and  C_2
REMARK    2  A    between atoms: C_2  and  O_3
REMARK    3  A    between atoms: O_3  and  C_4
REMARK    4  A    between atoms: C_4  and  C_6
REMARK    5  A    between atoms: C_10  and  C_11
REMARK    6  A    between atoms: C_14  and  C_15
REMARK    7  A    between atoms: C_15  and  C_16
REMARK    8  A    between atoms: C_15  and  C_17
REMARK    9  A    between atoms: C_15  and  C_18
REMARK                            x       y       z     vdW  Elec       q    Type
REMARK                         _______ _______ _______ _____ _____    ______ ____
ROOT
ATOM      1  C   UNL     1       5.492   5.044  15.731  0.00  0.00    +0.000 A 
ATOM      2  C   UNL     1       4.976   6.236  16.079  0.00  0.00    +0.000 A 
ATOM      3  C   UNL     1       4.011   6.345  17.165  0.00  0.00    +0.000 A 
ATOM      4  C   UNL     1       3.478   7.577  17.536  0.00  0.00    +0.000 A 
ATOM      5  C   UNL     1       2.498   7.623  18.528  0.00  0.00    +0.000 A 
ATOM      6  C   UNL     1       2.038   6.450  19.142  0.00  0.00    +0.000 A 
ATOM      7  C   UNL     1       2.551   5.185  18.793  0.00  0.00    +0.000 A 
ATOM      8  C   UNL     1       3.559   5.183  17.803  0.00  0.00    +0.000 A 
ATOM      9  O   UNL     1       4.150   3.953  17.442  0.00  0.00    +0.000 OA
ATOM     10  C   UNL     1       5.166   3.828  16.503  0.00  0.00    +0.000 A 
ATOM     11  O   UNL     1       5.751   2.760  16.364  0.00  0.00    +0.000 OA
ENDROOT
BRANCH   7  12
ATOM     12  C   UNL     1       2.000   3.889  19.430  0.00  0.00    +0.000 C 
ATOM     13  C   UNL     1       0.979   4.160  20.566  0.00  0.00    +0.000 C 
ATOM     14  C   UNL     1       1.254   3.048  18.368  0.00  0.00    +0.000 C 
ATOM     15  C   UNL     1       3.127   3.040  20.056  0.00  0.00    +0.000 C 
ENDBRANCH   7  12
BRANCH   1  16
ATOM     16  C   UNL     1       6.378   5.019  14.546  0.00  0.00    +0.000 C 
ATOM     17  O   UNL     1       7.492   5.523  14.516  0.00  0.00    +0.000 OA
BRANCH  16  18
ATOM     18  O   UNL     1       5.749   4.441  13.497  0.00  0.00    +0.000 OA
BRANCH  18  20
ATOM     19  C   UNL     1       5.695   2.727  11.779  0.00  0.00    +0.000 C 
ATOM     20  C   UNL     1       6.558   3.667  12.601  0.00  0.00    +0.000 C 
ENDBRANCH  18  20
ENDBRANCH  16  18
ENDBRANCH   1  16
BRANCH   5  21
ATOM     21  C   UNL     1       1.908   8.917  18.929  0.00  0.00    +0.000 C 
ATOM     22  O   UNL     1       1.255   9.038  19.956  0.00  0.00    +0.000 OA
ENDBRANCH   5  21
TORSDOF 5
ENDMDL
MODEL 6
REMARK VINA RESULT:      -7.4      1.051      1.832
REMARK  Name = 
REMARK  9 active torsions:
REMARK  status: ('A' for Active; 'I' for Inactive)
REMARK    1  A    between atoms: C_1  and  C_2
REMARK    2  A    between atoms: C_2  and  O_3
REMARK    3  A    between atoms: O_3  and  C_4
REMARK    4  A    between atoms: C_4  and  C_6
REMARK    5  A    between atoms: C_10  and  C_11
REMARK    6  A    between atoms: C_14  and  C_15
REMARK    7  A    between atoms: C_15  and  C_16
REMARK    8  A    between atoms: C_15  and  C_17
REMARK    9  A    between atoms: C_15  and  C_18
REMARK                            x       y       z     vdW  Elec       q    Type
REMARK                         _______ _______ _______ _____ _____    ______ ____
ROOT
ATOM      1  C   UNL     1       4.770   5.696  16.722  0.00  0.00    +0.000 A 
ATOM      2  C   UNL     1       4.157   6.664  17.425  0.00  0.00    +0.000 A 
ATOM      3  C   UNL     1       3.316   6.338  18.569  0.00  0.00    +0.000 A 
ATOM      4  C   UNL     1       2.683   7.336  19.306  0.00  0.00    +0.000 A 
ATOM      5  C   UNL     1       1.825   6.973  20.344  0.00  0.00    +0.000 A 
ATOM      6  C   UNL     1       1.583   5.624  20.642  0.00  0.00    +0.000 A 
ATOM      7  C   UNL     1       2.202   4.587  19.918  0.00  0.00    +0.000 A 
ATOM      8  C   UNL     1       3.084   4.995  18.893  0.00  0.00    +0.000 A 
ATOM      9  O   UNL     1       3.774   4.005  18.161  0.00  0.00    +0.000 OA
ATOM     10  C   UNL     1       4.685   4.285  17.148  0.00  0.00    +0.000 A 
ATOM     11  O   UNL     1       5.375   3.391  16.675  0.00  0.00    +0.000 OA
ENDROOT
BRANCH   7  12
ATOM     12  C   UNL     1       1.889   3.102  20.211  0.00  0.00    +0.000 C 
ATOM     13  C   UNL     1       1.270   2.880  21.616  0.00  0.00    +0.000 C 
ATOM     14  C   UNL     1       0.858   2.564  19.192  0.00  0.00    +0.000 C 
ATOM     15  C   UNL     1       3.163   2.231  20.160  0.00  0.00    +0.000 C 
ENDBRANCH   7  12
BRANCH   1  16
ATOM     16  C   UNL     1       5.512   6.117  15.512  0.00  0.00    +0.000 C 
ATOM     17  O   UNL     1       5.127   6.984  14.741  0.00  0.00    +0.000 OA
BRANCH  16  18
ATOM     18  O   UNL     1       6.617   5.353  15.345  0.00  0.00    +0.000 OA
BRANCH  18  20
ATOM     19  C   UNL     1       6.217   3.879  13.458  0.00  0.00    +0.000 C 
ATOM     20  C   UNL     1       7.006   5.059  13.996  0.00  0.00    +0.000 C 
ENDBRANCH  18  20
ENDBRANCH  16  18
ENDBRANCH   1  16
BRANCH   5  21
ATOM     21  C   UNL     1       1.132   8.013  21.132  0.00  0.00    +0.000 C 
ATOM     22  O   UNL     1       0.671   9.020  20.611  0.00  0.00    +0.000 OA
ENDBRANCH   5  21
TORSDOF 5
ENDMDL
MODEL 7
REMARK VINA RESULT:      -7.1      1.597      2.253
REMARK  Name = 
REMARK  9 active torsions:
REMARK  status: ('A' for Active; 'I' for Inactive)
REMARK    1  A    between atoms: C_1  and  C_2
REMARK    2  A    between atoms: C_2  and  O_3
REMARK    3  A    between atoms: O_3  and  C_4
REMARK    4  A    between atoms: C_4  and  C_6
REMARK    5  A    between atoms: C_10  and  C_11
REMARK    6  A    between atoms: C_14  and  C_15
REMARK    7  A    between atoms: C_15  and  C_16
REMARK    8  A    between atoms: C_15  and  C_17
REMARK    9  A    between atoms: C_15  and  C_18
REMARK                            x       y       z     vdW  Elec       q    Type
REMARK                         _______ _______ _______ _____ _____    ______ ____
ROOT
ATOM      1  C   UNL     1       5.059   5.000  16.434  0.00  0.00    +0.000 A 
ATOM      2  C   UNL     1       4.545   6.067  17.069  0.00  0.00    +0.000 A 
ATOM      3  C   UNL     1       3.629   5.901  18.189  0.00  0.00    +0.000 A 
ATOM      4  C   UNL     1       3.098   7.001  18.856  0.00  0.00    +0.000 A 
ATOM      5  C   UNL     1       2.163   6.796  19.871  0.00  0.00    +0.000 A 
ATOM      6  C   UNL     1       1.745   5.502  20.216  0.00  0.00    +0.000 A 
ATOM      7  C   UNL     1       2.258   4.364  19.563  0.00  0.00    +0.000 A 
ATOM      8  C   UNL     1       3.221   4.613  18.559  0.00  0.00    +0.000 A 
ATOM      9  O   UNL     1       3.810   3.513  17.899  0.00  0.00    +0.000 OA
ATOM     10  C   UNL     1       4.785   3.632  16.915  0.00  0.00    +0.000 A 
ATOM     11  O   UNL     1       5.376   2.638  16.509  0.00  0.00    +0.000 OA
ENDROOT
BRANCH   7  12
ATOM     12  C   UNL     1       1.753   2.944  19.905  0.00  0.00    +0.000 C 
ATOM     13  C   UNL     1       0.604   2.471  18.976  0.00  0.00    +0.000 C 
ATOM     14  C   UNL     1       2.896   1.917  19.739  0.00  0.00    +0.000 C 
ATOM     15  C   UNL     1       1.202   2.868  21.345  0.00  0.00    +0.000 C 
ENDBRANCH   7  12
BRANCH   1  16
ATOM     16  C   UNL     1       5.892   5.270  15.239  0.00  0.00    +0.000 C 
ATOM     17  O   UNL     1       6.886   5.982  15.246  0.00  0.00    +0.000 OA
BRANCH  16  18
ATOM     18  O   UNL     1       5.350   4.689  14.144  0.00  0.00    +0.000 OA
BRANCH  18  20
ATOM     19  C   UNL     1       5.469   3.300  12.157  0.00  0.00    +0.000 C 
ATOM     20  C   UNL     1       6.204   3.833  13.373  0.00  0.00    +0.000 C 
ENDBRANCH  18  20
ENDBRANCH  16  18
ENDBRANCH   1  16
BRANCH   5  21
ATOM     21  C   UNL     1       1.575   7.948  20.585  0.00  0.00    +0.000 C 
ATOM     22  O   UNL     1       1.229   8.964  19.998  0.00  0.00    +0.000 OA
ENDBRANCH   5  21
TORSDOF 5
ENDMDL
MODEL 8
REMARK VINA RESULT:      -6.9      2.150      4.199
REMARK  Name = 
REMARK  9 active torsions:
REMARK  status: ('A' for Active; 'I' for Inactive)
REMARK    1  A    between atoms: C_1  and  C_2
REMARK    2  A    between atoms: C_2  and  O_3
REMARK    3  A    between atoms: O_3  and  C_4
REMARK    4  A    between atoms: C_4  and  C_6
REMARK    5  A    between atoms: C_10  and  C_11
REMARK    6  A    between atoms: C_14  and  C_15
REMARK    7  A    between atoms: C_15  and  C_16
REMARK    8  A    between atoms: C_15  and  C_17
REMARK    9  A    between atoms: C_15  and  C_18
REMARK                            x       y       z     vdW  Elec       q    Type
REMARK                         _______ _______ _______ _____ _____    ______ ____
ROOT
ATOM      1  C   UNL     1       5.523   4.847  16.431  0.00  0.00    +0.000 A 
ATOM      2  C   UNL     1       4.981   4.080  17.393  0.00  0.00    +0.000 A 
ATOM      3  C   UNL     1       3.887   4.576  18.217  0.00  0.00    +0.000 A 
ATOM      4  C   UNL     1       3.315   3.785  19.210  0.00  0.00    +0.000 A 
ATOM      5  C   UNL     1       2.324   4.330  20.027  0.00  0.00    +0.000 A 
ATOM      6  C   UNL     1       1.909   5.660  19.868  0.00  0.00    +0.000 A 
ATOM      7  C   UNL     1       2.464   6.492  18.876  0.00  0.00    +0.000 A 
ATOM      8  C   UNL     1       3.446   5.896  18.054  0.00  0.00    +0.000 A 
ATOM      9  O   UNL     1       4.008   6.661  17.009  0.00  0.00    +0.000 OA
ATOM     10  C   UNL     1       4.961   6.176  16.120  0.00  0.00    +0.000 A 
ATOM     11  O   UNL     1       5.277   6.833  15.136  0.00  0.00    +0.000 OA
ENDROOT
BRANCH   7  12
ATOM     12  C   UNL     1       2.046   7.974  18.742  0.00  0.00    +0.000 C 
ATOM     13  C   UNL     1       0.836   8.178  17.794  0.00  0.00    +0.000 C 
ATOM     14  C   UNL     1       1.620   8.534  20.119  0.00  0.00    +0.000 C 
ATOM     15  C   UNL     1       3.192   8.838  18.171  0.00  0.00    +0.000 C 
ENDBRANCH   7  12
BRANCH   1  16
ATOM     16  C   UNL     1       6.701   4.297  15.722  0.00  0.00    +0.000 C 
ATOM     17  O   UNL     1       7.859   4.554  16.020  0.00  0.00    +0.000 OA
BRANCH  16  18
ATOM     18  O   UNL     1       6.310   3.550  14.664  0.00  0.00    +0.000 OA
BRANCH  18  20
ATOM     19  C   UNL     1       5.835   3.295  12.298  0.00  0.00    +0.000 C 
ATOM     20  C   UNL     1       6.588   4.076  13.360  0.00  0.00    +0.000 C 
ENDBRANCH  18  20
ENDBRANCH  16  18
ENDBRANCH   1  16
BRANCH   5  21
ATOM     21  C   UNL     1       1.712   3.515  21.096  0.00  0.00    +0.000 C 
ATOM     22  O   UNL     1       2.234   3.394  22.196  0.00  0.00    +0.000 OA
ENDBRANCH   5  21
TORSDOF 5
ENDMDL
MODEL 9
REMARK VINA RESULT:      -6.8      1.100      1.772
REMARK  Name = 
REMARK  9 active torsions:
REMARK  status: ('A' for Active; 'I' for Inactive)
REMARK    1  A    between atoms: C_1  and  C_2
REMARK    2  A    between atoms: C_2  and  O_3
REMARK    3  A    between atoms: O_3  and  C_4
REMARK    4  A    between atoms: C_4  and  C_6
REMARK    5  A    between atoms: C_10  and  C_11
REMARK    6  A    between atoms: C_14  and  C_15
REMARK    7  A    between atoms: C_15  and  C_16
REMARK    8  A    between atoms: C_15  and  C_17
REMARK    9  A    between atoms: C_15  and  C_18
REMARK                            x       y       z     vdW  Elec       q    Type
REMARK                         _______ _______ _______ _____ _____    ______ ____
ROOT
ATOM      1  C   UNL     1       5.370   5.695  17.213  0.00  0.00    +0.000 A 
ATOM      2  C   UNL     1       4.563   6.625  17.751  0.00  0.00    +0.000 A 
ATOM      3  C   UNL     1       3.603   6.273  18.788  0.00  0.00    +0.000 A 
ATOM      4  C   UNL     1       2.769   7.233  19.356  0.00  0.00    +0.000 A 
ATOM      5  C   UNL     1       1.810   6.836  20.288  0.00  0.00    +0.000 A 
ATOM      6  C   UNL     1       1.669   5.488  20.648  0.00  0.00    +0.000 A 
ATOM      7  C   UNL     1       2.493   4.488  20.095  0.00  0.00    +0.000 A 
ATOM      8  C   UNL     1       3.467   4.933  19.174  0.00  0.00    +0.000 A 
ATOM      9  O   UNL     1       4.357   3.988  18.620  0.00  0.00    +0.000 OA
ATOM     10  C   UNL     1       5.371   4.311  17.726  0.00  0.00    +0.000 A 
ATOM     11  O   UNL     1       6.212   3.474  17.420  0.00  0.00    +0.000 OA
ENDROOT
BRANCH   7  12
ATOM     12  C   UNL     1       2.296   2.996  20.450  0.00  0.00    +0.000 C 
ATOM     13  C   UNL     1       1.682   2.174  19.287  0.00  0.00    +0.000 C 
ATOM     14  C   UNL     1       3.659   2.341  20.773  0.00  0.00    +0.000 C 
ATOM     15  C   UNL     1       1.345   2.818  21.653  0.00  0.00    +0.000 C 
ENDBRANCH   7  12
BRANCH   1  16
ATOM     16  C   UNL     1       6.233   6.126  16.090  0.00  0.00    +0.000 C 
ATOM     17  O   UNL     1       7.364   6.571  16.229  0.00  0.00    +0.000 OA
BRANCH  16  18
ATOM     18  O   UNL     1       5.564   6.036  14.918  0.00  0.00    +0.000 OA
BRANCH  18  20
ATOM     19  C   UNL     1       6.481   4.129  13.728  0.00  0.00    +0.000 C 
ATOM     20  C   UNL     1       5.274   4.717  14.436  0.00  0.00    +0.000 C 
ENDBRANCH  18  20
ENDBRANCH  16  18
ENDBRANCH   1  16
BRANCH   5  21
ATOM     21  C   UNL     1       0.905   7.834  20.894  0.00  0.00    +0.000 C 
ATOM     22  O   UNL     1       1.250   8.531  21.837  0.00  0.00    +0.000 OA
ENDBRANCH   5  21
TORSDOF 5
ENDMDL
