MODEL 1
REMARK VINA RESULT:      -7.3      0.000      0.000
REMARK  Name = 
REMARK  4 active torsions:
REMARK  status: ('A' for Active; 'I' for Inactive)
REMARK    1  A    between atoms: C_2  and  C_4
REMARK    2  A    between atoms: C_7  and  C_8
REMARK    3  A    between atoms: N_12  and  C_13
REMARK    4  A    between atoms: C_13  and  C_14
REMARK                            x       y       z     vdW  Elec       q    Type
REMARK                         _______ _______ _______ _____ _____    ______ ____
ROOT
ATOM      1  C   UNL     1      -0.847  12.649  20.348  0.00  0.00    +0.000 C 
ATOM      2  C   UNL     1      -1.237  11.154  20.336  0.00  0.00    +0.000 C 
ATOM      3  C   UNL     1      -0.417  10.303  19.420  0.00  0.00    +0.000 C 
ATOM      4  O   UNL     1      -0.667  10.146  18.234  0.00  0.00    +0.000 OA
ATOM      5  N   UNL     1       0.665   9.844  20.127  0.00  0.00    +0.000 N 
ATOM      6  C   UNL     1       0.560  10.137  21.466  0.00  0.00    +0.000 C 
ATOM      7  O   UNL     1       1.420   9.993  22.324  0.00  0.00    +0.000 OA
ATOM      8  C   UNL     1      -0.847  10.641  21.708  0.00  0.00    +0.000 C 
ATOM      9  C   UNL     1      -1.014  11.848  22.613  0.00  0.00    +0.000 C 
ATOM     10  C   UNL     1      -2.354  11.849  23.359  0.00  0.00    +0.000 C 
ATOM     11  C   UNL     1      -2.768  13.308  23.345  0.00  0.00    +0.000 C 
ATOM     12  C   UNL     1      -2.364  13.720  21.947  0.00  0.00    +0.000 C 
ATOM     13  N   UNL     1      -1.064  13.062  21.750  0.00  0.00    +0.000 NA
ENDROOT
BRANCH   1  17
ATOM     14  C   UNL     1       3.095  13.987  19.081  0.00  0.00    +0.000 A 
ATOM     15  C   UNL     1       2.787  13.802  20.432  0.00  0.00    +0.000 A 
ATOM     16  C   UNL     1       1.542  13.297  20.817  0.00  0.00    +0.000 A 
ATOM     17  C   UNL     1       0.568  12.972  19.861  0.00  0.00    +0.000 A 
ATOM     18  C   UNL     1       0.924  13.068  18.505  0.00  0.00    +0.000 A 
ATOM     19  C   UNL     1       2.171  13.578  18.117  0.00  0.00    +0.000 A 
BRANCH  14  21
ATOM     20  N   UNL     1       4.639  14.915  17.476  0.00  0.00    +0.000 NA
ATOM     21  C   UNL     1       4.383  14.668  18.722  0.00  0.00    +0.000 C 
ATOM     22  N   UNL     1       5.307  15.006  19.669  0.00  0.00    +0.000 N 
ATOM     23  H   UNL     1       5.539  15.387  17.389  0.00  0.00    +0.000 HD
ATOM     24  H   UNL     1       6.250  15.167  19.329  0.00  0.00    +0.000 HD
ATOM     25  H   UNL     1       5.308  14.483  20.532  0.00  0.00    +0.000 HD
ENDBRANCH  14  21
ENDBRANCH   1  17
BRANCH   5  26
ATOM     26  C   UNL     1       1.886   9.411  19.475  0.00  0.00    +0.000 C 
BRANCH  26  27
ATOM     27  C   UNL     1       2.027   7.910  19.413  0.00  0.00    +0.000 A 
ATOM     28  C   UNL     1       2.437   7.285  18.222  0.00  0.00    +0.000 A 
ATOM     29  C   UNL     1       2.519   5.895  18.143  0.00  0.00    +0.000 A 
ATOM     30  C   UNL     1       2.197   5.130  19.257  0.00  0.00    +0.000 A 
ATOM     31  F   UNL     1       2.255   3.794  19.178  0.00  0.00    +0.000 F 
ATOM     32  C   UNL     1       1.811   5.731  20.450  0.00  0.00    +0.000 A 
ATOM     33  C   UNL     1       1.725   7.121  20.531  0.00  0.00    +0.000 A 
ENDBRANCH  26  27
ENDBRANCH   5  26
TORSDOF 4
ENDMDL
MODEL 2
REMARK VINA RESULT:      -7.3      3.357      6.454
REMARK  Name = 
REMARK  4 active torsions:
REMARK  status: ('A' for Active; 'I' for Inactive)
REMARK    1  A    between atoms: C_2  and  C_4
REMARK    2  A    between atoms: C_7  and  C_8
REMARK    3  A    between atoms: N_12  and  C_13
REMARK    4  A    between atoms: C_13  and  C_14
REMARK                            x       y       z     vdW  Elec       q    Type
REMARK                         _______ _______ _______ _____ _____    ______ ____
ROOT
ATOM      1  C   UNL     1       1.271  12.518  21.253  0.00  0.00    +0.000 C 
ATOM      2  C   UNL     1       1.423  11.789  19.899  0.00  0.00    +0.000 C 
ATOM      3  C   UNL     1       0.359  10.779  19.611  0.00  0.00    +0.000 C 
ATOM      4  O   UNL     1       0.407   9.617  19.986  0.00  0.00    +0.000 OA
ATOM      5  N   UNL     1      -0.666  11.419  18.963  0.00  0.00    +0.000 N 
ATOM      6  C   UNL     1      -0.325  12.704  18.614  0.00  0.00    +0.000 C 
ATOM      7  O   UNL     1      -1.064  13.569  18.162  0.00  0.00    +0.000 OA
ATOM      8  C   UNL     1       1.162  12.856  18.853  0.00  0.00    +0.000 C 
ATOM      9  C   UNL     1       1.640  14.138  19.509  0.00  0.00    +0.000 C 
ATOM     10  C   UNL     1       3.059  14.531  19.080  0.00  0.00    +0.000 C 
ATOM     11  C   UNL     1       3.683  15.063  20.354  0.00  0.00    +0.000 C 
ATOM     12  C   UNL     1       3.148  14.087  21.379  0.00  0.00    +0.000 C 
ATOM     13  N   UNL     1       1.748  13.888  20.975  0.00  0.00    +0.000 NA
ENDROOT
BRANCH   1  17
ATOM     14  C   UNL     1      -2.558  12.730  23.312  0.00  0.00    +0.000 A 
ATOM     15  C   UNL     1      -2.061  13.813  22.580  0.00  0.00    +0.000 A 
ATOM     16  C   UNL     1      -0.869  13.702  21.861  0.00  0.00    +0.000 A 
ATOM     17  C   UNL     1      -0.134  12.506  21.861  0.00  0.00    +0.000 A 
ATOM     18  C   UNL     1      -0.692  11.395  22.517  0.00  0.00    +0.000 A 
ATOM     19  C   UNL     1      -1.887  11.507  23.242  0.00  0.00    +0.000 A 
BRANCH  14  21
ATOM     20  N   UNL     1      -4.032  14.134  24.604  0.00  0.00    +0.000 NA
ATOM     21  C   UNL     1      -3.759  12.939  24.185  0.00  0.00    +0.000 C 
ATOM     22  N   UNL     1      -4.555  11.901  24.577  0.00  0.00    +0.000 N 
ATOM     23  H   UNL     1      -4.878  14.122  25.175  0.00  0.00    +0.000 HD
ATOM     24  H   UNL     1      -5.135  12.072  25.392  0.00  0.00    +0.000 HD
ATOM     25  H   UNL     1      -4.145  10.978  24.601  0.00  0.00    +0.000 HD
ENDBRANCH  14  21
ENDBRANCH   1  17
BRANCH   5  26
ATOM     26  C   UNL     1      -2.021  10.900  18.958  0.00  0.00    +0.000 C 
BRANCH  26  27
ATOM     27  C   UNL     1      -2.580  10.710  17.569  0.00  0.00    +0.000 A 
ATOM     28  C   UNL     1      -3.748  11.386  17.176  0.00  0.00    +0.000 A 
ATOM     29  C   UNL     1      -4.298  11.174  15.912  0.00  0.00    +0.000 A 
ATOM     30  C   UNL     1      -3.676  10.292  15.039  0.00  0.00    +0.000 A 
ATOM     31  F   UNL     1      -4.214  10.071  13.831  0.00  0.00    +0.000 F 
ATOM     32  C   UNL     1      -2.508   9.630  15.401  0.00  0.00    +0.000 A 
ATOM     33  C   UNL     1      -1.958   9.837  16.666  0.00  0.00    +0.000 A 
ENDBRANCH  26  27
ENDBRANCH   5  26
TORSDOF 4
ENDMDL
MODEL 3
REMARK VINA RESULT:      -7.2      2.456      5.565
REMARK  Name = 
REMARK  4 active torsions:
REMARK  status: ('A' for Active; 'I' for Inactive)
REMARK    1  A    between atoms: C_2  and  C_4
REMARK    2  A    between atoms: C_7  and  C_8
REMARK    3  A    between atoms: N_12  and  C_13
REMARK    4  A    between atoms: C_13  and  C_14
REMARK                            x       y       z     vdW  Elec       q    Type
REMARK                         _______ _______ _______ _____ _____    ______ ____
ROOT
ATOM      1  C   UNL     1       0.185  15.065  21.066  0.00  0.00    +0.000 C 
ATOM      2  C   UNL     1       1.230  14.301  20.223  0.00  0.00    +0.000 C 
ATOM      3  C   UNL     1       1.257  12.824  20.453  0.00  0.00    +0.000 C 
ATOM      4  O   UNL     1       1.910  12.287  21.335  0.00  0.00    +0.000 OA
ATOM      5  N   UNL     1       0.372  12.245  19.580  0.00  0.00    +0.000 N 
ATOM      6  C   UNL     1      -0.104  13.149  18.661  0.00  0.00    +0.000 C 
ATOM      7  O   UNL     1      -1.007  12.978  17.853  0.00  0.00    +0.000 OA
ATOM      8  C   UNL     1       0.727  14.407  18.795  0.00  0.00    +0.000 C 
ATOM      9  C   UNL     1      -0.003  15.738  18.761  0.00  0.00    +0.000 C 
ATOM     10  C   UNL     1       0.858  16.872  18.193  0.00  0.00    +0.000 C 
ATOM     11  C   UNL     1       0.497  18.062  19.060  0.00  0.00    +0.000 C 
ATOM     12  C   UNL     1       0.406  17.420  20.427  0.00  0.00    +0.000 C 
ATOM     13  N   UNL     1      -0.277  16.144  20.169  0.00  0.00    +0.000 NA
ENDROOT
BRANCH   1  17
ATOM     14  C   UNL     1      -3.287  13.060  22.759  0.00  0.00    +0.000 A 
ATOM     15  C   UNL     1      -3.368  13.772  21.558  0.00  0.00    +0.000 A 
ATOM     16  C   UNL     1      -2.228  14.343  20.989  0.00  0.00    +0.000 A 
ATOM     17  C   UNL     1      -0.974  14.226  21.610  0.00  0.00    +0.000 A 
ATOM     18  C   UNL     1      -0.887  13.427  22.762  0.00  0.00    +0.000 A 
ATOM     19  C   UNL     1      -2.031  12.857  23.337  0.00  0.00    +0.000 A 
BRANCH  14  21
ATOM     20  N   UNL     1      -5.622  12.463  22.684  0.00  0.00    +0.000 NA
ATOM     21  C   UNL     1      -4.556  12.593  23.408  0.00  0.00    +0.000 C 
ATOM     22  N   UNL     1      -4.627  12.331  24.747  0.00  0.00    +0.000 N 
ATOM     23  H   UNL     1      -6.398  12.129  23.257  0.00  0.00    +0.000 HD
ATOM     24  H   UNL     1      -5.559  12.327  25.147  0.00  0.00    +0.000 HD
ATOM     25  H   UNL     1      -3.964  12.795  25.352  0.00  0.00    +0.000 HD
ENDBRANCH  14  21
ENDBRANCH   1  17
BRANCH   5  26
ATOM     26  C   UNL     1      -0.213  10.940  19.825  0.00  0.00    +0.000 C 
BRANCH  26  27
ATOM     27  C   UNL     1       0.710   9.799  19.474  0.00  0.00    +0.000 A 
ATOM     28  C   UNL     1       1.190   9.654  18.161  0.00  0.00    +0.000 A 
ATOM     29  C   UNL     1       2.001   8.572  17.818  0.00  0.00    +0.000 A 
ATOM     30  C   UNL     1       2.338   7.640  18.790  0.00  0.00    +0.000 A 
ATOM     31  F   UNL     1       3.100   6.589  18.459  0.00  0.00    +0.000 F 
ATOM     32  C   UNL     1       1.891   7.777  20.100  0.00  0.00    +0.000 A 
ATOM     33  C   UNL     1       1.076   8.856  20.444  0.00  0.00    +0.000 A 
ENDBRANCH  26  27
ENDBRANCH   5  26
TORSDOF 4
ENDMDL
MODEL 4
REMARK VINA RESULT:      -7.2      2.495      5.693
REMARK  Name = 
REMARK  4 active torsions:
REMARK  status: ('A' for Active; 'I' for Inactive)
REMARK    1  A    between atoms: C_2  and  C_4
REMARK    2  A    between atoms: C_7  and  C_8
REMARK    3  A    between atoms: N_12  and  C_13
REMARK    4  A    between atoms: C_13  and  C_14
REMARK                            x       y       z     vdW  Elec       q    Type
REMARK                         _______ _______ _______ _____ _____    ______ ____
ROOT
ATOM      1  C   UNL     1       0.051  15.081  21.055  0.00  0.00    +0.000 C 
ATOM      2  C   UNL     1       1.115  14.321  20.231  0.00  0.00    +0.000 C 
ATOM      3  C   UNL     1       1.170  12.850  20.488  0.00  0.00    +0.000 C 
ATOM      4  O   UNL     1       1.828  12.342  21.384  0.00  0.00    +0.000 OA
ATOM      5  N   UNL     1       0.300  12.237  19.622  0.00  0.00    +0.000 N 
ATOM      6  C   UNL     1      -0.188  13.114  18.684  0.00  0.00    +0.000 C 
ATOM      7  O   UNL     1      -1.084  12.910  17.875  0.00  0.00    +0.000 OA
ATOM      8  C   UNL     1       0.618  14.391  18.799  0.00  0.00    +0.000 C 
ATOM      9  C   UNL     1      -0.138  15.706  18.736  0.00  0.00    +0.000 C 
ATOM     10  C   UNL     1       0.704  16.846  18.151  0.00  0.00    +0.000 C 
ATOM     11  C   UNL     1       0.315  18.045  18.994  0.00  0.00    +0.000 C 
ATOM     12  C   UNL     1       0.231  17.427  20.372  0.00  0.00    +0.000 C 
ATOM     13  N   UNL     1      -0.427  16.133  20.134  0.00  0.00    +0.000 NA
ENDROOT
BRANCH   1  17
ATOM     14  C   UNL     1      -3.388  13.040  22.771  0.00  0.00    +0.000 A 
ATOM     15  C   UNL     1      -3.481  13.735  21.561  0.00  0.00    +0.000 A 
ATOM     16  C   UNL     1      -2.349  14.318  20.985  0.00  0.00    +0.000 A 
ATOM     17  C   UNL     1      -1.095  14.230  21.608  0.00  0.00    +0.000 A 
ATOM     18  C   UNL     1      -0.995  13.446  22.770  0.00  0.00    +0.000 A 
ATOM     19  C   UNL     1      -2.130  12.864  23.352  0.00  0.00    +0.000 A 
BRANCH  14  21
ATOM     20  N   UNL     1      -4.600  12.119  24.642  0.00  0.00    +0.000 NA
ATOM     21  C   UNL     1      -4.650  12.560  23.425  0.00  0.00    +0.000 C 
ATOM     22  N   UNL     1      -5.844  12.547  22.763  0.00  0.00    +0.000 N 
ATOM     23  H   UNL     1      -5.531  11.840  24.953  0.00  0.00    +0.000 HD
ATOM     24  H   UNL     1      -6.557  11.936  23.150  0.00  0.00    +0.000 HD
ATOM     25  H   UNL     1      -5.822  12.498  21.755  0.00  0.00    +0.000 HD
ENDBRANCH  14  21
ENDBRANCH   1  17
BRANCH   5  26
ATOM     26  C   UNL     1      -0.261  10.926  19.890  0.00  0.00    +0.000 C 
BRANCH  26  27
ATOM     27  C   UNL     1       0.642   9.794  19.462  0.00  0.00    +0.000 A 
ATOM     28  C   UNL     1       1.044   8.819  20.391  0.00  0.00    +0.000 A 
ATOM     29  C   UNL     1       1.919   7.800  20.015  0.00  0.00    +0.000 A 
ATOM     30  C   UNL     1       2.387   7.754  18.708  0.00  0.00    +0.000 A 
ATOM     31  F   UNL     1       3.245   6.789  18.349  0.00  0.00    +0.000 F 
ATOM     32  C   UNL     1       1.985   8.697  17.769  0.00  0.00    +0.000 A 
ATOM     33  C   UNL     1       1.111   9.719  18.144  0.00  0.00    +0.000 A 
ENDBRANCH  26  27
ENDBRANCH   5  26
TORSDOF 4
ENDMDL
MODEL 5
REMARK VINA RESULT:      -7.1      3.348      6.425
REMARK  Name = 
REMARK  4 active torsions:
REMARK  status: ('A' for Active; 'I' for Inactive)
REMARK    1  A    between atoms: C_2  and  C_4
REMARK    2  A    between atoms: C_7  and  C_8
REMARK    3  A    between atoms: N_12  and  C_13
REMARK    4  A    between atoms: C_13  and  C_14
REMARK                            x       y       z     vdW  Elec       q    Type
REMARK                         _______ _______ _______ _____ _____    ______ ____
ROOT
ATOM      1  C   UNL     1       1.278  12.716  21.277  0.00  0.00    +0.000 C 
ATOM      2  C   UNL     1       1.448  11.805  20.041  0.00  0.00    +0.000 C 
ATOM      3  C   UNL     1       0.349  10.812  19.842  0.00  0.00    +0.000 C 
ATOM      4  O   UNL     1       0.326   9.710  20.371  0.00  0.00    +0.000 OA
ATOM      5  N   UNL     1      -0.618  11.402  19.068  0.00  0.00    +0.000 N 
ATOM      6  C   UNL     1      -0.201  12.612  18.567  0.00  0.00    +0.000 C 
ATOM      7  O   UNL     1      -0.879  13.439  17.971  0.00  0.00    +0.000 OA
ATOM      8  C   UNL     1       1.281  12.731  18.851  0.00  0.00    +0.000 C 
ATOM      9  C   UNL     1       1.795  14.069  19.352  0.00  0.00    +0.000 C 
ATOM     10  C   UNL     1       3.246  14.339  18.938  0.00  0.00    +0.000 C 
ATOM     11  C   UNL     1       3.845  15.011  20.158  0.00  0.00    +0.000 C 
ATOM     12  C   UNL     1       3.223  14.206  21.278  0.00  0.00    +0.000 C 
ATOM     13  N   UNL     1       1.833  14.015  20.841  0.00  0.00    +0.000 NA
ENDROOT
BRANCH   1  17
ATOM     14  C   UNL     1      -2.888  12.760  22.533  0.00  0.00    +0.000 A 
ATOM     15  C   UNL     1      -2.005  11.767  22.969  0.00  0.00    +0.000 A 
ATOM     16  C   UNL     1      -0.653  11.812  22.620  0.00  0.00    +0.000 A 
ATOM     17  C   UNL     1      -0.148  12.847  21.816  0.00  0.00    +0.000 A 
ATOM     18  C   UNL     1      -1.023  13.890  21.467  0.00  0.00    +0.000 A 
ATOM     19  C   UNL     1      -2.381  13.844  21.813  0.00  0.00    +0.000 A 
BRANCH  14  21
ATOM     20  N   UNL     1      -4.762  12.531  24.035  0.00  0.00    +0.000 NA
ATOM     21  C   UNL     1      -4.354  12.591  22.807  0.00  0.00    +0.000 C 
ATOM     22  N   UNL     1      -5.266  12.468  21.798  0.00  0.00    +0.000 N 
ATOM     23  H   UNL     1      -5.776  12.427  24.064  0.00  0.00    +0.000 HD
ATOM     24  H   UNL     1      -6.156  12.056  22.056  0.00  0.00    +0.000 HD
ATOM     25  H   UNL     1      -4.938  12.119  20.909  0.00  0.00    +0.000 HD
ENDBRANCH  14  21
ENDBRANCH   1  17
BRANCH   5  26
ATOM     26  C   UNL     1      -1.995  10.945  19.070  0.00  0.00    +0.000 C 
BRANCH  26  27
ATOM     27  C   UNL     1      -2.557  10.743  17.685  0.00  0.00    +0.000 A 
ATOM     28  C   UNL     1      -3.717  11.429  17.283  0.00  0.00    +0.000 A 
ATOM     29  C   UNL     1      -4.270  11.207  16.022  0.00  0.00    +0.000 A 
ATOM     30  C   UNL     1      -3.661  10.305  15.161  0.00  0.00    +0.000 A 
ATOM     31  F   UNL     1      -4.202  10.074  13.957  0.00  0.00    +0.000 F 
ATOM     32  C   UNL     1      -2.501   9.633  15.531  0.00  0.00    +0.000 A 
ATOM     33  C   UNL     1      -1.947   9.850  16.793  0.00  0.00    +0.000 A 
ENDBRANCH  26  27
ENDBRANCH   5  26
TORSDOF 4
ENDMDL
MODEL 6
REMARK VINA RESULT:      -6.9      3.338      6.400
REMARK  Name = 
REMARK  4 active torsions:
REMARK  status: ('A' for Active; 'I' for Inactive)
REMARK    1  A    between atoms: C_2  and  C_4
REMARK    2  A    between atoms: C_7  and  C_8
REMARK    3  A    between atoms: N_12  and  C_13
REMARK    4  A    between atoms: C_13  and  C_14
REMARK                            x       y       z     vdW  Elec       q    Type
REMARK                         _______ _______ _______ _____ _____    ______ ____
ROOT
ATOM      1  C   UNL     1       1.274  12.613  21.217  0.00  0.00    +0.000 C 
ATOM      2  C   UNL     1       1.410  11.721  19.963  0.00  0.00    +0.000 C 
ATOM      3  C   UNL     1       0.293  10.746  19.768  0.00  0.00    +0.000 C 
ATOM      4  O   UNL     1       0.265   9.636  20.278  0.00  0.00    +0.000 OA
ATOM      5  N   UNL     1      -0.679  11.361  19.022  0.00  0.00    +0.000 N 
ATOM      6  C   UNL     1      -0.256  12.574  18.533  0.00  0.00    +0.000 C 
ATOM      7  O   UNL     1      -0.932  13.419  17.963  0.00  0.00    +0.000 OA
ATOM      8  C   UNL     1       1.233  12.669  18.792  0.00  0.00    +0.000 C 
ATOM      9  C   UNL     1       1.774  13.991  19.305  0.00  0.00    +0.000 C 
ATOM     10  C   UNL     1       3.221  14.249  18.870  0.00  0.00    +0.000 C 
ATOM     11  C   UNL     1       3.851  14.892  20.090  0.00  0.00    +0.000 C 
ATOM     12  C   UNL     1       3.239  14.077  21.208  0.00  0.00    +0.000 C 
ATOM     13  N   UNL     1       1.838  13.911  20.793  0.00  0.00    +0.000 NA
ENDROOT
BRANCH   1  17
ATOM     14  C   UNL     1      -2.572  13.275  23.142  0.00  0.00    +0.000 A 
ATOM     15  C   UNL     1      -1.986  14.249  22.327  0.00  0.00    +0.000 A 
ATOM     16  C   UNL     1      -0.790  13.990  21.654  0.00  0.00    +0.000 A 
ATOM     17  C   UNL     1      -0.140  12.753  21.785  0.00  0.00    +0.000 A 
ATOM     18  C   UNL     1      -0.788  11.749  22.525  0.00  0.00    +0.000 A 
ATOM     19  C   UNL     1      -1.987  12.009  23.204  0.00  0.00    +0.000 A 
BRANCH  14  21
ATOM     20  N   UNL     1      -4.211  12.815  24.851  0.00  0.00    +0.000 NA
ATOM     21  C   UNL     1      -3.774  13.647  23.959  0.00  0.00    +0.000 C 
ATOM     22  N   UNL     1      -4.440  14.824  23.767  0.00  0.00    +0.000 N 
ATOM     23  H   UNL     1      -5.021  13.207  25.331  0.00  0.00    +0.000 HD
ATOM     24  H   UNL     1      -5.389  14.857  24.124  0.00  0.00    +0.000 HD
ATOM     25  H   UNL     1      -4.368  15.261  22.860  0.00  0.00    +0.000 HD
ENDBRANCH  14  21
ENDBRANCH   1  17
BRANCH   5  26
ATOM     26  C   UNL     1      -2.062  10.923  19.042  0.00  0.00    +0.000 C 
BRANCH  26  27
ATOM     27  C   UNL     1      -2.634  10.696  17.664  0.00  0.00    +0.000 A 
ATOM     28  C   UNL     1      -2.003   9.813  16.771  0.00  0.00    +0.000 A 
ATOM     29  C   UNL     1      -2.497   9.638  15.478  0.00  0.00    +0.000 A 
ATOM     30  C   UNL     1      -3.626  10.343  15.081  0.00  0.00    +0.000 A 
ATOM     31  F   UNL     1      -4.091  10.194  13.834  0.00  0.00    +0.000 F 
ATOM     32  C   UNL     1      -4.277  11.205  15.957  0.00  0.00    +0.000 A 
ATOM     33  C   UNL     1      -3.783  11.384  17.249  0.00  0.00    +0.000 A 
ENDBRANCH  26  27
ENDBRANCH   5  26
TORSDOF 4
ENDMDL
MODEL 7
REMARK VINA RESULT:      -6.8      4.100      6.722
REMARK  Name = 
REMARK  4 active torsions:
REMARK  status: ('A' for Active; 'I' for Inactive)
REMARK    1  A    between atoms: C_2  and  C_4
REMARK    2  A    between atoms: C_7  and  C_8
REMARK    3  A    between atoms: N_12  and  C_13
REMARK    4  A    between atoms: C_13  and  C_14
REMARK                            x       y       z     vdW  Elec       q    Type
REMARK                         _______ _______ _______ _____ _____    ______ ____
ROOT
ATOM      1  C   UNL     1      -1.511  12.041  21.726  0.00  0.00    +0.000 C 
ATOM      2  C   UNL     1      -0.376  13.010  22.124  0.00  0.00    +0.000 C 
ATOM      3  C   UNL     1       0.701  13.165  21.099  0.00  0.00    +0.000 C 
ATOM      4  O   UNL     1       1.669  12.424  21.014  0.00  0.00    +0.000 OA
ATOM      5  N   UNL     1       0.342  14.192  20.263  0.00  0.00    +0.000 N 
ATOM      6  C   UNL     1      -0.761  14.867  20.728  0.00  0.00    +0.000 C 
ATOM      7  O   UNL     1      -1.404  15.726  20.141  0.00  0.00    +0.000 OA
ATOM      8  C   UNL     1      -1.024  14.381  22.138  0.00  0.00    +0.000 C 
ATOM      9  C   UNL     1      -2.464  14.103  22.527  0.00  0.00    +0.000 C 
ATOM     10  C   UNL     1      -2.730  14.327  24.020  0.00  0.00    +0.000 C 
ATOM     11  C   UNL     1      -3.673  13.199  24.388  0.00  0.00    +0.000 C 
ATOM     12  C   UNL     1      -3.082  12.047  23.606  0.00  0.00    +0.000 C 
ATOM     13  N   UNL     1      -2.722  12.650  22.314  0.00  0.00    +0.000 NA
ENDROOT
BRANCH   1  17
ATOM     14  C   UNL     1      -2.305  11.047  17.565  0.00  0.00    +0.000 A 
ATOM     15  C   UNL     1      -3.063  12.006  18.243  0.00  0.00    +0.000 A 
ATOM     16  C   UNL     1      -2.745  12.370  19.554  0.00  0.00    +0.000 A 
ATOM     17  C   UNL     1      -1.665  11.777  20.226  0.00  0.00    +0.000 A 
ATOM     18  C   UNL     1      -0.852  10.888  19.502  0.00  0.00    +0.000 A 
ATOM     19  C   UNL     1      -1.172  10.519  18.188  0.00  0.00    +0.000 A 
BRANCH  14  21
ATOM     20  N   UNL     1      -3.236  11.451  15.376  0.00  0.00    +0.000 NA
ATOM     21  C   UNL     1      -2.772  10.581  16.217  0.00  0.00    +0.000 C 
ATOM     22  N   UNL     1      -2.750   9.262  15.863  0.00  0.00    +0.000 N 
ATOM     23  H   UNL     1      -3.502  10.991  14.505  0.00  0.00    +0.000 HD
ATOM     24  H   UNL     1      -3.353   9.002  15.089  0.00  0.00    +0.000 HD
ATOM     25  H   UNL     1      -2.781   8.577  16.604  0.00  0.00    +0.000 HD
ENDBRANCH  14  21
ENDBRANCH   1  17
BRANCH   5  26
ATOM     26  C   UNL     1       0.870  14.312  18.916  0.00  0.00    +0.000 C 
BRANCH  26  27
ATOM     27  C   UNL     1       2.176  15.065  18.854  0.00  0.00    +0.000 A 
ATOM     28  C   UNL     1       2.319  16.291  19.527  0.00  0.00    +0.000 A 
ATOM     29  C   UNL     1       3.506  17.018  19.432  0.00  0.00    +0.000 A 
ATOM     30  C   UNL     1       4.551  16.515  18.669  0.00  0.00    +0.000 A 
ATOM     31  F   UNL     1       5.685  17.220  18.557  0.00  0.00    +0.000 F 
ATOM     32  C   UNL     1       4.437  15.294  18.013  0.00  0.00    +0.000 A 
ATOM     33  C   UNL     1       3.249  14.567  18.104  0.00  0.00    +0.000 A 
ENDBRANCH  26  27
ENDBRANCH   5  26
TORSDOF 4
ENDMDL
MODEL 8
REMARK VINA RESULT:      -6.8      7.023      9.919
REMARK  Name = 
REMARK  4 active torsions:
REMARK  status: ('A' for Active; 'I' for Inactive)
REMARK    1  A    between atoms: C_2  and  C_4
REMARK    2  A    between atoms: C_7  and  C_8
REMARK    3  A    between atoms: N_12  and  C_13
REMARK    4  A    between atoms: C_13  and  C_14
REMARK                            x       y       z     vdW  Elec       q    Type
REMARK                         _______ _______ _______ _____ _____    ______ ____
ROOT
ATOM      1  C   UNL     1       9.673  15.262  18.736  0.00  0.00    +0.000 C 
ATOM      2  C   UNL     1      10.282  14.947  20.121  0.00  0.00    +0.000 C 
ATOM      3  C   UNL     1       9.361  15.181  21.275  0.00  0.00    +0.000 C 
ATOM      4  O   UNL     1       9.230  16.262  21.829  0.00  0.00    +0.000 OA
ATOM      5  N   UNL     1       8.665  14.021  21.501  0.00  0.00    +0.000 N 
ATOM      6  C   UNL     1       9.153  12.978  20.750  0.00  0.00    +0.000 C 
ATOM      7  O   UNL     1       8.660  11.866  20.619  0.00  0.00    +0.000 OA
ATOM      8  C   UNL     1      10.456  13.440  20.133  0.00  0.00    +0.000 C 
ATOM      9  C   UNL     1      10.707  13.088  18.678  0.00  0.00    +0.000 C 
ATOM     10  C   UNL     1      12.197  12.926  18.355  0.00  0.00    +0.000 C 
ATOM     11  C   UNL     1      12.333  13.548  16.979  0.00  0.00    +0.000 C 
ATOM     12  C   UNL     1      11.429  14.754  17.105  0.00  0.00    +0.000 C 
ATOM     13  N   UNL     1      10.266  14.243  17.846  0.00  0.00    +0.000 NA
ENDROOT
BRANCH   1  17
ATOM     14  C   UNL     1       5.368  15.368  18.108  0.00  0.00    +0.000 A 
ATOM     15  C   UNL     1       6.132  14.257  17.739  0.00  0.00    +0.000 A 
ATOM     16  C   UNL     1       7.500  14.207  18.019  0.00  0.00    +0.000 A 
ATOM     17  C   UNL     1       8.144  15.272  18.668  0.00  0.00    +0.000 A 
ATOM     18  C   UNL     1       7.349  16.338  19.122  0.00  0.00    +0.000 A 
ATOM     19  C   UNL     1       5.976  16.392  18.838  0.00  0.00    +0.000 A 
BRANCH  14  21
ATOM     20  N   UNL     1       3.272  14.344  17.494  0.00  0.00    +0.000 NA
ATOM     21  C   UNL     1       3.939  15.442  17.657  0.00  0.00    +0.000 C 
ATOM     22  N   UNL     1       3.331  16.634  17.383  0.00  0.00    +0.000 N 
ATOM     23  H   UNL     1       2.319  14.552  17.197  0.00  0.00    +0.000 HD
ATOM     24  H   UNL     1       2.501  16.584  16.802  0.00  0.00    +0.000 HD
ATOM     25  H   UNL     1       3.919  17.413  17.122  0.00  0.00    +0.000 HD
ENDBRANCH  14  21
ENDBRANCH   1  17
BRANCH   5  26
ATOM     26  C   UNL     1       7.387  14.009  22.189  0.00  0.00    +0.000 C 
BRANCH  26  27
ATOM     27  C   UNL     1       7.439  13.310  23.526  0.00  0.00    +0.000 A 
ATOM     28  C   UNL     1       6.690  12.141  23.744  0.00  0.00    +0.000 A 
ATOM     29  C   UNL     1       6.693  11.520  24.993  0.00  0.00    +0.000 A 
ATOM     30  C   UNL     1       7.450  12.065  26.022  0.00  0.00    +0.000 A 
ATOM     31  F   UNL     1       7.439  11.483  27.228  0.00  0.00    +0.000 F 
ATOM     32  C   UNL     1       8.214  13.209  25.820  0.00  0.00    +0.000 A 
ATOM     33  C   UNL     1       8.210  13.834  24.572  0.00  0.00    +0.000 A 
ENDBRANCH  26  27
ENDBRANCH   5  26
TORSDOF 4
ENDMDL
MODEL 9
REMARK VINA RESULT:      -6.6      3.559      6.357
REMARK  Name = 
REMARK  4 active torsions:
REMARK  status: ('A' for Active; 'I' for Inactive)
REMARK    1  A    between atoms: C_2  and  C_4
REMARK    2  A    between atoms: C_7  and  C_8
REMARK    3  A    between atoms: N_12  and  C_13
REMARK    4  A    between atoms: C_13  and  C_14
REMARK                            x       y       z     vdW  Elec       q    Type
REMARK                         _______ _______ _______ _____ _____    ______ ____
ROOT
ATOM      1  C   UNL     1       0.961  14.327  21.243  0.00  0.00    +0.000 C 
ATOM      2  C   UNL     1       1.588  13.184  20.415  0.00  0.00    +0.000 C 
ATOM      3  C   UNL     1       0.910  11.860  20.567  0.00  0.00    +0.000 C 
ATOM      4  O   UNL     1       1.173  11.060  21.452  0.00  0.00    +0.000 OA
ATOM      5  N   UNL     1      -0.078  11.781  19.618  0.00  0.00    +0.000 N 
ATOM      6  C   UNL     1      -0.013  12.824  18.725  0.00  0.00    +0.000 C 
ATOM      7  O   UNL     1      -0.832  13.113  17.864  0.00  0.00    +0.000 OA
ATOM      8  C   UNL     1       1.296  13.545  18.971  0.00  0.00    +0.000 C 
ATOM      9  C   UNL     1       1.272  15.063  18.970  0.00  0.00    +0.000 C 
ATOM     10  C   UNL     1       2.599  15.677  18.510  0.00  0.00    +0.000 C 
ATOM     11  C   UNL     1       2.771  16.877  19.419  0.00  0.00    +0.000 C 
ATOM     12  C   UNL     1       2.295  16.320  20.743  0.00  0.00    +0.000 C 
ATOM     13  N   UNL     1       1.118  15.518  20.381  0.00  0.00    +0.000 NA
ENDROOT
BRANCH   1  17
ATOM     14  C   UNL     1      -3.126  13.306  22.337  0.00  0.00    +0.000 A 
ATOM     15  C   UNL     1      -2.037  12.890  23.110  0.00  0.00    +0.000 A 
ATOM     16  C   UNL     1      -0.739  13.293  22.789  0.00  0.00    +0.000 A 
ATOM     17  C   UNL     1      -0.491  14.115  21.678  0.00  0.00    +0.000 A 
ATOM     18  C   UNL     1      -1.600  14.607  20.968  0.00  0.00    +0.000 A 
ATOM     19  C   UNL     1      -2.904  14.200  21.287  0.00  0.00    +0.000 A 
BRANCH  14  21
ATOM     20  N   UNL     1      -4.825  12.529  23.862  0.00  0.00    +0.000 NA
ATOM     21  C   UNL     1      -4.480  12.731  22.630  0.00  0.00    +0.000 C 
ATOM     22  N   UNL     1      -5.347  12.386  21.633  0.00  0.00    +0.000 N 
ATOM     23  H   UNL     1      -5.770  12.147  23.905  0.00  0.00    +0.000 HD
ATOM     24  H   UNL     1      -6.083  11.736  21.892  0.00  0.00    +0.000 HD
ATOM     25  H   UNL     1      -4.958  12.164  20.728  0.00  0.00    +0.000 HD
ENDBRANCH  14  21
ENDBRANCH   1  17
BRANCH   5  26
ATOM     26  C   UNL     1      -1.218  10.895  19.763  0.00  0.00    +0.000 C 
BRANCH  26  27
ATOM     27  C   UNL     1      -2.023  10.750  18.494  0.00  0.00    +0.000 A 
ATOM     28  C   UNL     1      -1.539   9.963  17.434  0.00  0.00    +0.000 A 
ATOM     29  C   UNL     1      -2.254   9.867  16.240  0.00  0.00    +0.000 A 
ATOM     30  C   UNL     1      -3.454  10.553  16.108  0.00  0.00    +0.000 A 
ATOM     31  F   UNL     1      -4.132  10.479  14.955  0.00  0.00    +0.000 F 
ATOM     32  C   UNL     1      -3.959  11.319  17.153  0.00  0.00    +0.000 A 
ATOM     33  C   UNL     1      -3.245  11.419  18.347  0.00  0.00    +0.000 A 
ENDBRANCH  26  27
ENDBRANCH   5  26
TORSDOF 4
ENDMDL
