MODEL 1
REMARK VINA RESULT:      -9.0      0.000      0.000
REMARK  Name = 
REMARK  4 active torsions:
REMARK  status: ('A' for Active; 'I' for Inactive)
REMARK    1  A    between atoms: C_1  and  O_2
REMARK    2  A    between atoms: O_2  and  C_3
REMARK    3  A    between atoms: C_7  and  N_8
REMARK    4  A    between atoms: C_18  and  C_19
REMARK                            x       y       z     vdW  Elec       q    Type
REMARK                         _______ _______ _______ _____ _____    ______ ____
ROOT
ATOM      1  N   UNL     1      -1.020  11.902  22.341  0.00  0.00    +0.000 N 
ATOM      2  C   UNL     1      -0.345  10.662  22.589  0.00  0.00    +0.000 C 
ATOM      3  O   UNL     1      -0.248  10.123  23.687  0.00  0.00    +0.000 OA
ATOM      4  N   UNL     1       0.250  10.072  21.418  0.00  0.00    +0.000 N 
ATOM      5  C   UNL     1       0.194  10.897  20.168  0.00  0.00    +0.000 C 
ATOM      6  C   UNL     1       1.036  10.054  19.363  0.00  0.00    +0.000 C 
ATOM      7  O   UNL     1       1.694   9.751  18.231  0.00  0.00    +0.000 OA
ATOM      8  C   UNL     1       2.147   8.465  18.660  0.00  0.00    +0.000 A 
ATOM      9  C   UNL     1       2.785   7.846  17.593  0.00  0.00    +0.000 A 
ATOM     10  C   UNL     1       3.147   6.519  17.690  0.00  0.00    +0.000 A 
ATOM     11  C   UNL     1       2.855   5.739  18.829  0.00  0.00    +0.000 A 
ATOM     12  C   UNL     1       2.292   6.414  20.001  0.00  0.00    +0.000 A 
ATOM     13  C   UNL     1       1.886   7.812  19.971  0.00  0.00    +0.000 A 
ATOM     14  C   UNL     1       1.188   8.605  21.404  0.00  0.00    +0.000 C 
ATOM     15  H   UNL     1      -0.865  12.357  21.461  0.00  0.00    +0.000 HD
ENDROOT
BRANCH   1  20
ATOM     16  C   UNL     1      -2.165  14.804  24.511  0.00  0.00    +0.000 A 
ATOM     17  C   UNL     1      -3.442  14.366  24.860  0.00  0.00    +0.000 A 
ATOM     18  C   UNL     1      -3.915  13.141  24.394  0.00  0.00    +0.000 A 
ATOM     19  C   UNL     1      -3.118  12.325  23.579  0.00  0.00    +0.000 A 
ATOM     20  C   UNL     1      -1.841  12.712  23.207  0.00  0.00    +0.000 A 
ATOM     21  C   UNL     1      -1.369  13.988  23.677  0.00  0.00    +0.000 A 
BRANCH  16  23
ATOM     22  C   UNL     1      -2.868  17.043  25.136  0.00  0.00    +0.000 C 
ATOM     23  O   UNL     1      -1.891  16.021  25.070  0.00  0.00    +0.000 OA
ENDBRANCH  16  23
ENDBRANCH   1  20
BRANCH  11  24
ATOM     24  C   UNL     1       3.128   4.268  18.618  0.00  0.00    +0.000 A 
ATOM     25  C   UNL     1       2.432   3.443  17.730  0.00  0.00    +0.000 A 
ATOM     26  C   UNL     1       2.641   2.058  17.776  0.00  0.00    +0.000 A 
ATOM     27  N   UNL     1       3.479   1.428  18.629  0.00  0.00    +0.000 NA
ATOM     28  C   UNL     1       4.150   2.215  19.483  0.00  0.00    +0.000 A 
ATOM     29  C   UNL     1       4.018   3.601  19.503  0.00  0.00    +0.000 A 
ENDBRANCH  11  24
TORSDOF 3
ENDMDL
MODEL 2
REMARK VINA RESULT:      -9.0      1.058      1.609
REMARK  Name = 
REMARK  4 active torsions:
REMARK  status: ('A' for Active; 'I' for Inactive)
REMARK    1  A    between atoms: C_1  and  O_2
REMARK    2  A    between atoms: O_2  and  C_3
REMARK    3  A    between atoms: C_7  and  N_8
REMARK    4  A    between atoms: C_18  and  C_19
REMARK                            x       y       z     vdW  Elec       q    Type
REMARK                         _______ _______ _______ _____ _____    ______ ____
ROOT
ATOM      1  N   UNL     1      -1.094  11.931  22.151  0.00  0.00    +0.000 N 
ATOM      2  C   UNL     1      -0.450  10.680  22.425  0.00  0.00    +0.000 C 
ATOM      3  O   UNL     1      -0.424  10.130  23.521  0.00  0.00    +0.000 OA
ATOM      4  N   UNL     1       0.204  10.093  21.285  0.00  0.00    +0.000 N 
ATOM      5  C   UNL     1       0.232  10.930  20.041  0.00  0.00    +0.000 C 
ATOM      6  C   UNL     1       1.108  10.083  19.279  0.00  0.00    +0.000 C 
ATOM      7  O   UNL     1       1.827   9.782  18.184  0.00  0.00    +0.000 OA
ATOM      8  C   UNL     1       2.238   8.486  18.625  0.00  0.00    +0.000 A 
ATOM      9  C   UNL     1       2.929   7.869  17.591  0.00  0.00    +0.000 A 
ATOM     10  C   UNL     1       3.268   6.536  17.695  0.00  0.00    +0.000 A 
ATOM     11  C   UNL     1       2.900   5.750  18.808  0.00  0.00    +0.000 A 
ATOM     12  C   UNL     1       2.278   6.421  19.952  0.00  0.00    +0.000 A 
ATOM     13  C   UNL     1       1.893   7.824  19.913  0.00  0.00    +0.000 A 
ATOM     14  C   UNL     1       1.123   8.613  21.310  0.00  0.00    +0.000 C 
ATOM     15  H   UNL     1      -0.882  12.392  21.285  0.00  0.00    +0.000 HD
ENDROOT
BRANCH   1  20
ATOM     16  C   UNL     1      -4.175  13.135  24.019  0.00  0.00    +0.000 A 
ATOM     17  C   UNL     1      -3.663  14.276  24.637  0.00  0.00    +0.000 A 
ATOM     18  C   UNL     1      -2.333  14.642  24.440  0.00  0.00    +0.000 A 
ATOM     19  C   UNL     1      -1.492  13.883  23.615  0.00  0.00    +0.000 A 
ATOM     20  C   UNL     1      -1.953  12.743  22.975  0.00  0.00    +0.000 A 
ATOM     21  C   UNL     1      -3.323  12.362  23.201  0.00  0.00    +0.000 A 
BRANCH  16  23
ATOM     22  C   UNL     1      -6.503  13.799  23.816  0.00  0.00    +0.000 C 
ATOM     23  O   UNL     1      -5.494  12.953  24.335  0.00  0.00    +0.000 OA
ENDBRANCH  16  23
ENDBRANCH   1  20
BRANCH  11  24
ATOM     24  C   UNL     1       3.166   4.277  18.598  0.00  0.00    +0.000 A 
ATOM     25  C   UNL     1       2.466   3.454  17.711  0.00  0.00    +0.000 A 
ATOM     26  C   UNL     1       2.668   2.069  17.759  0.00  0.00    +0.000 A 
ATOM     27  N   UNL     1       3.504   1.435  18.612  0.00  0.00    +0.000 NA
ATOM     28  C   UNL     1       4.179   2.220  19.466  0.00  0.00    +0.000 A 
ATOM     29  C   UNL     1       4.053   3.606  19.484  0.00  0.00    +0.000 A 
ENDBRANCH  11  24
TORSDOF 3
ENDMDL
MODEL 3
REMARK VINA RESULT:      -8.6      2.873     11.003
REMARK  Name = 
REMARK  4 active torsions:
REMARK  status: ('A' for Active; 'I' for Inactive)
REMARK    1  A    between atoms: C_1  and  O_2
REMARK    2  A    between atoms: O_2  and  C_3
REMARK    3  A    between atoms: C_7  and  N_8
REMARK    4  A    between atoms: C_18  and  C_19
REMARK                            x       y       z     vdW  Elec       q    Type
REMARK                         _______ _______ _______ _____ _____    ______ ____
ROOT
ATOM      1  N   UNL     1       2.823   6.898  18.659  0.00  0.00    +0.000 N 
ATOM      2  C   UNL     1       2.201   8.160  18.382  0.00  0.00    +0.000 C 
ATOM      3  O   UNL     1       2.314   8.782  17.331  0.00  0.00    +0.000 OA
ATOM      4  N   UNL     1       1.413   8.678  19.469  0.00  0.00    +0.000 N 
ATOM      5  C   UNL     1       1.473   7.904  20.751  0.00  0.00    +0.000 C 
ATOM      6  C   UNL     1       0.745   8.843  21.559  0.00  0.00    +0.000 C 
ATOM      7  O   UNL     1       0.229   9.273  22.724  0.00  0.00    +0.000 OA
ATOM      8  C   UNL     1      -0.431  10.420  22.183  0.00  0.00    +0.000 A 
ATOM      9  C   UNL     1      -1.177  11.013  23.192  0.00  0.00    +0.000 A 
ATOM     10  C   UNL     1      -2.058  12.029  22.883  0.00  0.00    +0.000 A 
ATOM     11  C   UNL     1      -2.266  12.469  21.558  0.00  0.00    +0.000 A 
ATOM     12  C   UNL     1      -1.397  11.932  20.509  0.00  0.00    +0.000 A 
ATOM     13  C   UNL     1      -0.446  10.860  20.761  0.00  0.00    +0.000 A 
ATOM     14  C   UNL     1       0.587  10.212  19.464  0.00  0.00    +0.000 C 
ATOM     15  H   UNL     1       2.838   6.577  19.610  0.00  0.00    +0.000 HD
ENDROOT
BRANCH   1  20
ATOM     16  C   UNL     1       5.383   5.645  16.147  0.00  0.00    +0.000 A 
ATOM     17  C   UNL     1       5.077   4.285  16.136  0.00  0.00    +0.000 A 
ATOM     18  C   UNL     1       4.048   3.791  16.936  0.00  0.00    +0.000 A 
ATOM     19  C   UNL     1       3.299   4.647  17.754  0.00  0.00    +0.000 A 
ATOM     20  C   UNL     1       3.560   6.007  17.798  0.00  0.00    +0.000 A 
ATOM     21  C   UNL     1       4.638   6.505  16.984  0.00  0.00    +0.000 A 
BRANCH  16  23
ATOM     22  C   UNL     1       7.073   4.905  14.566  0.00  0.00    +0.000 C 
ATOM     23  O   UNL     1       6.416   5.925  15.295  0.00  0.00    +0.000 OA
ENDBRANCH  16  23
ENDBRANCH   1  20
BRANCH  11  24
ATOM     24  C   UNL     1      -3.438  13.414  21.433  0.00  0.00    +0.000 A 
ATOM     25  C   UNL     1      -3.696  14.490  22.286  0.00  0.00    +0.000 A 
ATOM     26  C   UNL     1      -4.922  15.162  22.190  0.00  0.00    +0.000 A 
ATOM     27  N   UNL     1      -5.909  14.854  21.319  0.00  0.00    +0.000 NA
ATOM     28  C   UNL     1      -5.667  13.822  20.496  0.00  0.00    +0.000 A 
ATOM     29  C   UNL     1      -4.475  13.103  20.510  0.00  0.00    +0.000 A 
ENDBRANCH  11  24
TORSDOF 3
ENDMDL
MODEL 4
REMARK VINA RESULT:      -8.2      2.996     10.908
REMARK  Name = 
REMARK  4 active torsions:
REMARK  status: ('A' for Active; 'I' for Inactive)
REMARK    1  A    between atoms: C_1  and  O_2
REMARK    2  A    between atoms: O_2  and  C_3
REMARK    3  A    between atoms: C_7  and  N_8
REMARK    4  A    between atoms: C_18  and  C_19
REMARK                            x       y       z     vdW  Elec       q    Type
REMARK                         _______ _______ _______ _____ _____    ______ ____
ROOT
ATOM      1  N   UNL     1       2.503   7.012  19.570  0.00  0.00    +0.000 N 
ATOM      2  C   UNL     1       1.869   8.182  19.036  0.00  0.00    +0.000 C 
ATOM      3  O   UNL     1       1.950   8.553  17.870  0.00  0.00    +0.000 OA
ATOM      4  N   UNL     1       1.110   8.932  20.002  0.00  0.00    +0.000 N 
ATOM      5  C   UNL     1       1.209   8.463  21.423  0.00  0.00    +0.000 C 
ATOM      6  C   UNL     1       0.502   9.561  22.021  0.00  0.00    +0.000 C 
ATOM      7  O   UNL     1       0.017  10.241  23.075  0.00  0.00    +0.000 OA
ATOM      8  C   UNL     1      -0.662  11.240  22.310  0.00  0.00    +0.000 A 
ATOM      9  C   UNL     1      -1.382  12.046  23.182  0.00  0.00    +0.000 A 
ATOM     10  C   UNL     1      -2.274  12.969  22.680  0.00  0.00    +0.000 A 
ATOM     11  C   UNL     1      -2.521  13.104  21.297  0.00  0.00    +0.000 A 
ATOM     12  C   UNL     1      -1.681  12.344  20.369  0.00  0.00    +0.000 A 
ATOM     13  C   UNL     1      -0.719  11.352  20.827  0.00  0.00    +0.000 A 
ATOM     14  C   UNL     1       0.279  10.428  19.679  0.00  0.00    +0.000 C 
ATOM     15  H   UNL     1       2.547   6.911  20.567  0.00  0.00    +0.000 HD
ENDROOT
BRANCH   1  20
ATOM     16  C   UNL     1       5.331   4.688  18.551  0.00  0.00    +0.000 A 
ATOM     17  C   UNL     1       4.653   3.836  17.680  0.00  0.00    +0.000 A 
ATOM     18  C   UNL     1       3.294   4.025  17.432  0.00  0.00    +0.000 A 
ATOM     19  C   UNL     1       2.590   5.073  18.039  0.00  0.00    +0.000 A 
ATOM     20  C   UNL     1       3.218   5.950  18.909  0.00  0.00    +0.000 A 
ATOM     21  C   UNL     1       4.617   5.735  19.175  0.00  0.00    +0.000 A 
BRANCH  16  23
ATOM     22  C   UNL     1       7.571   4.604  17.615  0.00  0.00    +0.000 C 
ATOM     23  O   UNL     1       6.649   4.339  18.656  0.00  0.00    +0.000 OA
ENDBRANCH  16  23
ENDBRANCH   1  20
BRANCH  11  24
ATOM     24  C   UNL     1      -3.700  14.000  20.997  0.00  0.00    +0.000 A 
ATOM     25  C   UNL     1      -4.914  13.574  20.452  0.00  0.00    +0.000 A 
ATOM     26  C   UNL     1      -5.848  14.529  20.030  0.00  0.00    +0.000 A 
ATOM     27  N   UNL     1      -5.677  15.868  20.105  0.00  0.00    +0.000 NA
ATOM     28  C   UNL     1      -4.513  16.283  20.629  0.00  0.00    +0.000 A 
ATOM     29  C   UNL     1      -3.531  15.409  21.086  0.00  0.00    +0.000 A 
ENDBRANCH  11  24
TORSDOF 3
ENDMDL
MODEL 5
REMARK VINA RESULT:      -8.2      2.806     10.987
REMARK  Name = 
REMARK  4 active torsions:
REMARK  status: ('A' for Active; 'I' for Inactive)
REMARK    1  A    between atoms: C_1  and  O_2
REMARK    2  A    between atoms: O_2  and  C_3
REMARK    3  A    between atoms: C_7  and  N_8
REMARK    4  A    between atoms: C_18  and  C_19
REMARK                            x       y       z     vdW  Elec       q    Type
REMARK                         _______ _______ _______ _____ _____    ______ ____
ROOT
ATOM      1  N   UNL     1       2.734   7.235  18.938  0.00  0.00    +0.000 N 
ATOM      2  C   UNL     1       1.997   8.404  18.554  0.00  0.00    +0.000 C 
ATOM      3  O   UNL     1       2.014   8.908  17.436  0.00  0.00    +0.000 OA
ATOM      4  N   UNL     1       1.213   8.979  19.616  0.00  0.00    +0.000 N 
ATOM      5  C   UNL     1       1.391   8.365  20.971  0.00  0.00    +0.000 C 
ATOM      6  C   UNL     1       0.621   9.330  21.706  0.00  0.00    +0.000 C 
ATOM      7  O   UNL     1       0.119   9.848  22.840  0.00  0.00    +0.000 OA
ATOM      8  C   UNL     1      -0.657  10.869  22.209  0.00  0.00    +0.000 A 
ATOM      9  C   UNL     1      -1.409  11.514  23.182  0.00  0.00    +0.000 A 
ATOM     10  C   UNL     1      -2.384  12.414  22.807  0.00  0.00    +0.000 A 
ATOM     11  C   UNL     1      -2.683  12.682  21.454  0.00  0.00    +0.000 A 
ATOM     12  C   UNL     1      -1.816  12.098  20.428  0.00  0.00    +0.000 A 
ATOM     13  C   UNL     1      -0.768  11.140  20.750  0.00  0.00    +0.000 A 
ATOM     14  C   UNL     1       0.261  10.432  19.482  0.00  0.00    +0.000 C 
ATOM     15  H   UNL     1       2.816   7.028  19.916  0.00  0.00    +0.000 HD
ENDROOT
BRANCH   1  20
ATOM     16  C   UNL     1       4.013   3.976  17.463  0.00  0.00    +0.000 A 
ATOM     17  C   UNL     1       4.960   4.463  16.563  0.00  0.00    +0.000 A 
ATOM     18  C   UNL     1       5.174   5.836  16.447  0.00  0.00    +0.000 A 
ATOM     19  C   UNL     1       4.455   6.746  17.233  0.00  0.00    +0.000 A 
ATOM     20  C   UNL     1       3.507   6.313  18.146  0.00  0.00    +0.000 A 
ATOM     21  C   UNL     1       3.278   4.895  18.244  0.00  0.00    +0.000 A 
BRANCH  16  23
ATOM     22  C   UNL     1       2.922   1.894  18.077  0.00  0.00    +0.000 C 
ATOM     23  O   UNL     1       3.958   2.610  17.429  0.00  0.00    +0.000 OA
ENDBRANCH  16  23
ENDBRANCH   1  20
BRANCH  11  24
ATOM     24  C   UNL     1      -3.935  13.510  21.284  0.00  0.00    +0.000 A 
ATOM     25  C   UNL     1      -3.979  14.907  21.279  0.00  0.00    +0.000 A 
ATOM     26  C   UNL     1      -5.221  15.553  21.321  0.00  0.00    +0.000 A 
ATOM     27  N   UNL     1      -6.419  14.929  21.368  0.00  0.00    +0.000 NA
ATOM     28  C   UNL     1      -6.384  13.588  21.372  0.00  0.00    +0.000 A 
ATOM     29  C   UNL     1      -5.199  12.859  21.320  0.00  0.00    +0.000 A 
ENDBRANCH  11  24
TORSDOF 3
ENDMDL
MODEL 6
REMARK VINA RESULT:      -8.2      2.012      2.552
REMARK  Name = 
REMARK  4 active torsions:
REMARK  status: ('A' for Active; 'I' for Inactive)
REMARK    1  A    between atoms: C_1  and  O_2
REMARK    2  A    between atoms: O_2  and  C_3
REMARK    3  A    between atoms: C_7  and  N_8
REMARK    4  A    between atoms: C_18  and  C_19
REMARK                            x       y       z     vdW  Elec       q    Type
REMARK                         _______ _______ _______ _____ _____    ______ ____
ROOT
ATOM      1  N   UNL     1      -2.484  12.856  21.723  0.00  0.00    +0.000 N 
ATOM      2  C   UNL     1      -1.571  11.877  22.235  0.00  0.00    +0.000 C 
ATOM      3  O   UNL     1      -1.350  11.678  23.425  0.00  0.00    +0.000 OA
ATOM      4  N   UNL     1      -0.890  11.119  21.218  0.00  0.00    +0.000 N 
ATOM      5  C   UNL     1      -1.129  11.554  19.804  0.00  0.00    +0.000 C 
ATOM      6  C   UNL     1      -0.150  10.701  19.188  0.00  0.00    +0.000 C 
ATOM      7  O   UNL     1       0.536  10.237  18.130  0.00  0.00    +0.000 OA
ATOM      8  C   UNL     1       1.244   9.220  18.844  0.00  0.00    +0.000 A 
ATOM      9  C   UNL     1       1.974   8.471  17.931  0.00  0.00    +0.000 A 
ATOM     10  C   UNL     1       2.595   7.310  18.341  0.00  0.00    +0.000 A 
ATOM     11  C   UNL     1       2.483   6.821  19.661  0.00  0.00    +0.000 A 
ATOM     12  C   UNL     1       1.816   7.665  20.655  0.00  0.00    +0.000 A 
ATOM     13  C   UNL     1       1.139   8.903  20.294  0.00  0.00    +0.000 A 
ATOM     14  C   UNL     1       0.321   9.903  21.518  0.00  0.00    +0.000 C 
ATOM     15  H   UNL     1      -2.437  13.081  20.746  0.00  0.00    +0.000 HD
ENDROOT
BRANCH   1  20
ATOM     16  C   UNL     1      -5.788  14.206  23.025  0.00  0.00    +0.000 A 
ATOM     17  C   UNL     1      -5.337  15.288  23.778  0.00  0.00    +0.000 A 
ATOM     18  C   UNL     1      -3.973  15.570  23.854  0.00  0.00    +0.000 A 
ATOM     19  C   UNL     1      -3.037  14.782  23.170  0.00  0.00    +0.000 A 
ATOM     20  C   UNL     1      -3.434  13.698  22.404  0.00  0.00    +0.000 A 
ATOM     21  C   UNL     1      -4.843  13.403  22.349  0.00  0.00    +0.000 A 
BRANCH  16  23
ATOM     22  C   UNL     1      -7.837  13.956  24.306  0.00  0.00    +0.000 C 
ATOM     23  O   UNL     1      -7.151  14.103  23.076  0.00  0.00    +0.000 OA
ENDBRANCH  16  23
ENDBRANCH   1  20
BRANCH  11  24
ATOM     24  C   UNL     1       3.039   5.425  19.817  0.00  0.00    +0.000 A 
ATOM     25  C   UNL     1       4.108   4.901  19.085  0.00  0.00    +0.000 A 
ATOM     26  C   UNL     1       4.394   3.532  19.176  0.00  0.00    +0.000 A 
ATOM     27  N   UNL     1       3.708   2.645  19.932  0.00  0.00    +0.000 NA
ATOM     28  C   UNL     1       2.682   3.143  20.638  0.00  0.00    +0.000 A 
ATOM     29  C   UNL     1       2.331   4.490  20.620  0.00  0.00    +0.000 A 
ENDBRANCH  11  24
TORSDOF 3
ENDMDL
MODEL 7
REMARK VINA RESULT:      -8.1      1.759      2.380
REMARK  Name = 
REMARK  4 active torsions:
REMARK  status: ('A' for Active; 'I' for Inactive)
REMARK    1  A    between atoms: C_1  and  O_2
REMARK    2  A    between atoms: O_2  and  C_3
REMARK    3  A    between atoms: C_7  and  N_8
REMARK    4  A    between atoms: C_18  and  C_19
REMARK                            x       y       z     vdW  Elec       q    Type
REMARK                         _______ _______ _______ _____ _____    ______ ____
ROOT
ATOM      1  N   UNL     1      -2.155  12.743  21.839  0.00  0.00    +0.000 N 
ATOM      2  C   UNL     1      -1.382  11.629  22.306  0.00  0.00    +0.000 C 
ATOM      3  O   UNL     1      -1.286  11.286  23.480  0.00  0.00    +0.000 OA
ATOM      4  N   UNL     1      -0.686  10.918  21.266  0.00  0.00    +0.000 N 
ATOM      5  C   UNL     1      -0.760  11.521  19.896  0.00  0.00    +0.000 C 
ATOM      6  C   UNL     1       0.188  10.645  19.265  0.00  0.00    +0.000 C 
ATOM      7  O   UNL     1       0.920  10.228  18.218  0.00  0.00    +0.000 OA
ATOM      8  C   UNL     1       1.468   9.077  18.865  0.00  0.00    +0.000 A 
ATOM      9  C   UNL     1       2.205   8.359  17.933  0.00  0.00    +0.000 A 
ATOM     10  C   UNL     1       2.680   7.106  18.256  0.00  0.00    +0.000 A 
ATOM     11  C   UNL     1       2.409   6.495  19.500  0.00  0.00    +0.000 A 
ATOM     12  C   UNL     1       1.737   7.292  20.528  0.00  0.00    +0.000 A 
ATOM     13  C   UNL     1       1.209   8.622  20.258  0.00  0.00    +0.000 A 
ATOM     14  C   UNL     1       0.380   9.564  21.520  0.00  0.00    +0.000 C 
ATOM     15  H   UNL     1      -2.003  13.063  20.900  0.00  0.00    +0.000 HD
ENDROOT
BRANCH   1  20
ATOM     16  C   UNL     1      -5.292  13.923  23.628  0.00  0.00    +0.000 A 
ATOM     17  C   UNL     1      -4.916  15.224  23.960  0.00  0.00    +0.000 A 
ATOM     18  C   UNL     1      -3.657  15.703  23.600  0.00  0.00    +0.000 A 
ATOM     19  C   UNL     1      -2.755  14.896  22.893  0.00  0.00    +0.000 A 
ATOM     20  C   UNL     1      -3.082  13.598  22.535  0.00  0.00    +0.000 A 
ATOM     21  C   UNL     1      -4.376  13.105  22.929  0.00  0.00    +0.000 A 
BRANCH  16  23
ATOM     22  C   UNL     1      -7.222  12.450  23.708  0.00  0.00    +0.000 C 
ATOM     23  O   UNL     1      -6.559  13.649  24.065  0.00  0.00    +0.000 OA
ENDBRANCH  16  23
ENDBRANCH   1  20
BRANCH  11  24
ATOM     24  C   UNL     1       2.822   5.042  19.541  0.00  0.00    +0.000 A 
ATOM     25  C   UNL     1       2.616   4.179  20.621  0.00  0.00    +0.000 A 
ATOM     26  C   UNL     1       3.227   2.918  20.616  0.00  0.00    +0.000 A 
ATOM     27  N   UNL     1       4.024   2.446  19.631  0.00  0.00    +0.000 NA
ATOM     28  C   UNL     1       4.225   3.270  18.591  0.00  0.00    +0.000 A 
ATOM     29  C   UNL     1       3.650   4.534  18.502  0.00  0.00    +0.000 A 
ENDBRANCH  11  24
TORSDOF 3
ENDMDL
MODEL 8
REMARK VINA RESULT:      -8.0      1.545      1.835
REMARK  Name = 
REMARK  4 active torsions:
REMARK  status: ('A' for Active; 'I' for Inactive)
REMARK    1  A    between atoms: C_1  and  O_2
REMARK    2  A    between atoms: O_2  and  C_3
REMARK    3  A    between atoms: C_7  and  N_8
REMARK    4  A    between atoms: C_18  and  C_19
REMARK                            x       y       z     vdW  Elec       q    Type
REMARK                         _______ _______ _______ _____ _____    ______ ____
ROOT
ATOM      1  N   UNL     1      -2.510  12.716  21.806  0.00  0.00    +0.000 N 
ATOM      2  C   UNL     1      -1.571  11.748  22.292  0.00  0.00    +0.000 C 
ATOM      3  O   UNL     1      -1.328  11.539  23.476  0.00  0.00    +0.000 OA
ATOM      4  N   UNL     1      -0.891  11.017  21.255  0.00  0.00    +0.000 N 
ATOM      5  C   UNL     1      -1.160  11.465  19.850  0.00  0.00    +0.000 C 
ATOM      6  C   UNL     1      -0.174  10.640  19.209  0.00  0.00    +0.000 C 
ATOM      7  O   UNL     1       0.506  10.203  18.135  0.00  0.00    +0.000 OA
ATOM      8  C   UNL     1       1.243   9.191  18.825  0.00  0.00    +0.000 A 
ATOM      9  C   UNL     1       1.975   8.468  17.892  0.00  0.00    +0.000 A 
ATOM     10  C   UNL     1       2.624   7.314  18.278  0.00  0.00    +0.000 A 
ATOM     11  C   UNL     1       2.542   6.807  19.592  0.00  0.00    +0.000 A 
ATOM     12  C   UNL     1       1.874   7.625  20.607  0.00  0.00    +0.000 A 
ATOM     13  C   UNL     1       1.167   8.854  20.272  0.00  0.00    +0.000 A 
ATOM     14  C   UNL     1       0.348   9.822  21.521  0.00  0.00    +0.000 C 
ATOM     15  H   UNL     1      -2.483  12.954  20.832  0.00  0.00    +0.000 HD
ENDROOT
BRANCH   1  20
ATOM     16  C   UNL     1      -3.982  15.577  23.827  0.00  0.00    +0.000 A 
ATOM     17  C   UNL     1      -5.323  15.195  23.861  0.00  0.00    +0.000 A 
ATOM     18  C   UNL     1      -5.732  14.019  23.235  0.00  0.00    +0.000 A 
ATOM     19  C   UNL     1      -4.811  13.197  22.572  0.00  0.00    +0.000 A 
ATOM     20  C   UNL     1      -3.467  13.530  22.513  0.00  0.00    +0.000 A 
ATOM     21  C   UNL     1      -3.057  14.757  23.145  0.00  0.00    +0.000 A 
BRANCH  16  23
ATOM     22  C   UNL     1      -4.851  17.414  25.158  0.00  0.00    +0.000 C 
ATOM     23  O   UNL     1      -3.787  16.752  24.499  0.00  0.00    +0.000 OA
ENDBRANCH  16  23
ENDBRANCH   1  20
BRANCH  11  24
ATOM     24  C   UNL     1       3.128   5.421  19.722  0.00  0.00    +0.000 A 
ATOM     25  C   UNL     1       4.367   5.022  19.213  0.00  0.00    +0.000 A 
ATOM     26  C   UNL     1       4.704   3.662  19.219  0.00  0.00    +0.000 A 
ATOM     27  N   UNL     1       3.915   2.669  19.686  0.00  0.00    +0.000 NA
ATOM     28  C   UNL     1       2.724   3.045  20.177  0.00  0.00    +0.000 A 
ATOM     29  C   UNL     1       2.308   4.373  20.225  0.00  0.00    +0.000 A 
ENDBRANCH  11  24
TORSDOF 3
ENDMDL
MODEL 9
REMARK VINA RESULT:      -8.0      2.556      3.576
REMARK  Name = 
REMARK  4 active torsions:
REMARK  status: ('A' for Active; 'I' for Inactive)
REMARK    1  A    between atoms: C_1  and  O_2
REMARK    2  A    between atoms: O_2  and  C_3
REMARK    3  A    between atoms: C_7  and  N_8
REMARK    4  A    between atoms: C_18  and  C_19
REMARK                            x       y       z     vdW  Elec       q    Type
REMARK                         _______ _______ _______ _____ _____    ______ ____
ROOT
ATOM      1  N   UNL     1      -0.080  11.007  21.629  0.00  0.00    +0.000 N 
ATOM      2  C   UNL     1       0.500  10.725  20.349  0.00  0.00    +0.000 C 
ATOM      3  O   UNL     1       0.517  11.502  19.400  0.00  0.00    +0.000 OA
ATOM      4  N   UNL     1       1.076   9.410  20.241  0.00  0.00    +0.000 N 
ATOM      5  C   UNL     1       0.860   8.501  21.413  0.00  0.00    +0.000 C 
ATOM      6  C   UNL     1       1.394   7.309  20.813  0.00  0.00    +0.000 C 
ATOM      7  O   UNL     1       1.694   5.999  20.816  0.00  0.00    +0.000 OA
ATOM      8  C   UNL     1       2.361   5.994  19.551  0.00  0.00    +0.000 A 
ATOM      9  C   UNL     1       2.902   4.732  19.345  0.00  0.00    +0.000 A 
ATOM     10  C   UNL     1       3.758   4.521  18.285  0.00  0.00    +0.000 A 
ATOM     11  C   UNL     1       4.145   5.559  17.410  0.00  0.00    +0.000 A 
ATOM     12  C   UNL     1       3.487   6.859  17.549  0.00  0.00    +0.000 A 
ATOM     13  C   UNL     1       2.573   7.154  18.644  0.00  0.00    +0.000 A 
ATOM     14  C   UNL     1       1.798   8.749  18.800  0.00  0.00    +0.000 C 
ATOM     15  H   UNL     1      -0.227  10.241  22.261  0.00  0.00    +0.000 HD
ENDROOT
BRANCH   1  20
ATOM     16  C   UNL     1      -2.327  13.400  23.543  0.00  0.00    +0.000 A 
ATOM     17  C   UNL     1      -1.677  14.607  23.292  0.00  0.00    +0.000 A 
ATOM     18  C   UNL     1      -0.525  14.633  22.507  0.00  0.00    +0.000 A 
ATOM     19  C   UNL     1      -0.007  13.457  21.950  0.00  0.00    +0.000 A 
ATOM     20  C   UNL     1      -0.618  12.232  22.165  0.00  0.00    +0.000 A 
ATOM     21  C   UNL     1      -1.795  12.212  22.994  0.00  0.00    +0.000 A 
BRANCH  16  23
ATOM     22  C   UNL     1      -4.322  12.526  24.619  0.00  0.00    +0.000 C 
ATOM     23  O   UNL     1      -3.433  13.588  24.326  0.00  0.00    +0.000 OA
ENDBRANCH  16  23
ENDBRANCH   1  20
BRANCH  11  24
ATOM     24  C   UNL     1       5.264   5.153  16.480  0.00  0.00    +0.000 A 
ATOM     25  C   UNL     1       6.555   5.689  16.494  0.00  0.00    +0.000 A 
ATOM     26  C   UNL     1       7.436   5.380  15.450  0.00  0.00    +0.000 A 
ATOM     27  N   UNL     1       7.143   4.585  14.397  0.00  0.00    +0.000 NA
ATOM     28  C   UNL     1       5.906   4.066  14.378  0.00  0.00    +0.000 A 
ATOM     29  C   UNL     1       4.966   4.307  15.376  0.00  0.00    +0.000 A 
ENDBRANCH  11  24
TORSDOF 3
ENDMDL
