MODEL 1
REMARK VINA RESULT:      -6.7      0.000      0.000
REMARK  Name = 
REMARK  5 active torsions:
REMARK  status: ('A' for Active; 'I' for Inactive)
REMARK    1  A    between atoms: C_1  and  C_2
REMARK    2  A    between atoms: C_2  and  C_11
REMARK    3  A    between atoms: C_3  and  C_4
REMARK    4  A    between atoms: C_7  and  O_8
REMARK    5  A    between atoms: C_14  and  O_15
REMARK                            x       y       z     vdW  Elec       q    Type
REMARK                         _______ _______ _______ _____ _____    ______ ____
ROOT
ATOM      1  C   UNL     1       3.708   5.793  17.661  0.00  0.00    +0.000 C 
ATOM      2  C   UNL     1       3.903   4.341  18.040  0.00  0.00    +0.000 C 
ATOM      3  C   UNL     1       4.780   3.529  17.411  0.00  0.00    +0.000 C 
ENDROOT
BRANCH   3   4
ATOM      4  C   UNL     1       5.625   3.958  16.294  0.00  0.00    +0.000 A 
ATOM      5  C   UNL     1       6.839   4.605  16.546  0.00  0.00    +0.000 A 
ATOM      6  C   UNL     1       7.594   5.121  15.490  0.00  0.00    +0.000 A 
ATOM      7  C   UNL     1       7.128   4.981  14.186  0.00  0.00    +0.000 A 
ATOM      8  C   UNL     1       5.942   4.309  13.919  0.00  0.00    +0.000 A 
ATOM      9  C   UNL     1       5.186   3.796  14.974  0.00  0.00    +0.000 A 
BRANCH   7  10
ATOM     10  O   UNL     1       7.810   5.510  13.130  0.00  0.00    +0.000 OA
ATOM     11  H   UNL     1       7.171   5.752  12.441  0.00  0.00    +0.000 HD
ENDBRANCH   7  10
ENDBRANCH   3   4
BRANCH   2  12
ATOM     12  C   UNL     1       3.083   3.838  19.183  0.00  0.00    +0.000 A 
ATOM     13  C   UNL     1       3.629   2.945  20.122  0.00  0.00    +0.000 A 
ATOM     14  C   UNL     1       2.882   2.481  21.212  0.00  0.00    +0.000 A 
ATOM     15  C   UNL     1       1.572   2.912  21.372  0.00  0.00    +0.000 A 
ATOM     16  C   UNL     1       1.006   3.798  20.470  0.00  0.00    +0.000 A 
ATOM     17  C   UNL     1       1.759   4.265  19.386  0.00  0.00    +0.000 A 
BRANCH  15  18
ATOM     18  O   UNL     1       0.808   2.485  22.418  0.00  0.00    +0.000 OA
ATOM     19  H   UNL     1       0.452   1.608  22.204  0.00  0.00    +0.000 HD
ENDBRANCH  15  18
ENDBRANCH   2  12
TORSDOF 4
ENDMDL
MODEL 2
REMARK VINA RESULT:      -6.7      0.101      1.171
REMARK  Name = 
REMARK  5 active torsions:
REMARK  status: ('A' for Active; 'I' for Inactive)
REMARK    1  A    between atoms: C_1  and  C_2
REMARK    2  A    between atoms: C_2  and  C_11
REMARK    3  A    between atoms: C_3  and  C_4
REMARK    4  A    between atoms: C_7  and  O_8
REMARK    5  A    between atoms: C_14  and  O_15
REMARK                            x       y       z     vdW  Elec       q    Type
REMARK                         _______ _______ _______ _____ _____    ______ ____
ROOT
ATOM      1  C   UNL     1       3.859   5.921  17.780  0.00  0.00    +0.000 C 
ATOM      2  C   UNL     1       3.957   4.444  18.093  0.00  0.00    +0.000 C 
ATOM      3  C   UNL     1       4.761   3.600  17.411  0.00  0.00    +0.000 C 
ENDROOT
BRANCH   3   4
ATOM      4  C   UNL     1       5.611   4.016  16.292  0.00  0.00    +0.000 A 
ATOM      5  C   UNL     1       6.853   4.609  16.542  0.00  0.00    +0.000 A 
ATOM      6  C   UNL     1       7.616   5.114  15.488  0.00  0.00    +0.000 A 
ATOM      7  C   UNL     1       7.132   5.018  14.186  0.00  0.00    +0.000 A 
ATOM      8  C   UNL     1       5.916   4.400  13.921  0.00  0.00    +0.000 A 
ATOM      9  C   UNL     1       5.152   3.897  14.975  0.00  0.00    +0.000 A 
BRANCH   7  10
ATOM     10  O   UNL     1       7.823   5.540  13.133  0.00  0.00    +0.000 OA
ATOM     11  H   UNL     1       8.635   5.952  13.471  0.00  0.00    +0.000 HD
ENDBRANCH   7  10
ENDBRANCH   3   4
BRANCH   2  12
ATOM     12  C   UNL     1       3.128   3.951  19.234  0.00  0.00    +0.000 A 
ATOM     13  C   UNL     1       1.795   4.372  19.389  0.00  0.00    +0.000 A 
ATOM     14  C   UNL     1       0.997   3.901  20.439  0.00  0.00    +0.000 A 
ATOM     15  C   UNL     1       1.530   2.998  21.348  0.00  0.00    +0.000 A 
ATOM     16  C   UNL     1       2.837   2.556  21.219  0.00  0.00    +0.000 A 
ATOM     17  C   UNL     1       3.629   3.024  20.163  0.00  0.00    +0.000 A 
BRANCH  15  18
ATOM     18  O   UNL     1       0.789   2.515  22.386  0.00  0.00    +0.000 OA
ATOM     19  H   UNL     1      -0.126   2.395  22.084  0.00  0.00    +0.000 HD
ENDBRANCH  15  18
ENDBRANCH   2  12
TORSDOF 4
ENDMDL
MODEL 3
REMARK VINA RESULT:      -6.7      0.217      1.669
REMARK  Name = 
REMARK  5 active torsions:
REMARK  status: ('A' for Active; 'I' for Inactive)
REMARK    1  A    between atoms: C_1  and  C_2
REMARK    2  A    between atoms: C_2  and  C_11
REMARK    3  A    between atoms: C_3  and  C_4
REMARK    4  A    between atoms: C_7  and  O_8
REMARK    5  A    between atoms: C_14  and  O_15
REMARK                            x       y       z     vdW  Elec       q    Type
REMARK                         _______ _______ _______ _____ _____    ______ ____
ROOT
ATOM      1  C   UNL     1       3.567   6.038  17.766  0.00  0.00    +0.000 C 
ATOM      2  C   UNL     1       3.811   4.581  18.093  0.00  0.00    +0.000 C 
ATOM      3  C   UNL     1       4.691   3.813  17.416  0.00  0.00    +0.000 C 
ENDROOT
BRANCH   3   4
ATOM      4  C   UNL     1       5.492   4.298  16.289  0.00  0.00    +0.000 A 
ATOM      5  C   UNL     1       5.070   4.052  14.977  0.00  0.00    +0.000 A 
ATOM      6  C   UNL     1       5.883   4.408  13.900  0.00  0.00    +0.000 A 
ATOM      7  C   UNL     1       7.114   5.011  14.142  0.00  0.00    +0.000 A 
ATOM      8  C   UNL     1       7.528   5.293  15.438  0.00  0.00    +0.000 A 
ATOM      9  C   UNL     1       6.717   4.936  16.516  0.00  0.00    +0.000 A 
BRANCH   7  10
ATOM     10  O   UNL     1       7.959   5.331  13.121  0.00  0.00    +0.000 OA
ATOM     11  H   UNL     1       7.871   4.659  12.426  0.00  0.00    +0.000 HD
ENDBRANCH   7  10
ENDBRANCH   3   4
BRANCH   2  12
ATOM     12  C   UNL     1       3.038   4.021  19.243  0.00  0.00    +0.000 A 
ATOM     13  C   UNL     1       1.692   4.375  19.446  0.00  0.00    +0.000 A 
ATOM     14  C   UNL     1       0.947   3.841  20.505  0.00  0.00    +0.000 A 
ATOM     15  C   UNL     1       1.547   2.941  21.374  0.00  0.00    +0.000 A 
ATOM     16  C   UNL     1       2.868   2.564  21.197  0.00  0.00    +0.000 A 
ATOM     17  C   UNL     1       3.608   3.095  20.133  0.00  0.00    +0.000 A 
BRANCH  15  18
ATOM     18  O   UNL     1       0.859   2.397  22.419  0.00  0.00    +0.000 OA
ATOM     19  H   UNL     1       1.243   1.530  22.625  0.00  0.00    +0.000 HD
ENDBRANCH  15  18
ENDBRANCH   2  12
TORSDOF 4
ENDMDL
MODEL 4
REMARK VINA RESULT:      -6.7      4.124      6.056
REMARK  Name = 
REMARK  5 active torsions:
REMARK  status: ('A' for Active; 'I' for Inactive)
REMARK    1  A    between atoms: C_1  and  C_2
REMARK    2  A    between atoms: C_2  and  C_11
REMARK    3  A    between atoms: C_3  and  C_4
REMARK    4  A    between atoms: C_7  and  O_8
REMARK    5  A    between atoms: C_14  and  O_15
REMARK                            x       y       z     vdW  Elec       q    Type
REMARK                         _______ _______ _______ _____ _____    ______ ____
ROOT
ATOM      1  C   UNL     1       3.783   6.962  17.563  0.00  0.00    +0.000 C 
ATOM      2  C   UNL     1       2.615   6.941  18.524  0.00  0.00    +0.000 C 
ATOM      3  C   UNL     1       2.146   5.807  19.086  0.00  0.00    +0.000 C 
ENDROOT
BRANCH   3   4
ATOM      4  C   UNL     1       2.704   4.479  18.820  0.00  0.00    +0.000 A 
ATOM      5  C   UNL     1       2.138   3.671  17.828  0.00  0.00    +0.000 A 
ATOM      6  C   UNL     1       2.587   2.361  17.647  0.00  0.00    +0.000 A 
ATOM      7  C   UNL     1       3.605   1.869  18.460  0.00  0.00    +0.000 A 
ATOM      8  C   UNL     1       4.199   2.673  19.425  0.00  0.00    +0.000 A 
ATOM      9  C   UNL     1       3.749   3.981  19.608  0.00  0.00    +0.000 A 
BRANCH   7  10
ATOM     10  O   UNL     1       4.040   0.582  18.348  0.00  0.00    +0.000 OA
ATOM     11  H   UNL     1       4.643   0.396  19.085  0.00  0.00    +0.000 HD
ENDBRANCH   7  10
ENDBRANCH   3   4
BRANCH   2  12
ATOM     12  C   UNL     1       2.004   8.264  18.853  0.00  0.00    +0.000 A 
ATOM     13  C   UNL     1       1.407   8.489  20.107  0.00  0.00    +0.000 A 
ATOM     14  C   UNL     1       0.850   9.730  20.440  0.00  0.00    +0.000 A 
ATOM     15  C   UNL     1       0.887  10.764  19.514  0.00  0.00    +0.000 A 
ATOM     16  C   UNL     1       1.475  10.579  18.273  0.00  0.00    +0.000 A 
ATOM     17  C   UNL     1       2.036   9.338  17.947  0.00  0.00    +0.000 A 
BRANCH  15  18
ATOM     18  O   UNL     1       0.356  11.988  19.796  0.00  0.00    +0.000 OA
ATOM     19  H   UNL     1      -0.033  12.352  18.985  0.00  0.00    +0.000 HD
ENDBRANCH  15  18
ENDBRANCH   2  12
TORSDOF 4
ENDMDL
MODEL 5
REMARK VINA RESULT:      -6.7      4.118      6.066
REMARK  Name = 
REMARK  5 active torsions:
REMARK  status: ('A' for Active; 'I' for Inactive)
REMARK    1  A    between atoms: C_1  and  C_2
REMARK    2  A    between atoms: C_2  and  C_11
REMARK    3  A    between atoms: C_3  and  C_4
REMARK    4  A    between atoms: C_7  and  O_8
REMARK    5  A    between atoms: C_14  and  O_15
REMARK                            x       y       z     vdW  Elec       q    Type
REMARK                         _______ _______ _______ _____ _____    ______ ____
ROOT
ATOM      1  C   UNL     1       3.765   6.961  17.597  0.00  0.00    +0.000 C 
ATOM      2  C   UNL     1       2.608   6.929  18.571  0.00  0.00    +0.000 C 
ATOM      3  C   UNL     1       2.146   5.787  19.126  0.00  0.00    +0.000 C 
ENDROOT
BRANCH   3   4
ATOM      4  C   UNL     1       2.702   4.463  18.838  0.00  0.00    +0.000 A 
ATOM      5  C   UNL     1       2.108   3.654  17.863  0.00  0.00    +0.000 A 
ATOM      6  C   UNL     1       2.558   2.347  17.664  0.00  0.00    +0.000 A 
ATOM      7  C   UNL     1       3.604   1.859  18.442  0.00  0.00    +0.000 A 
ATOM      8  C   UNL     1       4.226   2.663  19.389  0.00  0.00    +0.000 A 
ATOM      9  C   UNL     1       3.775   3.969  19.590  0.00  0.00    +0.000 A 
BRANCH   7  10
ATOM     10  O   UNL     1       4.043   0.575  18.313  0.00  0.00    +0.000 OA
ATOM     11  H   UNL     1       3.625   0.035  19.003  0.00  0.00    +0.000 HD
ENDBRANCH   7  10
ENDBRANCH   3   4
BRANCH   2  12
ATOM     12  C   UNL     1       1.999   8.247  18.922  0.00  0.00    +0.000 A 
ATOM     13  C   UNL     1       1.955   9.293  17.983  0.00  0.00    +0.000 A 
ATOM     14  C   UNL     1       1.367  10.526  18.288  0.00  0.00    +0.000 A 
ATOM     15  C   UNL     1       0.814  10.725  19.546  0.00  0.00    +0.000 A 
ATOM     16  C   UNL     1       0.832   9.713  20.491  0.00  0.00    +0.000 A 
ATOM     17  C   UNL     1       1.415   8.479  20.179  0.00  0.00    +0.000 A 
BRANCH  15  18
ATOM     18  O   UNL     1       0.232  11.911  19.886  0.00  0.00    +0.000 OA
ATOM     19  H   UNL     1       0.621  12.613  19.341  0.00  0.00    +0.000 HD
ENDBRANCH  15  18
ENDBRANCH   2  12
TORSDOF 4
ENDMDL
MODEL 6
REMARK VINA RESULT:      -6.7      0.226      1.191
REMARK  Name = 
REMARK  5 active torsions:
REMARK  status: ('A' for Active; 'I' for Inactive)
REMARK    1  A    between atoms: C_1  and  C_2
REMARK    2  A    between atoms: C_2  and  C_11
REMARK    3  A    between atoms: C_3  and  C_4
REMARK    4  A    between atoms: C_7  and  O_8
REMARK    5  A    between atoms: C_14  and  O_15
REMARK                            x       y       z     vdW  Elec       q    Type
REMARK                         _______ _______ _______ _____ _____    ______ ____
ROOT
ATOM      1  C   UNL     1       3.477   5.983  17.705  0.00  0.00    +0.000 C 
ATOM      2  C   UNL     1       3.769   4.542  18.062  0.00  0.00    +0.000 C 
ATOM      3  C   UNL     1       4.685   3.794  17.411  0.00  0.00    +0.000 C 
ENDROOT
BRANCH   3   4
ATOM      4  C   UNL     1       5.484   4.288  16.286  0.00  0.00    +0.000 A 
ATOM      5  C   UNL     1       5.131   3.945  14.977  0.00  0.00    +0.000 A 
ATOM      6  C   UNL     1       5.952   4.313  13.909  0.00  0.00    +0.000 A 
ATOM      7  C   UNL     1       7.120   5.027  14.159  0.00  0.00    +0.000 A 
ATOM      8  C   UNL     1       7.464   5.404  15.451  0.00  0.00    +0.000 A 
ATOM      9  C   UNL     1       6.646   5.034  16.519  0.00  0.00    +0.000 A 
BRANCH   7  10
ATOM     10  O   UNL     1       7.973   5.365  13.150  0.00  0.00    +0.000 OA
ATOM     11  H   UNL     1       8.320   6.254  13.325  0.00  0.00    +0.000 HD
ENDBRANCH   7  10
ENDBRANCH   3   4
BRANCH   2  12
ATOM     12  C   UNL     1       3.000   3.974  19.211  0.00  0.00    +0.000 A 
ATOM     13  C   UNL     1       3.577   3.011  20.057  0.00  0.00    +0.000 A 
ATOM     14  C   UNL     1       2.878   2.486  21.152  0.00  0.00    +0.000 A 
ATOM     15  C   UNL     1       1.587   2.925  21.410  0.00  0.00    +0.000 A 
ATOM     16  C   UNL     1       0.992   3.879  20.601  0.00  0.00    +0.000 A 
ATOM     17  C   UNL     1       1.697   4.407  19.512  0.00  0.00    +0.000 A 
BRANCH  15  18
ATOM     18  O   UNL     1       0.870   2.440  22.464  0.00  0.00    +0.000 OA
ATOM     19  H   UNL     1       1.473   1.959  23.053  0.00  0.00    +0.000 HD
ENDBRANCH  15  18
ENDBRANCH   2  12
TORSDOF 4
ENDMDL
MODEL 7
REMARK VINA RESULT:      -6.6      4.048      5.996
REMARK  Name = 
REMARK  5 active torsions:
REMARK  status: ('A' for Active; 'I' for Inactive)
REMARK    1  A    between atoms: C_1  and  C_2
REMARK    2  A    between atoms: C_2  and  C_11
REMARK    3  A    between atoms: C_3  and  C_4
REMARK    4  A    between atoms: C_7  and  O_8
REMARK    5  A    between atoms: C_14  and  O_15
REMARK                            x       y       z     vdW  Elec       q    Type
REMARK                         _______ _______ _______ _____ _____    ______ ____
ROOT
ATOM      1  C   UNL     1       3.841   6.624  17.782  0.00  0.00    +0.000 C 
ATOM      2  C   UNL     1       2.604   6.721  18.646  0.00  0.00    +0.000 C 
ATOM      3  C   UNL     1       2.012   5.645  19.207  0.00  0.00    +0.000 C 
ENDROOT
BRANCH   3   4
ATOM      4  C   UNL     1       2.494   4.272  19.032  0.00  0.00    +0.000 A 
ATOM      5  C   UNL     1       3.462   3.757  19.901  0.00  0.00    +0.000 A 
ATOM      6  C   UNL     1       4.011   2.493  19.672  0.00  0.00    +0.000 A 
ATOM      7  C   UNL     1       3.583   1.751  18.575  0.00  0.00    +0.000 A 
ATOM      8  C   UNL     1       2.597   2.237  17.724  0.00  0.00    +0.000 A 
ATOM      9  C   UNL     1       2.050   3.500  17.952  0.00  0.00    +0.000 A 
BRANCH   7  10
ATOM     10  O   UNL     1       4.127   0.534  18.288  0.00  0.00    +0.000 OA
ATOM     11  H   UNL     1       4.551   0.584  17.416  0.00  0.00    +0.000 HD
ENDBRANCH   7  10
ENDBRANCH   3   4
BRANCH   2  12
ATOM     12  C   UNL     1       2.064   8.095  18.880  0.00  0.00    +0.000 A 
ATOM     13  C   UNL     1       2.146   9.080  17.880  0.00  0.00    +0.000 A 
ATOM     14  C   UNL     1       1.624  10.365  18.075  0.00  0.00    +0.000 A 
ATOM     15  C   UNL     1       1.011  10.676  19.281  0.00  0.00    +0.000 A 
ATOM     16  C   UNL     1       0.905   9.726  20.283  0.00  0.00    +0.000 A 
ATOM     17  C   UNL     1       1.422   8.440  20.081  0.00  0.00    +0.000 A 
BRANCH  15  18
ATOM     18  O   UNL     1       0.490  11.915  19.513  0.00  0.00    +0.000 OA
ATOM     19  H   UNL     1       0.193  12.289  18.668  0.00  0.00    +0.000 HD
ENDBRANCH  15  18
ENDBRANCH   2  12
TORSDOF 4
ENDMDL
MODEL 8
REMARK VINA RESULT:      -6.6      4.070      5.985
REMARK  Name = 
REMARK  5 active torsions:
REMARK  status: ('A' for Active; 'I' for Inactive)
REMARK    1  A    between atoms: C_1  and  C_2
REMARK    2  A    between atoms: C_2  and  C_11
REMARK    3  A    between atoms: C_3  and  C_4
REMARK    4  A    between atoms: C_7  and  O_8
REMARK    5  A    between atoms: C_14  and  O_15
REMARK                            x       y       z     vdW  Elec       q    Type
REMARK                         _______ _______ _______ _____ _____    ______ ____
ROOT
ATOM      1  C   UNL     1       3.765   6.653  17.680  0.00  0.00    +0.000 C 
ATOM      2  C   UNL     1       2.565   6.754  18.595  0.00  0.00    +0.000 C 
ATOM      3  C   UNL     1       2.007   5.682  19.197  0.00  0.00    +0.000 C 
ENDROOT
BRANCH   3   4
ATOM      4  C   UNL     1       2.490   4.310  19.019  0.00  0.00    +0.000 A 
ATOM      5  C   UNL     1       3.491   3.810  19.859  0.00  0.00    +0.000 A 
ATOM      6  C   UNL     1       4.039   2.547  19.624  0.00  0.00    +0.000 A 
ATOM      7  C   UNL     1       3.578   1.790  18.551  0.00  0.00    +0.000 A 
ATOM      8  C   UNL     1       2.560   2.261  17.731  0.00  0.00    +0.000 A 
ATOM      9  C   UNL     1       2.013   3.524  17.964  0.00  0.00    +0.000 A 
BRANCH   7  10
ATOM     10  O   UNL     1       4.119   0.573  18.258  0.00  0.00    +0.000 OA
ATOM     11  H   UNL     1       3.396  -0.049  18.077  0.00  0.00    +0.000 HD
ENDBRANCH   7  10
ENDBRANCH   3   4
BRANCH   2  12
ATOM     12  C   UNL     1       2.026   8.127  18.834  0.00  0.00    +0.000 A 
ATOM     13  C   UNL     1       1.418   8.459  20.058  0.00  0.00    +0.000 A 
ATOM     14  C   UNL     1       0.929   9.748  20.306  0.00  0.00    +0.000 A 
ATOM     15  C   UNL     1       1.046  10.722  19.324  0.00  0.00    +0.000 A 
ATOM     16  C   UNL     1       1.648  10.431  18.111  0.00  0.00    +0.000 A 
ATOM     17  C   UNL     1       2.142   9.143  17.870  0.00  0.00    +0.000 A 
BRANCH  15  18
ATOM     18  O   UNL     1       0.582  11.989  19.523  0.00  0.00    +0.000 OA
ATOM     19  H   UNL     1       0.738  12.506  18.717  0.00  0.00    +0.000 HD
ENDBRANCH  15  18
ENDBRANCH   2  12
TORSDOF 4
ENDMDL
MODEL 9
REMARK VINA RESULT:      -6.5      4.214      6.088
REMARK  Name = 
REMARK  5 active torsions:
REMARK  status: ('A' for Active; 'I' for Inactive)
REMARK    1  A    between atoms: C_1  and  C_2
REMARK    2  A    between atoms: C_2  and  C_11
REMARK    3  A    between atoms: C_3  and  C_4
REMARK    4  A    between atoms: C_7  and  O_8
REMARK    5  A    between atoms: C_14  and  O_15
REMARK                            x       y       z     vdW  Elec       q    Type
REMARK                         _______ _______ _______ _____ _____    ______ ____
ROOT
ATOM      1  C   UNL     1       1.840   6.029  20.482  0.00  0.00    +0.000 C 
ATOM      2  C   UNL     1       2.184   6.748  19.197  0.00  0.00    +0.000 C 
ATOM      3  C   UNL     1       2.745   6.128  18.136  0.00  0.00    +0.000 C 
ENDROOT
BRANCH   3   4
ATOM      4  C   UNL     1       3.091   4.705  18.118  0.00  0.00    +0.000 A 
ATOM      5  C   UNL     1       2.183   3.773  17.604  0.00  0.00    +0.000 A 
ATOM      6  C   UNL     1       2.454   2.406  17.689  0.00  0.00    +0.000 A 
ATOM      7  C   UNL     1       3.638   1.980  18.286  0.00  0.00    +0.000 A 
ATOM      8  C   UNL     1       4.564   2.897  18.768  0.00  0.00    +0.000 A 
ATOM      9  C   UNL     1       4.292   4.263  18.685  0.00  0.00    +0.000 A 
BRANCH   7  10
ATOM     10  O   UNL     1       3.920   0.655  18.432  0.00  0.00    +0.000 OA
ATOM     11  H   UNL     1       3.548   0.175  17.675  0.00  0.00    +0.000 HD
ENDBRANCH   7  10
ENDBRANCH   3   4
BRANCH   2  12
ATOM     12  C   UNL     1       1.845   8.202  19.138  0.00  0.00    +0.000 A 
ATOM     13  C   UNL     1       2.188   8.976  18.015  0.00  0.00    +0.000 A 
ATOM     14  C   UNL     1       1.857  10.334  17.935  0.00  0.00    +0.000 A 
ATOM     15  C   UNL     1       1.174  10.933  18.984  0.00  0.00    +0.000 A 
ATOM     16  C   UNL     1       0.813  10.197  20.101  0.00  0.00    +0.000 A 
ATOM     17  C   UNL     1       1.140   8.837  20.174  0.00  0.00    +0.000 A 
BRANCH  15  18
ATOM     18  O   UNL     1       0.833  12.253  18.947  0.00  0.00    +0.000 OA
ATOM     19  H   UNL     1       0.100  12.366  18.322  0.00  0.00    +0.000 HD
ENDBRANCH  15  18
ENDBRANCH   2  12
TORSDOF 4
ENDMDL
