MODEL 1
REMARK VINA RESULT:      -7.7      0.000      0.000
REMARK  Name = 
REMARK  4 active torsions:
REMARK  status: ('A' for Active; 'I' for Inactive)
REMARK    1  A    between atoms: C_1  and  C_2
REMARK    2  A    between atoms: C_2  and  C_3
REMARK    3  A    between atoms: C_3  and  C_4
REMARK    4  A    between atoms: N_10  and  C_11
REMARK                            x       y       z     vdW  Elec       q    Type
REMARK                         _______ _______ _______ _____ _____    ______ ____
ROOT
ATOM      1  C   UNL     1       2.707   5.957  19.862  0.00  0.00    +0.000 A 
ATOM      2  N   UNL     1       3.604   5.413  18.993  0.00  0.00    +0.000 NA
ATOM      3  C   UNL     1       3.988   6.140  17.933  0.00  0.00    +0.000 A 
ATOM      4  N   UNL     1       4.816   5.604  16.984  0.00  0.00    +0.000 N 
ATOM      5  C   UNL     1       5.323   6.450  15.903  0.00  0.00    +0.000 C 
ATOM      6  C   UNL     1       5.357   5.634  14.594  0.00  0.00    +0.000 C 
ATOM      7  N   UNL     1       6.175   4.407  14.737  0.00  0.00    +0.000 NA
ATOM      8  C   UNL     1       6.212   3.670  13.478  0.00  0.00    +0.000 C 
ATOM      9  C   UNL     1       5.602   3.581  15.829  0.00  0.00    +0.000 C 
ATOM     10  C   UNL     1       5.521   4.343  17.181  0.00  0.00    +0.000 C 
ATOM     11  N   UNL     1       3.529   7.374  17.720  0.00  0.00    +0.000 NA
ATOM     12  C   UNL     1       2.637   7.894  18.581  0.00  0.00    +0.000 A 
ATOM     13  C   UNL     1       2.161   7.225  19.695  0.00  0.00    +0.000 A 
ATOM     14  N   UNL     1       1.232   7.787  20.582  0.00  0.00    +0.000 N 
ATOM     15  C   UNL     1       0.642   9.058  20.477  0.00  0.00    +0.000 A 
ATOM     16  C   UNL     1      -0.276   9.466  21.460  0.00  0.00    +0.000 A 
ATOM     17  C   UNL     1      -0.868  10.727  21.406  0.00  0.00    +0.000 A 
ATOM     18  C   UNL     1      -0.555  11.599  20.368  0.00  0.00    +0.000 A 
ATOM     19  C   UNL     1       0.352  11.206  19.386  0.00  0.00    +0.000 A 
ATOM     20  C   UNL     1       0.954   9.945  19.433  0.00  0.00    +0.000 A 
ATOM     21  S   UNL     1       2.104   9.534  18.137  0.00  0.00    +0.000 S 
ATOM     22  H   UNL     1       0.903   7.216  21.344  0.00  0.00    +0.000 HD
ENDROOT
BRANCH   1  23
ATOM     23  C   UNL     1       2.309   5.074  21.024  0.00  0.00    +0.000 C 
BRANCH  23  25
ATOM     24  C   UNL     1       1.428   2.756  21.459  0.00  0.00    +0.000 C 
ATOM     25  C   UNL     1       1.278   4.017  20.620  0.00  0.00    +0.000 C 
ENDBRANCH  23  25
ENDBRANCH   1  23
TORSDOF 2
ENDMDL
MODEL 2
REMARK VINA RESULT:      -7.5      1.611      7.295
REMARK  Name = 
REMARK  4 active torsions:
REMARK  status: ('A' for Active; 'I' for Inactive)
REMARK    1  A    between atoms: C_1  and  C_2
REMARK    2  A    between atoms: C_2  and  C_3
REMARK    3  A    between atoms: C_3  and  C_4
REMARK    4  A    between atoms: N_10  and  C_11
REMARK                            x       y       z     vdW  Elec       q    Type
REMARK                         _______ _______ _______ _____ _____    ______ ____
ROOT
ATOM      1  C   UNL     1       2.147   5.756  20.473  0.00  0.00    +0.000 A 
ATOM      2  N   UNL     1       1.297   6.695  20.974  0.00  0.00    +0.000 NA
ATOM      3  C   UNL     1       1.178   7.862  20.322  0.00  0.00    +0.000 A 
ATOM      4  N   UNL     1       0.407   8.870  20.834  0.00  0.00    +0.000 N 
ATOM      5  C   UNL     1       0.190  10.086  20.048  0.00  0.00    +0.000 C 
ATOM      6  C   UNL     1       0.198  11.307  20.992  0.00  0.00    +0.000 C 
ATOM      7  N   UNL     1      -0.818  11.177  22.062  0.00  0.00    +0.000 NA
ATOM      8  C   UNL     1      -0.808  12.356  22.922  0.00  0.00    +0.000 C 
ATOM      9  C   UNL     1      -0.535   9.941  22.835  0.00  0.00    +0.000 C 
ATOM     10  C   UNL     1      -0.512   8.667  21.947  0.00  0.00    +0.000 C 
ATOM     11  N   UNL     1       1.854   8.115  19.201  0.00  0.00    +0.000 NA
ATOM     12  C   UNL     1       2.697   7.182  18.724  0.00  0.00    +0.000 A 
ATOM     13  C   UNL     1       2.908   5.954  19.326  0.00  0.00    +0.000 A 
ATOM     14  N   UNL     1       3.789   4.995  18.812  0.00  0.00    +0.000 N 
ATOM     15  C   UNL     1       4.585   5.125  17.661  0.00  0.00    +0.000 A 
ATOM     16  C   UNL     1       5.419   4.058  17.284  0.00  0.00    +0.000 A 
ATOM     17  C   UNL     1       6.208   4.138  16.138  0.00  0.00    +0.000 A 
ATOM     18  C   UNL     1       6.180   5.284  15.351  0.00  0.00    +0.000 A 
ATOM     19  C   UNL     1       5.359   6.350  15.714  0.00  0.00    +0.000 A 
ATOM     20  C   UNL     1       4.561   6.280  16.860  0.00  0.00    +0.000 A 
ATOM     21  S   UNL     1       3.541   7.689  17.240  0.00  0.00    +0.000 S 
ATOM     22  H   UNL     1       3.919   4.144  19.335  0.00  0.00    +0.000 HD
ENDROOT
BRANCH   1  23
ATOM     23  C   UNL     1       2.240   4.474  21.270  0.00  0.00    +0.000 C 
BRANCH  23  25
ATOM     24  C   UNL     1       1.696   2.401  19.949  0.00  0.00    +0.000 C 
ATOM     25  C   UNL     1       1.150   3.472  20.883  0.00  0.00    +0.000 C 
ENDBRANCH  23  25
ENDBRANCH   1  23
TORSDOF 2
ENDMDL
MODEL 3
REMARK VINA RESULT:      -6.5      3.207      7.589
REMARK  Name = 
REMARK  4 active torsions:
REMARK  status: ('A' for Active; 'I' for Inactive)
REMARK    1  A    between atoms: C_1  and  C_2
REMARK    2  A    between atoms: C_2  and  C_3
REMARK    3  A    between atoms: C_3  and  C_4
REMARK    4  A    between atoms: N_10  and  C_11
REMARK                            x       y       z     vdW  Elec       q    Type
REMARK                         _______ _______ _______ _____ _____    ______ ____
ROOT
ATOM      1  C   UNL     1       1.022   9.794  21.507  0.00  0.00    +0.000 A 
ATOM      2  N   UNL     1       0.955  11.113  21.172  0.00  0.00    +0.000 NA
ATOM      3  C   UNL     1       1.289  11.473  19.923  0.00  0.00    +0.000 A 
ATOM      4  N   UNL     1       1.325  12.793  19.566  0.00  0.00    +0.000 N 
ATOM      5  C   UNL     1       1.569  13.160  18.169  0.00  0.00    +0.000 C 
ATOM      6  C   UNL     1       2.463  14.417  18.124  0.00  0.00    +0.000 C 
ATOM      7  N   UNL     1       1.859  15.544  18.871  0.00  0.00    +0.000 NA
ATOM      8  C   UNL     1       2.711  16.725  18.789  0.00  0.00    +0.000 C 
ATOM      9  C   UNL     1       1.655  15.122  20.280  0.00  0.00    +0.000 C 
ATOM     10  C   UNL     1       0.774  13.850  20.406  0.00  0.00    +0.000 C 
ATOM     11  N   UNL     1       1.667  10.579  19.009  0.00  0.00    +0.000 NA
ATOM     12  C   UNL     1       1.738   9.282  19.357  0.00  0.00    +0.000 A 
ATOM     13  C   UNL     1       1.433   8.805  20.620  0.00  0.00    +0.000 A 
ATOM     14  N   UNL     1       1.512   7.449  20.961  0.00  0.00    +0.000 N 
ATOM     15  C   UNL     1       1.915   6.398  20.119  0.00  0.00    +0.000 A 
ATOM     16  C   UNL     1       1.936   5.088  20.626  0.00  0.00    +0.000 A 
ATOM     17  C   UNL     1       2.309   4.015  19.818  0.00  0.00    +0.000 A 
ATOM     18  C   UNL     1       2.670   4.234  18.493  0.00  0.00    +0.000 A 
ATOM     19  C   UNL     1       2.655   5.528  17.978  0.00  0.00    +0.000 A 
ATOM     20  C   UNL     1       2.280   6.611  18.778  0.00  0.00    +0.000 A 
ATOM     21  S   UNL     1       2.286   8.227  18.030  0.00  0.00    +0.000 S 
ATOM     22  H   UNL     1       1.316   7.190  21.915  0.00  0.00    +0.000 HD
ENDROOT
BRANCH   1  23
ATOM     23  C   UNL     1       0.647   9.467  22.935  0.00  0.00    +0.000 C 
BRANCH  23  25
ATOM     24  C   UNL     1      -1.345  10.985  23.195  0.00  0.00    +0.000 C 
ATOM     25  C   UNL     1      -0.865   9.541  23.167  0.00  0.00    +0.000 C 
ENDBRANCH  23  25
ENDBRANCH   1  23
TORSDOF 2
ENDMDL
MODEL 4
REMARK VINA RESULT:      -6.3      3.073      7.265
REMARK  Name = 
REMARK  4 active torsions:
REMARK  status: ('A' for Active; 'I' for Inactive)
REMARK    1  A    between atoms: C_1  and  C_2
REMARK    2  A    between atoms: C_2  and  C_3
REMARK    3  A    between atoms: C_3  and  C_4
REMARK    4  A    between atoms: N_10  and  C_11
REMARK                            x       y       z     vdW  Elec       q    Type
REMARK                         _______ _______ _______ _____ _____    ______ ____
ROOT
ATOM      1  C   UNL     1       0.535   8.929  21.053  0.00  0.00    +0.000 A 
ATOM      2  N   UNL     1       0.531  10.220  20.618  0.00  0.00    +0.000 NA
ATOM      3  C   UNL     1       1.270  10.534  19.542  0.00  0.00    +0.000 A 
ATOM      4  N   UNL     1       1.370  11.832  19.122  0.00  0.00    +0.000 N 
ATOM      5  C   UNL     1       2.076  12.139  17.876  0.00  0.00    +0.000 C 
ATOM      6  C   UNL     1       2.869  13.450  18.053  0.00  0.00    +0.000 C 
ATOM      7  N   UNL     1       1.989  14.571  18.453  0.00  0.00    +0.000 NA
ATOM      8  C   UNL     1       2.761  15.803  18.587  0.00  0.00    +0.000 C 
ATOM      9  C   UNL     1       1.319  14.214  19.729  0.00  0.00    +0.000 C 
ATOM     10  C   UNL     1       0.508  12.892  19.633  0.00  0.00    +0.000 C 
ATOM     11  N   UNL     1       1.988   9.620  18.889  0.00  0.00    +0.000 NA
ATOM     12  C   UNL     1       1.989   8.352  19.336  0.00  0.00    +0.000 A 
ATOM     13  C   UNL     1       1.279   7.925  20.444  0.00  0.00    +0.000 A 
ATOM     14  N   UNL     1       1.293   6.598  20.892  0.00  0.00    +0.000 N 
ATOM     15  C   UNL     1       2.016   5.533  20.327  0.00  0.00    +0.000 A 
ATOM     16  C   UNL     1       1.915   4.257  20.907  0.00  0.00    +0.000 A 
ATOM     17  C   UNL     1       2.599   3.170  20.364  0.00  0.00    +0.000 A 
ATOM     18  C   UNL     1       3.396   3.341  19.237  0.00  0.00    +0.000 A 
ATOM     19  C   UNL     1       3.506   4.601  18.654  0.00  0.00    +0.000 A 
ATOM     20  C   UNL     1       2.822   5.698  19.188  0.00  0.00    +0.000 A 
ATOM     21  S   UNL     1       3.020   7.267  18.370  0.00  0.00    +0.000 S 
ATOM     22  H   UNL     1       0.783   6.378  21.734  0.00  0.00    +0.000 HD
ENDROOT
BRANCH   1  23
ATOM     23  C   UNL     1      -0.307   8.655  22.279  0.00  0.00    +0.000 C 
BRANCH  23  25
ATOM     24  C   UNL     1      -1.292  10.781  23.202  0.00  0.00    +0.000 C 
ATOM     25  C   UNL     1      -0.172   9.758  23.332  0.00  0.00    +0.000 C 
ENDBRANCH  23  25
ENDBRANCH   1  23
TORSDOF 2
ENDMDL
MODEL 5
REMARK VINA RESULT:      -6.2      6.716     11.261
REMARK  Name = 
REMARK  4 active torsions:
REMARK  status: ('A' for Active; 'I' for Inactive)
REMARK    1  A    between atoms: C_1  and  C_2
REMARK    2  A    between atoms: C_2  and  C_3
REMARK    3  A    between atoms: C_3  and  C_4
REMARK    4  A    between atoms: N_10  and  C_11
REMARK                            x       y       z     vdW  Elec       q    Type
REMARK                         _______ _______ _______ _____ _____    ______ ____
ROOT
ATOM      1  C   UNL     1      -1.695  12.224  21.507  0.00  0.00    +0.000 A 
ATOM      2  N   UNL     1      -2.174  13.005  22.516  0.00  0.00    +0.000 NA
ATOM      3  C   UNL     1      -3.373  13.586  22.360  0.00  0.00    +0.000 A 
ATOM      4  N   UNL     1      -3.856  14.450  23.304  0.00  0.00    +0.000 N 
ATOM      5  C   UNL     1      -5.217  14.976  23.178  0.00  0.00    +0.000 C 
ATOM      6  C   UNL     1      -5.233  16.452  23.626  0.00  0.00    +0.000 C 
ATOM      7  N   UNL     1      -4.731  16.608  25.010  0.00  0.00    +0.000 NA
ATOM      8  C   UNL     1      -4.783  18.009  25.418  0.00  0.00    +0.000 C 
ATOM      9  C   UNL     1      -3.345  16.079  25.073  0.00  0.00    +0.000 C 
ATOM     10  C   UNL     1      -3.245  14.597  24.620  0.00  0.00    +0.000 C 
ATOM     11  N   UNL     1      -4.105  13.408  21.259  0.00  0.00    +0.000 NA
ATOM     12  C   UNL     1      -3.614  12.643  20.268  0.00  0.00    +0.000 A 
ATOM     13  C   UNL     1      -2.384  12.012  20.319  0.00  0.00    +0.000 A 
ATOM     14  N   UNL     1      -1.892  11.217  19.275  0.00  0.00    +0.000 N 
ATOM     15  C   UNL     1      -2.532  10.958  18.051  0.00  0.00    +0.000 A 
ATOM     16  C   UNL     1      -1.894  10.133  17.110  0.00  0.00    +0.000 A 
ATOM     17  C   UNL     1      -2.503   9.833  15.892  0.00  0.00    +0.000 A 
ATOM     18  C   UNL     1      -3.757  10.354  15.594  0.00  0.00    +0.000 A 
ATOM     19  C   UNL     1      -4.401  11.176  16.518  0.00  0.00    +0.000 A 
ATOM     20  C   UNL     1      -3.800  11.480  17.743  0.00  0.00    +0.000 A 
ATOM     21  S   UNL     1      -4.701  12.533  18.862  0.00  0.00    +0.000 S 
ATOM     22  H   UNL     1      -0.967  10.830  19.372  0.00  0.00    +0.000 HD
ENDROOT
BRANCH   1  23
ATOM     23  C   UNL     1      -0.331  11.616  21.749  0.00  0.00    +0.000 C 
BRANCH  23  25
ATOM     24  C   UNL     1      -0.374   9.121  22.081  0.00  0.00    +0.000 C 
ATOM     25  C   UNL     1      -0.378  10.478  22.771  0.00  0.00    +0.000 C 
ENDBRANCH  23  25
ENDBRANCH   1  23
TORSDOF 2
ENDMDL
MODEL 6
REMARK VINA RESULT:      -6.1      7.287      8.834
REMARK  Name = 
REMARK  4 active torsions:
REMARK  status: ('A' for Active; 'I' for Inactive)
REMARK    1  A    between atoms: C_1  and  C_2
REMARK    2  A    between atoms: C_2  and  C_3
REMARK    3  A    between atoms: C_3  and  C_4
REMARK    4  A    between atoms: N_10  and  C_11
REMARK                            x       y       z     vdW  Elec       q    Type
REMARK                         _______ _______ _______ _____ _____    ______ ____
ROOT
ATOM      1  C   UNL     1      -2.713  11.945  18.628  0.00  0.00    +0.000 A 
ATOM      2  N   UNL     1      -1.366  12.137  18.564  0.00  0.00    +0.000 NA
ATOM      3  C   UNL     1      -0.739  12.631  19.642  0.00  0.00    +0.000 A 
ATOM      4  N   UNL     1       0.597  12.926  19.596  0.00  0.00    +0.000 N 
ATOM      5  C   UNL     1       1.289  13.345  20.816  0.00  0.00    +0.000 C 
ATOM      6  C   UNL     1       2.313  14.445  20.465  0.00  0.00    +0.000 C 
ATOM      7  N   UNL     1       3.277  13.986  19.439  0.00  0.00    +0.000 NA
ATOM      8  C   UNL     1       4.248  15.035  19.147  0.00  0.00    +0.000 C 
ATOM      9  C   UNL     1       2.522  13.596  18.222  0.00  0.00    +0.000 C 
ATOM     10  C   UNL     1       1.458  12.499  18.499  0.00  0.00    +0.000 C 
ATOM     11  N   UNL     1      -1.393  12.922  20.767  0.00  0.00    +0.000 NA
ATOM     12  C   UNL     1      -2.724  12.737  20.811  0.00  0.00    +0.000 A 
ATOM     13  C   UNL     1      -3.471  12.250  19.753  0.00  0.00    +0.000 A 
ATOM     14  N   UNL     1      -4.858  12.063  19.822  0.00  0.00    +0.000 N 
ATOM     15  C   UNL     1      -5.685  12.346  20.922  0.00  0.00    +0.000 A 
ATOM     16  C   UNL     1      -7.064  12.096  20.821  0.00  0.00    +0.000 A 
ATOM     17  C   UNL     1      -7.916  12.343  21.897  0.00  0.00    +0.000 A 
ATOM     18  C   UNL     1      -7.405  12.845  23.089  0.00  0.00    +0.000 A 
ATOM     19  C   UNL     1      -6.039  13.099  23.202  0.00  0.00    +0.000 A 
ATOM     20  C   UNL     1      -5.176  12.852  22.131  0.00  0.00    +0.000 A 
ATOM     21  S   UNL     1      -3.446  13.202  22.372  0.00  0.00    +0.000 S 
ATOM     22  H   UNL     1      -5.333  11.746  18.992  0.00  0.00    +0.000 HD
ENDROOT
BRANCH   1  23
ATOM     23  C   UNL     1      -3.353  11.401  17.370  0.00  0.00    +0.000 C 
BRANCH  23  25
ATOM     24  C   UNL     1      -2.857  10.299  15.161  0.00  0.00    +0.000 C 
ATOM     25  C   UNL     1      -2.420  10.454  16.611  0.00  0.00    +0.000 C 
ENDBRANCH  23  25
ENDBRANCH   1  23
TORSDOF 2
ENDMDL
MODEL 7
REMARK VINA RESULT:      -6.1      6.992      8.639
REMARK  Name = 
REMARK  4 active torsions:
REMARK  status: ('A' for Active; 'I' for Inactive)
REMARK    1  A    between atoms: C_1  and  C_2
REMARK    2  A    between atoms: C_2  and  C_3
REMARK    3  A    between atoms: C_3  and  C_4
REMARK    4  A    between atoms: N_10  and  C_11
REMARK                            x       y       z     vdW  Elec       q    Type
REMARK                         _______ _______ _______ _____ _____    ______ ____
ROOT
ATOM      1  C   UNL     1      -2.095  11.271  18.126  0.00  0.00    +0.000 A 
ATOM      2  N   UNL     1      -0.782  11.611  18.249  0.00  0.00    +0.000 NA
ATOM      3  C   UNL     1      -0.431  12.467  19.222  0.00  0.00    +0.000 A 
ATOM      4  N   UNL     1       0.860  12.907  19.329  0.00  0.00    +0.000 N 
ATOM      5  C   UNL     1       1.249  13.740  20.468  0.00  0.00    +0.000 C 
ATOM      6  C   UNL     1       2.243  14.820  19.991  0.00  0.00    +0.000 C 
ATOM      7  N   UNL     1       3.430  14.220  19.341  0.00  0.00    +0.000 NA
ATOM      8  C   UNL     1       4.365  15.261  18.924  0.00  0.00    +0.000 C 
ATOM      9  C   UNL     1       2.977  13.407  18.185  0.00  0.00    +0.000 C 
ATOM     10  C   UNL     1       1.960  12.304  18.586  0.00  0.00    +0.000 C 
ATOM     11  N   UNL     1      -1.326  12.975  20.069  0.00  0.00    +0.000 NA
ATOM     12  C   UNL     1      -2.620  12.639  19.929  0.00  0.00    +0.000 A 
ATOM     13  C   UNL     1      -3.091  11.780  18.952  0.00  0.00    +0.000 A 
ATOM     14  N   UNL     1      -4.445  11.441  18.825  0.00  0.00    +0.000 N 
ATOM     15  C   UNL     1      -5.502  11.913  19.621  0.00  0.00    +0.000 A 
ATOM     16  C   UNL     1      -6.808  11.467  19.355  0.00  0.00    +0.000 A 
ATOM     17  C   UNL     1      -7.882  11.894  20.135  0.00  0.00    +0.000 A 
ATOM     18  C   UNL     1      -7.669  12.774  21.190  0.00  0.00    +0.000 A 
ATOM     19  C   UNL     1      -6.380  13.225  21.464  0.00  0.00    +0.000 A 
ATOM     20  C   UNL     1      -5.295  12.801  20.691  0.00  0.00    +0.000 A 
ATOM     21  S   UNL     1      -3.684  13.426  21.120  0.00  0.00    +0.000 S 
ATOM     22  H   UNL     1      -4.711  10.844  18.058  0.00  0.00    +0.000 HD
ENDROOT
BRANCH   1  23
ATOM     23  C   UNL     1      -2.416  10.316  16.999  0.00  0.00    +0.000 C 
BRANCH  23  25
ATOM     24  C   UNL     1      -3.005  10.072  14.563  0.00  0.00    +0.000 C 
ATOM     25  C   UNL     1      -2.808  11.049  15.714  0.00  0.00    +0.000 C 
ENDBRANCH  23  25
ENDBRANCH   1  23
TORSDOF 2
ENDMDL
MODEL 8
REMARK VINA RESULT:      -6.0      6.995      9.084
REMARK  Name = 
REMARK  4 active torsions:
REMARK  status: ('A' for Active; 'I' for Inactive)
REMARK    1  A    between atoms: C_1  and  C_2
REMARK    2  A    between atoms: C_2  and  C_3
REMARK    3  A    between atoms: C_3  and  C_4
REMARK    4  A    between atoms: N_10  and  C_11
REMARK                            x       y       z     vdW  Elec       q    Type
REMARK                         _______ _______ _______ _____ _____    ______ ____
ROOT
ATOM      1  C   UNL     1      -1.281  12.067  22.655  0.00  0.00    +0.000 A 
ATOM      2  N   UNL     1      -0.144  12.529  22.063  0.00  0.00    +0.000 NA
ATOM      3  C   UNL     1      -0.142  13.778  21.572  0.00  0.00    +0.000 A 
ATOM      4  N   UNL     1       0.944  14.255  20.889  0.00  0.00    +0.000 N 
ATOM      5  C   UNL     1       0.977  15.658  20.471  0.00  0.00    +0.000 C 
ATOM      6  C   UNL     1       1.630  15.755  19.076  0.00  0.00    +0.000 C 
ATOM      7  N   UNL     1       2.988  15.165  19.066  0.00  0.00    +0.000 NA
ATOM      8  C   UNL     1       3.592  15.295  17.744  0.00  0.00    +0.000 C 
ATOM      9  C   UNL     1       2.889  13.742  19.477  0.00  0.00    +0.000 C 
ATOM     10  C   UNL     1       2.226  13.562  20.870  0.00  0.00    +0.000 C 
ATOM     11  N   UNL     1      -1.209  14.572  21.662  0.00  0.00    +0.000 NA
ATOM     12  C   UNL     1      -2.327  14.099  22.240  0.00  0.00    +0.000 A 
ATOM     13  C   UNL     1      -2.442  12.823  22.763  0.00  0.00    +0.000 A 
ATOM     14  N   UNL     1      -3.617  12.350  23.363  0.00  0.00    +0.000 N 
ATOM     15  C   UNL     1      -4.823  13.056  23.508  0.00  0.00    +0.000 A 
ATOM     16  C   UNL     1      -5.909  12.427  24.140  0.00  0.00    +0.000 A 
ATOM     17  C   UNL     1      -7.117  13.100  24.323  0.00  0.00    +0.000 A 
ATOM     18  C   UNL     1      -7.259  14.409  23.876  0.00  0.00    +0.000 A 
ATOM     19  C   UNL     1      -6.190  15.044  23.247  0.00  0.00    +0.000 A 
ATOM     20  C   UNL     1      -4.974  14.380  23.061  0.00  0.00    +0.000 A 
ATOM     21  S   UNL     1      -3.664  15.275  22.252  0.00  0.00    +0.000 S 
ATOM     22  H   UNL     1      -3.633  11.393  23.679  0.00  0.00    +0.000 HD
ENDROOT
BRANCH   1  23
ATOM     23  C   UNL     1      -1.213  10.646  23.170  0.00  0.00    +0.000 C 
BRANCH  23  25
ATOM     24  C   UNL     1      -0.355   8.722  21.792  0.00  0.00    +0.000 C 
ATOM     25  C   UNL     1       0.029   9.907  22.666  0.00  0.00    +0.000 C 
ENDBRANCH  23  25
ENDBRANCH   1  23
TORSDOF 2
ENDMDL
MODEL 9
REMARK VINA RESULT:      -6.0      4.182     10.340
REMARK  Name = 
REMARK  4 active torsions:
REMARK  status: ('A' for Active; 'I' for Inactive)
REMARK    1  A    between atoms: C_1  and  C_2
REMARK    2  A    between atoms: C_2  and  C_3
REMARK    3  A    between atoms: C_3  and  C_4
REMARK    4  A    between atoms: N_10  and  C_11
REMARK                            x       y       z     vdW  Elec       q    Type
REMARK                         _______ _______ _______ _____ _____    ______ ____
ROOT
ATOM      1  C   UNL     1      -0.733  12.672  19.458  0.00  0.00    +0.000 A 
ATOM      2  N   UNL     1      -1.607  13.302  20.292  0.00  0.00    +0.000 NA
ATOM      3  C   UNL     1      -1.960  12.687  21.431  0.00  0.00    +0.000 A 
ATOM      4  N   UNL     1      -2.902  13.238  22.256  0.00  0.00    +0.000 N 
ATOM      5  C   UNL     1      -3.183  12.617  23.552  0.00  0.00    +0.000 C 
ATOM      6  C   UNL     1      -4.697  12.701  23.837  0.00  0.00    +0.000 C 
ATOM      7  N   UNL     1      -5.182  14.099  23.802  0.00  0.00    +0.000 NA
ATOM      8  C   UNL     1      -6.610  14.151  24.101  0.00  0.00    +0.000 C 
ATOM      9  C   UNL     1      -4.891  14.668  22.462  0.00  0.00    +0.000 C 
ATOM     10  C   UNL     1      -3.382  14.605  22.097  0.00  0.00    +0.000 C 
ATOM     11  N   UNL     1      -1.471  11.493  21.768  0.00  0.00    +0.000 NA
ATOM     12  C   UNL     1      -0.618  10.879  20.930  0.00  0.00    +0.000 A 
ATOM     13  C   UNL     1      -0.201  11.415  19.724  0.00  0.00    +0.000 A 
ATOM     14  N   UNL     1       0.691  10.759  18.866  0.00  0.00    +0.000 N 
ATOM     15  C   UNL     1       1.268   9.494  19.071  0.00  0.00    +0.000 A 
ATOM     16  C   UNL     1       2.148   8.981  18.103  0.00  0.00    +0.000 A 
ATOM     17  C   UNL     1       2.758   7.740  18.278  0.00  0.00    +0.000 A 
ATOM     18  C   UNL     1       2.497   6.990  19.420  0.00  0.00    +0.000 A 
ATOM     19  C   UNL     1       1.625   7.486  20.387  0.00  0.00    +0.000 A 
ATOM     20  C   UNL     1       1.010   8.731  20.223  0.00  0.00    +0.000 A 
ATOM     21  S   UNL     1      -0.084   9.284  21.515  0.00  0.00    +0.000 S 
ATOM     22  H   UNL     1       0.908  11.198  17.986  0.00  0.00    +0.000 HD
ENDROOT
BRANCH   1  23
ATOM     23  C   UNL     1      -0.394  13.419  18.187  0.00  0.00    +0.000 C 
BRANCH  23  25
ATOM     24  C   UNL     1       1.505  14.883  18.955  0.00  0.00    +0.000 C 
ATOM     25  C   UNL     1       0.064  14.853  18.465  0.00  0.00    +0.000 C 
ENDBRANCH  23  25
ENDBRANCH   1  23
TORSDOF 2
ENDMDL
