MODEL 1
REMARK VINA RESULT:      -7.3      0.000      0.000
REMARK  Name = 
REMARK  4 active torsions:
REMARK  status: ('A' for Active; 'I' for Inactive)
REMARK    1  A    between atoms: C_1  and  O_2
REMARK    2  A    between atoms: O_2  and  C_3
REMARK    3  A    between atoms: C_9  and  C_10
REMARK    4  A    between atoms: C_15  and  C_16
REMARK                            x       y       z     vdW  Elec       q    Type
REMARK                         _______ _______ _______ _____ _____    ______ ____
ROOT
ATOM      1  C   UNL     1       6.353   4.720  17.994  0.00  0.00    +0.000 A 
ATOM      2  C   UNL     1       7.286   4.650  16.942  0.00  0.00    +0.000 A 
ATOM      3  C   UNL     1       6.867   4.423  15.634  0.00  0.00    +0.000 A 
ATOM      4  C   UNL     1       5.515   4.299  15.371  0.00  0.00    +0.000 A 
ATOM      5  F   UNL     1       5.107   4.064  14.117  0.00  0.00    +0.000 F 
ATOM      6  C   UNL     1       4.572   4.412  16.390  0.00  0.00    +0.000 A 
ATOM      7  C   UNL     1       4.955   4.591  17.737  0.00  0.00    +0.000 A 
ENDROOT
BRANCH   7   8
ATOM      8  C   UNL     1       3.906   4.687  18.807  0.00  0.00    +0.000 A 
ATOM      9  C   UNL     1       3.224   5.911  19.005  0.00  0.00    +0.000 A 
ATOM     10  C   UNL     1       2.230   6.076  19.977  0.00  0.00    +0.000 A 
ATOM     11  C   UNL     1       1.837   4.999  20.757  0.00  0.00    +0.000 A 
ATOM     12  C   UNL     1       2.453   3.767  20.577  0.00  0.00    +0.000 A 
ATOM     13  C   UNL     1       3.489   3.613  19.635  0.00  0.00    +0.000 A 
BRANCH  13  14
ATOM     14  C   UNL     1       4.127   2.274  19.613  0.00  0.00    +0.000 C 
ATOM     15  O   UNL     1       5.026   1.965  20.383  0.00  0.00    +0.000 OA
ENDBRANCH  13  14
ENDBRANCH   7   8
BRANCH   1  17
ATOM     16  C   UNL     1       7.864   5.718  19.573  0.00  0.00    +0.000 C 
ATOM     17  O   UNL     1       6.736   4.891  19.303  0.00  0.00    +0.000 OA
ENDBRANCH   1  17
TORSDOF 3
ENDMDL
MODEL 2
REMARK VINA RESULT:      -6.9      1.988      5.150
REMARK  Name = 
REMARK  4 active torsions:
REMARK  status: ('A' for Active; 'I' for Inactive)
REMARK    1  A    between atoms: C_1  and  O_2
REMARK    2  A    between atoms: O_2  and  C_3
REMARK    3  A    between atoms: C_9  and  C_10
REMARK    4  A    between atoms: C_15  and  C_16
REMARK                            x       y       z     vdW  Elec       q    Type
REMARK                         _______ _______ _______ _____ _____    ______ ____
ROOT
ATOM      1  C   UNL     1       3.368   3.881  19.564  0.00  0.00    +0.000 A 
ATOM      2  C   UNL     1       2.311   4.121  20.463  0.00  0.00    +0.000 A 
ATOM      3  C   UNL     1       1.776   5.398  20.608  0.00  0.00    +0.000 A 
ATOM      4  C   UNL     1       2.273   6.428  19.832  0.00  0.00    +0.000 A 
ATOM      5  F   UNL     1       1.773   7.663  19.979  0.00  0.00    +0.000 F 
ATOM      6  C   UNL     1       3.286   6.204  18.903  0.00  0.00    +0.000 A 
ATOM      7  C   UNL     1       3.892   4.937  18.759  0.00  0.00    +0.000 A 
ENDROOT
BRANCH   7   8
ATOM      8  C   UNL     1       4.995   4.744  17.759  0.00  0.00    +0.000 A 
ATOM      9  C   UNL     1       4.679   4.307  16.451  0.00  0.00    +0.000 A 
ATOM     10  C   UNL     1       5.652   4.111  15.463  0.00  0.00    +0.000 A 
ATOM     11  C   UNL     1       6.981   4.400  15.730  0.00  0.00    +0.000 A 
ATOM     12  C   UNL     1       7.337   4.865  16.989  0.00  0.00    +0.000 A 
ATOM     13  C   UNL     1       6.367   5.014  18.001  0.00  0.00    +0.000 A 
BRANCH  13  14
ATOM     14  C   UNL     1       6.895   5.423  19.325  0.00  0.00    +0.000 C 
ATOM     15  O   UNL     1       8.087   5.387  19.594  0.00  0.00    +0.000 OA
ENDBRANCH  13  14
ENDBRANCH   7   8
BRANCH   1  17
ATOM     16  C   UNL     1       3.277   1.656  18.663  0.00  0.00    +0.000 C 
ATOM     17  O   UNL     1       3.953   2.644  19.434  0.00  0.00    +0.000 OA
ENDBRANCH   1  17
TORSDOF 3
ENDMDL
MODEL 3
REMARK VINA RESULT:      -6.9      1.599      2.501
REMARK  Name = 
REMARK  4 active torsions:
REMARK  status: ('A' for Active; 'I' for Inactive)
REMARK    1  A    between atoms: C_1  and  O_2
REMARK    2  A    between atoms: O_2  and  C_3
REMARK    3  A    between atoms: C_9  and  C_10
REMARK    4  A    between atoms: C_15  and  C_16
REMARK                            x       y       z     vdW  Elec       q    Type
REMARK                         _______ _______ _______ _____ _____    ______ ____
ROOT
ATOM      1  C   UNL     1       6.067   4.387  17.461  0.00  0.00    +0.000 A 
ATOM      2  C   UNL     1       7.189   4.725  16.680  0.00  0.00    +0.000 A 
ATOM      3  C   UNL     1       7.138   4.650  15.291  0.00  0.00    +0.000 A 
ATOM      4  C   UNL     1       5.957   4.268  14.681  0.00  0.00    +0.000 A 
ATOM      5  F   UNL     1       5.907   4.177  13.345  0.00  0.00    +0.000 F 
ATOM      6  C   UNL     1       4.822   3.973  15.432  0.00  0.00    +0.000 A 
ATOM      7  C   UNL     1       4.844   3.988  16.844  0.00  0.00    +0.000 A 
ENDROOT
BRANCH   7   8
ATOM      8  C   UNL     1       3.602   3.644  17.615  0.00  0.00    +0.000 A 
ATOM      9  C   UNL     1       3.307   2.287  17.890  0.00  0.00    +0.000 A 
ATOM     10  C   UNL     1       2.173   1.890  18.608  0.00  0.00    +0.000 A 
ATOM     11  C   UNL     1       1.313   2.844  19.131  0.00  0.00    +0.000 A 
ATOM     12  C   UNL     1       1.579   4.190  18.918  0.00  0.00    +0.000 A 
ATOM     13  C   UNL     1       2.692   4.590  18.152  0.00  0.00    +0.000 A 
BRANCH  13  14
ATOM     14  C   UNL     1       2.804   6.051  17.918  0.00  0.00    +0.000 C 
ATOM     15  O   UNL     1       3.403   6.792  18.685  0.00  0.00    +0.000 OA
ENDBRANCH  13  14
ENDBRANCH   7   8
BRANCH   1  17
ATOM     16  C   UNL     1       6.754   5.487  19.483  0.00  0.00    +0.000 C 
ATOM     17  O   UNL     1       6.100   4.401  18.836  0.00  0.00    +0.000 OA
ENDBRANCH   1  17
TORSDOF 3
ENDMDL
MODEL 4
REMARK VINA RESULT:      -6.9      2.609      4.923
REMARK  Name = 
REMARK  4 active torsions:
REMARK  status: ('A' for Active; 'I' for Inactive)
REMARK    1  A    between atoms: C_1  and  O_2
REMARK    2  A    between atoms: O_2  and  C_3
REMARK    3  A    between atoms: C_9  and  C_10
REMARK    4  A    between atoms: C_15  and  C_16
REMARK                            x       y       z     vdW  Elec       q    Type
REMARK                         _______ _______ _______ _____ _____    ______ ____
ROOT
ATOM      1  C   UNL     1       2.818   5.482  18.742  0.00  0.00    +0.000 A 
ATOM      2  C   UNL     1       1.583   4.805  18.709  0.00  0.00    +0.000 A 
ATOM      3  C   UNL     1       1.491   3.519  18.185  0.00  0.00    +0.000 A 
ATOM      4  C   UNL     1       2.635   2.896  17.724  0.00  0.00    +0.000 A 
ATOM      5  F   UNL     1       2.550   1.665  17.203  0.00  0.00    +0.000 F 
ATOM      6  C   UNL     1       3.874   3.529  17.790  0.00  0.00    +0.000 A 
ATOM      7  C   UNL     1       4.006   4.851  18.266  0.00  0.00    +0.000 A 
ENDROOT
BRANCH   7   8
ATOM      8  C   UNL     1       5.358   5.502  18.301  0.00  0.00    +0.000 A 
ATOM      9  C   UNL     1       6.235   5.229  19.378  0.00  0.00    +0.000 A 
ATOM     10  C   UNL     1       7.512   5.794  19.476  0.00  0.00    +0.000 A 
ATOM     11  C   UNL     1       7.988   6.615  18.466  0.00  0.00    +0.000 A 
ATOM     12  C   UNL     1       7.178   6.885  17.370  0.00  0.00    +0.000 A 
ATOM     13  C   UNL     1       5.872   6.360  17.294  0.00  0.00    +0.000 A 
BRANCH  13  14
ATOM     14  C   UNL     1       5.081   6.806  16.122  0.00  0.00    +0.000 C 
ATOM     15  O   UNL     1       5.305   6.403  14.990  0.00  0.00    +0.000 OA
ENDBRANCH  13  14
ENDBRANCH   7   8
BRANCH   1  17
ATOM     16  C   UNL     1       2.337   7.817  18.445  0.00  0.00    +0.000 C 
ATOM     17  O   UNL     1       2.934   6.771  19.205  0.00  0.00    +0.000 OA
ENDBRANCH   1  17
TORSDOF 3
ENDMDL
MODEL 5
REMARK VINA RESULT:      -6.8      1.311      2.244
REMARK  Name = 
REMARK  4 active torsions:
REMARK  status: ('A' for Active; 'I' for Inactive)
REMARK    1  A    between atoms: C_1  and  O_2
REMARK    2  A    between atoms: O_2  and  C_3
REMARK    3  A    between atoms: C_9  and  C_10
REMARK    4  A    between atoms: C_15  and  C_16
REMARK                            x       y       z     vdW  Elec       q    Type
REMARK                         _______ _______ _______ _____ _____    ______ ____
ROOT
ATOM      1  C   UNL     1       6.306   4.728  18.142  0.00  0.00    +0.000 A 
ATOM      2  C   UNL     1       7.184   4.897  17.054  0.00  0.00    +0.000 A 
ATOM      3  C   UNL     1       6.759   4.649  15.752  0.00  0.00    +0.000 A 
ATOM      4  C   UNL     1       5.450   4.262  15.533  0.00  0.00    +0.000 A 
ATOM      5  F   UNL     1       5.040   4.004  14.284  0.00  0.00    +0.000 F 
ATOM      6  C   UNL     1       4.552   4.133  16.591  0.00  0.00    +0.000 A 
ATOM      7  C   UNL     1       4.954   4.327  17.930  0.00  0.00    +0.000 A 
ENDROOT
BRANCH   7   8
ATOM      8  C   UNL     1       3.957   4.158  19.041  0.00  0.00    +0.000 A 
ATOM      9  C   UNL     1       3.836   2.902  19.682  0.00  0.00    +0.000 A 
ATOM     10  C   UNL     1       2.935   2.671  20.729  0.00  0.00    +0.000 A 
ATOM     11  C   UNL     1       2.156   3.709  21.217  0.00  0.00    +0.000 A 
ATOM     12  C   UNL     1       2.264   4.969  20.643  0.00  0.00    +0.000 A 
ATOM     13  C   UNL     1       3.132   5.192  19.555  0.00  0.00    +0.000 A 
BRANCH  13  14
ATOM     14  C   UNL     1       3.079   6.555  18.975  0.00  0.00    +0.000 C 
ATOM     15  O   UNL     1       2.375   6.830  18.013  0.00  0.00    +0.000 OA
ENDBRANCH  13  14
ENDBRANCH   7   8
BRANCH   1  17
ATOM     16  C   UNL     1       7.888   5.676  19.682  0.00  0.00    +0.000 C 
ATOM     17  O   UNL     1       6.708   4.915  19.444  0.00  0.00    +0.000 OA
ENDBRANCH   1  17
TORSDOF 3
ENDMDL
MODEL 6
REMARK VINA RESULT:      -6.7      2.288      5.035
REMARK  Name = 
REMARK  4 active torsions:
REMARK  status: ('A' for Active; 'I' for Inactive)
REMARK    1  A    between atoms: C_1  and  O_2
REMARK    2  A    between atoms: O_2  and  C_3
REMARK    3  A    between atoms: C_9  and  C_10
REMARK    4  A    between atoms: C_15  and  C_16
REMARK                            x       y       z     vdW  Elec       q    Type
REMARK                         _______ _______ _______ _____ _____    ______ ____
ROOT
ATOM      1  C   UNL     1       2.631   5.117  18.247  0.00  0.00    +0.000 A 
ATOM      2  C   UNL     1       1.448   4.813  18.947  0.00  0.00    +0.000 A 
ATOM      3  C   UNL     1       1.171   3.508  19.343  0.00  0.00    +0.000 A 
ATOM      4  C   UNL     1       2.089   2.512  19.068  0.00  0.00    +0.000 A 
ATOM      5  F   UNL     1       1.820   1.251  19.431  0.00  0.00    +0.000 F 
ATOM      6  C   UNL     1       3.287   2.798  18.417  0.00  0.00    +0.000 A 
ATOM      7  C   UNL     1       3.586   4.097  17.955  0.00  0.00    +0.000 A 
ENDROOT
BRANCH   7   8
ATOM      8  C   UNL     1       4.881   4.358  17.240  0.00  0.00    +0.000 A 
ATOM      9  C   UNL     1       4.985   4.065  15.860  0.00  0.00    +0.000 A 
ATOM     10  C   UNL     1       6.156   4.287  15.125  0.00  0.00    +0.000 A 
ATOM     11  C   UNL     1       7.259   4.866  15.735  0.00  0.00    +0.000 A 
ATOM     12  C   UNL     1       7.194   5.204  17.080  0.00  0.00    +0.000 A 
ATOM     13  C   UNL     1       6.034   4.934  17.834  0.00  0.00    +0.000 A 
BRANCH  13  14
ATOM     14  C   UNL     1       6.132   5.254  19.279  0.00  0.00    +0.000 C 
ATOM     15  O   UNL     1       7.206   5.342  19.857  0.00  0.00    +0.000 OA
ENDBRANCH  13  14
ENDBRANCH   7   8
BRANCH   1  17
ATOM     16  C   UNL     1       2.565   7.488  18.629  0.00  0.00    +0.000 C 
ATOM     17  O   UNL     1       2.911   6.386  17.797  0.00  0.00    +0.000 OA
ENDBRANCH   1  17
TORSDOF 3
ENDMDL
MODEL 7
REMARK VINA RESULT:      -6.7      2.044      2.434
REMARK  Name = 
REMARK  4 active torsions:
REMARK  status: ('A' for Active; 'I' for Inactive)
REMARK    1  A    between atoms: C_1  and  O_2
REMARK    2  A    between atoms: O_2  and  C_3
REMARK    3  A    between atoms: C_9  and  C_10
REMARK    4  A    between atoms: C_15  and  C_16
REMARK                            x       y       z     vdW  Elec       q    Type
REMARK                         _______ _______ _______ _____ _____    ______ ____
ROOT
ATOM      1  C   UNL     1       4.238   5.922  17.335  0.00  0.00    +0.000 A 
ATOM      2  C   UNL     1       5.153   6.508  16.440  0.00  0.00    +0.000 A 
ATOM      3  C   UNL     1       5.805   5.736  15.483  0.00  0.00    +0.000 A 
ATOM      4  C   UNL     1       5.519   4.385  15.398  0.00  0.00    +0.000 A 
ATOM      5  F   UNL     1       6.155   3.634  14.490  0.00  0.00    +0.000 F 
ATOM      6  C   UNL     1       4.582   3.795  16.243  0.00  0.00    +0.000 A 
ATOM      7  C   UNL     1       3.936   4.529  17.260  0.00  0.00    +0.000 A 
ENDROOT
BRANCH   7   8
ATOM      8  C   UNL     1       2.947   3.848  18.162  0.00  0.00    +0.000 A 
ATOM      9  C   UNL     1       1.566   3.930  17.868  0.00  0.00    +0.000 A 
ATOM     10  C   UNL     1       0.586   3.316  18.658  0.00  0.00    +0.000 A 
ATOM     11  C   UNL     1       0.956   2.544  19.748  0.00  0.00    +0.000 A 
ATOM     12  C   UNL     1       2.303   2.404  20.057  0.00  0.00    +0.000 A 
ATOM     13  C   UNL     1       3.288   3.064  19.294  0.00  0.00    +0.000 A 
BRANCH  13  14
ATOM     14  C   UNL     1       4.677   2.910  19.791  0.00  0.00    +0.000 C 
ATOM     15  O   UNL     1       5.034   1.943  20.449  0.00  0.00    +0.000 OA
ENDBRANCH  13  14
ENDBRANCH   7   8
BRANCH   1  17
ATOM     16  C   UNL     1       2.699   7.665  17.941  0.00  0.00    +0.000 C 
ATOM     17  O   UNL     1       3.616   6.646  18.325  0.00  0.00    +0.000 OA
ENDBRANCH   1  17
TORSDOF 3
ENDMDL
MODEL 8
REMARK VINA RESULT:      -6.7      2.305      5.203
REMARK  Name = 
REMARK  4 active torsions:
REMARK  status: ('A' for Active; 'I' for Inactive)
REMARK    1  A    between atoms: C_1  and  O_2
REMARK    2  A    between atoms: O_2  and  C_3
REMARK    3  A    between atoms: C_9  and  C_10
REMARK    4  A    between atoms: C_15  and  C_16
REMARK                            x       y       z     vdW  Elec       q    Type
REMARK                         _______ _______ _______ _____ _____    ______ ____
ROOT
ATOM      1  C   UNL     1       3.005   5.577  18.926  0.00  0.00    +0.000 A 
ATOM      2  C   UNL     1       2.045   5.539  19.955  0.00  0.00    +0.000 A 
ATOM      3  C   UNL     1       1.981   4.457  20.829  0.00  0.00    +0.000 A 
ATOM      4  C   UNL     1       2.896   3.429  20.695  0.00  0.00    +0.000 A 
ATOM      5  F   UNL     1       2.829   2.377  21.522  0.00  0.00    +0.000 F 
ATOM      6  C   UNL     1       3.883   3.469  19.714  0.00  0.00    +0.000 A 
ATOM      7  C   UNL     1       3.953   4.521  18.776  0.00  0.00    +0.000 A 
ENDROOT
BRANCH   7   8
ATOM      8  C   UNL     1       5.023   4.514  17.721  0.00  0.00    +0.000 A 
ATOM      9  C   UNL     1       4.760   3.912  16.468  0.00  0.00    +0.000 A 
ATOM     10  C   UNL     1       5.704   3.873  15.434  0.00  0.00    +0.000 A 
ATOM     11  C   UNL     1       6.936   4.487  15.596  0.00  0.00    +0.000 A 
ATOM     12  C   UNL     1       7.229   5.121  16.796  0.00  0.00    +0.000 A 
ATOM     13  C   UNL     1       6.300   5.118  17.856  0.00  0.00    +0.000 A 
BRANCH  13  14
ATOM     14  C   UNL     1       6.776   5.743  19.114  0.00  0.00    +0.000 C 
ATOM     15  O   UNL     1       7.283   5.093  20.017  0.00  0.00    +0.000 OA
ENDBRANCH  13  14
ENDBRANCH   7   8
BRANCH   1  17
ATOM     16  C   UNL     1       2.426   7.835  18.345  0.00  0.00    +0.000 C 
ATOM     17  O   UNL     1       3.063   6.605  18.015  0.00  0.00    +0.000 OA
ENDBRANCH   1  17
TORSDOF 3
ENDMDL
MODEL 9
REMARK VINA RESULT:      -6.7      2.814      3.844
REMARK  Name = 
REMARK  4 active torsions:
REMARK  status: ('A' for Active; 'I' for Inactive)
REMARK    1  A    between atoms: C_1  and  O_2
REMARK    2  A    between atoms: O_2  and  C_3
REMARK    3  A    between atoms: C_9  and  C_10
REMARK    4  A    between atoms: C_15  and  C_16
REMARK                            x       y       z     vdW  Elec       q    Type
REMARK                         _______ _______ _______ _____ _____    ______ ____
ROOT
ATOM      1  C   UNL     1       5.854   5.604  16.877  0.00  0.00    +0.000 A 
ATOM      2  C   UNL     1       7.123   6.211  16.940  0.00  0.00    +0.000 A 
ATOM      3  C   UNL     1       7.824   6.271  18.141  0.00  0.00    +0.000 A 
ATOM      4  C   UNL     1       7.272   5.699  19.273  0.00  0.00    +0.000 A 
ATOM      5  F   UNL     1       7.934   5.770  20.435  0.00  0.00    +0.000 F 
ATOM      6  C   UNL     1       6.039   5.054  19.223  0.00  0.00    +0.000 A 
ATOM      7  C   UNL     1       5.272   5.013  18.038  0.00  0.00    +0.000 A 
ENDROOT
BRANCH   7   8
ATOM      8  C   UNL     1       3.938   4.323  18.034  0.00  0.00    +0.000 A 
ATOM      9  C   UNL     1       3.878   2.924  17.830  0.00  0.00    +0.000 A 
ATOM     10  C   UNL     1       2.673   2.211  17.820  0.00  0.00    +0.000 A 
ATOM     11  C   UNL     1       1.477   2.867  18.070  0.00  0.00    +0.000 A 
ATOM     12  C   UNL     1       1.487   4.234  18.310  0.00  0.00    +0.000 A 
ATOM     13  C   UNL     1       2.693   4.962  18.270  0.00  0.00    +0.000 A 
BRANCH  13  14
ATOM     14  C   UNL     1       2.551   6.428  18.446  0.00  0.00    +0.000 C 
ATOM     15  O   UNL     1       2.354   6.940  19.539  0.00  0.00    +0.000 OA
ENDBRANCH  13  14
ENDBRANCH   7   8
BRANCH   1  17
ATOM     16  C   UNL     1       5.508   4.669  14.692  0.00  0.00    +0.000 C 
ATOM     17  O   UNL     1       5.113   5.573  15.719  0.00  0.00    +0.000 OA
ENDBRANCH   1  17
TORSDOF 3
ENDMDL
