MODEL 1
REMARK VINA RESULT:      -7.7      0.000      0.000
REMARK  Name = 
REMARK  7 active torsions:
REMARK  status: ('A' for Active; 'I' for Inactive)
REMARK    1  A    between atoms: C_1  and  C_2
REMARK    2  A    between atoms: C_2  and  O_3
REMARK    3  A    between atoms: O_3  and  C_4
REMARK    4  A    between atoms: C_10  and  C_12
REMARK    5  A    between atoms: C_12  and  C_13
REMARK    6  A    between atoms: C_13  and  C_14
REMARK    7  A    between atoms: C_23  and  C_24
REMARK                            x       y       z     vdW  Elec       q    Type
REMARK                         _______ _______ _______ _____ _____    ______ ____
ROOT
ATOM      1  C   UNL     1       3.851   4.076  19.555  0.00  0.00    +0.000 C 
ENDROOT
BRANCH   1   8
ATOM      2  C   UNL     1       6.992   4.759  14.003  0.00  0.00    +0.000 C 
ATOM      3  O   UNL     1       7.959   5.449  13.707  0.00  0.00    +0.000 OA
ATOM      4  N   UNL     1       6.670   4.407  15.295  0.00  0.00    +0.000 N 
ATOM      5  C   UNL     1       7.434   4.971  16.406  0.00  0.00    +0.000 C 
ATOM      6  C   UNL     1       6.511   5.759  17.346  0.00  0.00    +0.000 C 
ATOM      7  N   UNL     1       5.375   4.932  17.781  0.00  0.00    +0.000 N 
ATOM      8  C   UNL     1       5.003   4.960  19.116  0.00  0.00    +0.000 C 
ATOM      9  O   UNL     1       5.621   5.628  19.947  0.00  0.00    +0.000 OA
ATOM     10  C   UNL     1       4.602   4.337  16.676  0.00  0.00    +0.000 C 
ATOM     11  C   UNL     1       5.506   3.601  15.671  0.00  0.00    +0.000 C 
BRANCH   2  12
ATOM     12  O   UNL     1       6.069   4.326  13.103  0.00  0.00    +0.000 OA
BRANCH  12  14
ATOM     13  C   UNL     1       5.387   2.489  11.728  0.00  0.00    +0.000 C 
ATOM     14  C   UNL     1       6.553   3.363  12.157  0.00  0.00    +0.000 C 
ENDBRANCH  12  14
ENDBRANCH   2  12
ENDBRANCH   1   8
BRANCH   1  15
ATOM     15  C   UNL     1       2.513   4.646  19.081  0.00  0.00    +0.000 C 
BRANCH  15  16
ATOM     16  C   UNL     1       2.077   5.814  19.949  0.00  0.00    +0.000 C 
ATOM     17  O   UNL     1       1.890   5.606  21.150  0.00  0.00    +0.000 OA
ATOM     18  N   UNL     1       1.974   7.063  19.323  0.00  0.00    +0.000 N 
ATOM     19  C   UNL     1       2.235   7.253  17.888  0.00  0.00    +0.000 C 
ATOM     20  C   UNL     1       2.889   8.595  17.624  0.00  0.00    +0.000 C 
ATOM     21  O   UNL     1       2.044   9.666  18.030  0.00  0.00    +0.000 OA
ATOM     22  C   UNL     1       1.554   9.495  19.303  0.00  0.00    +0.000 A 
ATOM     23  C   UNL     1       1.073  10.670  19.889  0.00  0.00    +0.000 A 
ATOM     24  C   UNL     1       0.537  10.647  21.172  0.00  0.00    +0.000 A 
ATOM     25  C   UNL     1       0.473   9.443  21.875  0.00  0.00    +0.000 A 
ATOM     26  C   UNL     1      -0.122   9.390  23.253  0.00  0.00    +0.000 C 
ATOM     27  C   UNL     1       0.954   8.263  21.277  0.00  0.00    +0.000 A 
ATOM     28  C   UNL     1       1.502   8.259  19.985  0.00  0.00    +0.000 A 
ENDBRANCH  15  16
ENDBRANCH   1  15
TORSDOF 5
ENDMDL
MODEL 2
REMARK VINA RESULT:      -7.4      4.037      9.300
REMARK  Name = 
REMARK  7 active torsions:
REMARK  status: ('A' for Active; 'I' for Inactive)
REMARK    1  A    between atoms: C_1  and  C_2
REMARK    2  A    between atoms: C_2  and  O_3
REMARK    3  A    between atoms: O_3  and  C_4
REMARK    4  A    between atoms: C_10  and  C_12
REMARK    5  A    between atoms: C_12  and  C_13
REMARK    6  A    between atoms: C_13  and  C_14
REMARK    7  A    between atoms: C_23  and  C_24
REMARK                            x       y       z     vdW  Elec       q    Type
REMARK                         _______ _______ _______ _____ _____    ______ ____
ROOT
ATOM      1  C   UNL     1       1.144   9.366  17.790  0.00  0.00    +0.000 C 
ENDROOT
BRANCH   1   8
ATOM      2  C   UNL     1      -4.671  11.898  18.750  0.00  0.00    +0.000 C 
ATOM      3  O   UNL     1      -5.087  12.645  19.628  0.00  0.00    +0.000 OA
ATOM      4  N   UNL     1      -3.338  11.753  18.440  0.00  0.00    +0.000 N 
ATOM      5  C   UNL     1      -2.330  12.418  19.263  0.00  0.00    +0.000 C 
ATOM      6  C   UNL     1      -1.373  11.387  19.878  0.00  0.00    +0.000 C 
ATOM      7  N   UNL     1      -0.797  10.519  18.840  0.00  0.00    +0.000 N 
ATOM      8  C   UNL     1       0.558  10.234  18.888  0.00  0.00    +0.000 C 
ATOM      9  O   UNL     1       1.292  10.716  19.752  0.00  0.00    +0.000 OA
ATOM     10  C   UNL     1      -1.796   9.854  17.985  0.00  0.00    +0.000 C 
ATOM     11  C   UNL     1      -2.818  10.850  17.410  0.00  0.00    +0.000 C 
BRANCH   2  12
ATOM     12  O   UNL     1      -5.466  11.059  18.033  0.00  0.00    +0.000 OA
BRANCH  12  14
ATOM     13  C   UNL     1      -6.951   9.672  19.297  0.00  0.00    +0.000 C 
ATOM     14  C   UNL     1      -6.817  10.958  18.502  0.00  0.00    +0.000 C 
ENDBRANCH  12  14
ENDBRANCH   2  12
ENDBRANCH   1   8
BRANCH   1  15
ATOM     15  C   UNL     1       2.521   8.833  18.190  0.00  0.00    +0.000 C 
BRANCH  15  16
ATOM     16  C   UNL     1       2.413   7.455  18.821  0.00  0.00    +0.000 C 
ATOM     17  O   UNL     1       1.482   7.246  19.602  0.00  0.00    +0.000 OA
ATOM     18  N   UNL     1       3.356   6.501  18.419  0.00  0.00    +0.000 N 
ATOM     19  C   UNL     1       4.431   6.803  17.462  0.00  0.00    +0.000 C 
ATOM     20  C   UNL     1       4.726   5.611  16.575  0.00  0.00    +0.000 C 
ATOM     21  O   UNL     1       5.168   4.497  17.344  0.00  0.00    +0.000 OA
ATOM     22  C   UNL     1       4.345   4.239  18.416  0.00  0.00    +0.000 A 
ATOM     23  C   UNL     1       4.488   2.953  18.945  0.00  0.00    +0.000 A 
ATOM     24  C   UNL     1       3.728   2.555  20.039  0.00  0.00    +0.000 A 
ATOM     25  C   UNL     1       2.822   3.447  20.616  0.00  0.00    +0.000 A 
ATOM     26  C   UNL     1       2.007   3.047  21.811  0.00  0.00    +0.000 C 
ATOM     27  C   UNL     1       2.687   4.742  20.080  0.00  0.00    +0.000 A 
ATOM     28  C   UNL     1       3.441   5.169  18.975  0.00  0.00    +0.000 A 
ENDBRANCH  15  16
ENDBRANCH   1  15
TORSDOF 5
ENDMDL
MODEL 3
REMARK VINA RESULT:      -7.3      3.203      5.315
REMARK  Name = 
REMARK  7 active torsions:
REMARK  status: ('A' for Active; 'I' for Inactive)
REMARK    1  A    between atoms: C_1  and  C_2
REMARK    2  A    between atoms: C_2  and  O_3
REMARK    3  A    between atoms: O_3  and  C_4
REMARK    4  A    between atoms: C_10  and  C_12
REMARK    5  A    between atoms: C_12  and  C_13
REMARK    6  A    between atoms: C_13  and  C_14
REMARK    7  A    between atoms: C_23  and  C_24
REMARK                            x       y       z     vdW  Elec       q    Type
REMARK                         _______ _______ _______ _____ _____    ______ ____
ROOT
ATOM      1  C   UNL     1       1.279   8.444  21.359  0.00  0.00    +0.000 C 
ENDROOT
BRANCH   1   8
ATOM      2  C   UNL     1       4.147   3.892  17.866  0.00  0.00    +0.000 C 
ATOM      3  O   UNL     1       4.511   3.888  16.696  0.00  0.00    +0.000 OA
ATOM      4  N   UNL     1       3.914   5.041  18.589  0.00  0.00    +0.000 N 
ATOM      5  C   UNL     1       3.979   6.338  17.920  0.00  0.00    +0.000 C 
ATOM      6  C   UNL     1       2.634   7.069  18.034  0.00  0.00    +0.000 C 
ATOM      7  N   UNL     1       2.201   7.157  19.437  0.00  0.00    +0.000 N 
ATOM      8  C   UNL     1       1.688   8.358  19.901  0.00  0.00    +0.000 C 
ATOM      9  O   UNL     1       1.621   9.356  19.181  0.00  0.00    +0.000 OA
ATOM     10  C   UNL     1       2.148   5.862  20.137  0.00  0.00    +0.000 C 
ATOM     11  C   UNL     1       3.456   5.067  19.980  0.00  0.00    +0.000 C 
BRANCH   2  12
ATOM     12  O   UNL     1       3.845   2.767  18.567  0.00  0.00    +0.000 OA
BRANCH  12  14
ATOM     13  C   UNL     1       1.483   2.390  18.489  0.00  0.00    +0.000 C 
ATOM     14  C   UNL     1       2.837   1.937  17.974  0.00  0.00    +0.000 C 
ENDBRANCH  12  14
ENDBRANCH   2  12
ENDBRANCH   1   8
BRANCH   1  15
ATOM     15  C   UNL     1      -0.197   8.822  21.492  0.00  0.00    +0.000 C 
BRANCH  15  16
ATOM     16  C   UNL     1      -0.353  10.236  22.027  0.00  0.00    +0.000 C 
ATOM     17  O   UNL     1      -0.045  10.450  23.201  0.00  0.00    +0.000 OA
ATOM     18  N   UNL     1      -0.788  11.210  21.119  0.00  0.00    +0.000 N 
ATOM     19  C   UNL     1      -1.118  10.898  19.720  0.00  0.00    +0.000 C 
ATOM     20  C   UNL     1      -0.725  12.035  18.798  0.00  0.00    +0.000 C 
ATOM     21  O   UNL     1      -1.428  13.228  19.126  0.00  0.00    +0.000 OA
ATOM     22  C   UNL     1      -1.373  13.518  20.469  0.00  0.00    +0.000 A 
ATOM     23  C   UNL     1      -1.680  14.848  20.775  0.00  0.00    +0.000 A 
ATOM     24  C   UNL     1      -1.674  15.283  22.095  0.00  0.00    +0.000 A 
ATOM     25  C   UNL     1      -1.367  14.387  23.120  0.00  0.00    +0.000 A 
ATOM     26  C   UNL     1      -1.377  14.830  24.555  0.00  0.00    +0.000 C 
ATOM     27  C   UNL     1      -1.064  13.049  22.804  0.00  0.00    +0.000 A 
ATOM     28  C   UNL     1      -1.060  12.584  21.480  0.00  0.00    +0.000 A 
ENDBRANCH  15  16
ENDBRANCH   1  15
TORSDOF 5
ENDMDL
MODEL 4
REMARK VINA RESULT:      -7.3      4.046      5.934
REMARK  Name = 
REMARK  7 active torsions:
REMARK  status: ('A' for Active; 'I' for Inactive)
REMARK    1  A    between atoms: C_1  and  C_2
REMARK    2  A    between atoms: C_2  and  O_3
REMARK    3  A    between atoms: O_3  and  C_4
REMARK    4  A    between atoms: C_10  and  C_12
REMARK    5  A    between atoms: C_12  and  C_13
REMARK    6  A    between atoms: C_13  and  C_14
REMARK    7  A    between atoms: C_23  and  C_24
REMARK                            x       y       z     vdW  Elec       q    Type
REMARK                         _______ _______ _______ _____ _____    ______ ____
ROOT
ATOM      1  C   UNL     1       1.369   9.760  18.978  0.00  0.00    +0.000 C 
ENDROOT
BRANCH   1   8
ATOM      2  C   UNL     1       3.916   3.888  18.555  0.00  0.00    +0.000 C 
ATOM      3  O   UNL     1       3.867   2.934  19.322  0.00  0.00    +0.000 OA
ATOM      4  N   UNL     1       3.017   4.931  18.574  0.00  0.00    +0.000 N 
ATOM      5  C   UNL     1       2.011   4.994  19.631  0.00  0.00    +0.000 C 
ATOM      6  C   UNL     1       2.160   6.292  20.437  0.00  0.00    +0.000 C 
ATOM      7  N   UNL     1       2.148   7.466  19.551  0.00  0.00    +0.000 N 
ATOM      8  C   UNL     1       1.398   8.571  19.919  0.00  0.00    +0.000 C 
ATOM      9  O   UNL     1       0.717   8.580  20.946  0.00  0.00    +0.000 OA
ATOM     10  C   UNL     1       3.143   7.413  18.465  0.00  0.00    +0.000 C 
ATOM     11  C   UNL     1       3.072   6.091  17.681  0.00  0.00    +0.000 C 
BRANCH   2  12
ATOM     12  O   UNL     1       4.912   4.078  17.648  0.00  0.00    +0.000 OA
BRANCH  12  14
ATOM     13  C   UNL     1       7.157   4.674  17.070  0.00  0.00    +0.000 C 
ATOM     14  C   UNL     1       6.157   4.524  18.203  0.00  0.00    +0.000 C 
ENDBRANCH  12  14
ENDBRANCH   2  12
ENDBRANCH   1   8
BRANCH   1  15
ATOM     15  C   UNL     1       0.167   9.682  18.035  0.00  0.00    +0.000 C 
BRANCH  15  16
ATOM     16  C   UNL     1      -0.975  10.554  18.530  0.00  0.00    +0.000 C 
ATOM     17  O   UNL     1      -0.816  11.173  19.585  0.00  0.00    +0.000 OA
ATOM     18  N   UNL     1      -2.110  10.633  17.714  0.00  0.00    +0.000 N 
ATOM     19  C   UNL     1      -2.231   9.888  16.451  0.00  0.00    +0.000 C 
ATOM     20  C   UNL     1      -2.991  10.689  15.414  0.00  0.00    +0.000 C 
ATOM     21  O   UNL     1      -4.317  10.967  15.851  0.00  0.00    +0.000 OA
ATOM     22  C   UNL     1      -4.353  11.479  17.127  0.00  0.00    +0.000 A 
ATOM     23  C   UNL     1      -5.547  12.136  17.441  0.00  0.00    +0.000 A 
ATOM     24  C   UNL     1      -5.729  12.695  18.701  0.00  0.00    +0.000 A 
ATOM     25  C   UNL     1      -4.719  12.594  19.659  0.00  0.00    +0.000 A 
ATOM     26  C   UNL     1      -4.904  13.170  21.033  0.00  0.00    +0.000 C 
ATOM     27  C   UNL     1      -3.522  11.927  19.336  0.00  0.00    +0.000 A 
ATOM     28  C   UNL     1      -3.311  11.355  18.071  0.00  0.00    +0.000 A 
ENDBRANCH  15  16
ENDBRANCH   1  15
TORSDOF 5
ENDMDL
MODEL 5
REMARK VINA RESULT:      -7.2      3.277      9.345
REMARK  Name = 
REMARK  7 active torsions:
REMARK  status: ('A' for Active; 'I' for Inactive)
REMARK    1  A    between atoms: C_1  and  C_2
REMARK    2  A    between atoms: C_2  and  O_3
REMARK    3  A    between atoms: O_3  and  C_4
REMARK    4  A    between atoms: C_10  and  C_12
REMARK    5  A    between atoms: C_12  and  C_13
REMARK    6  A    between atoms: C_13  and  C_14
REMARK    7  A    between atoms: C_23  and  C_24
REMARK                            x       y       z     vdW  Elec       q    Type
REMARK                         _______ _______ _______ _____ _____    ______ ____
ROOT
ATOM      1  C   UNL     1       1.508   9.342  17.762  0.00  0.00    +0.000 C 
ENDROOT
BRANCH   1   8
ATOM      2  C   UNL     1      -2.472  13.483  20.618  0.00  0.00    +0.000 C 
ATOM      3  O   UNL     1      -2.325  14.662  20.918  0.00  0.00    +0.000 OA
ATOM      4  N   UNL     1      -1.710  12.834  19.673  0.00  0.00    +0.000 N 
ATOM      5  C   UNL     1      -0.578  13.527  19.061  0.00  0.00    +0.000 C 
ATOM      6  C   UNL     1       0.727  12.764  19.330  0.00  0.00    +0.000 C 
ATOM      7  N   UNL     1       0.610  11.359  18.913  0.00  0.00    +0.000 N 
ATOM      8  C   UNL     1       1.659  10.782  18.215  0.00  0.00    +0.000 C 
ATOM      9  O   UNL     1       2.663  11.425  17.905  0.00  0.00    +0.000 OA
ATOM     10  C   UNL     1      -0.538  10.646  19.503  0.00  0.00    +0.000 C 
ATOM     11  C   UNL     1      -1.854  11.420  19.317  0.00  0.00    +0.000 C 
BRANCH   2  12
ATOM     12  O   UNL     1      -3.346  12.649  21.242  0.00  0.00    +0.000 OA
BRANCH  12  14
ATOM     13  C   UNL     1      -2.103  11.772  23.091  0.00  0.00    +0.000 C 
ATOM     14  C   UNL     1      -3.268  12.653  22.674  0.00  0.00    +0.000 C 
ENDBRANCH  12  14
ENDBRANCH   2  12
ENDBRANCH   1   8
BRANCH   1  15
ATOM     15  C   UNL     1       2.826   8.580  17.912  0.00  0.00    +0.000 C 
BRANCH  15  16
ATOM     16  C   UNL     1       2.611   7.250  18.614  0.00  0.00    +0.000 C 
ATOM     17  O   UNL     1       1.655   7.148  19.385  0.00  0.00    +0.000 OA
ATOM     18  N   UNL     1       3.494   6.212  18.286  0.00  0.00    +0.000 N 
ATOM     19  C   UNL     1       4.604   6.388  17.337  0.00  0.00    +0.000 C 
ATOM     20  C   UNL     1       4.832   5.131  16.522  0.00  0.00    +0.000 C 
ATOM     21  O   UNL     1       5.181   4.034  17.360  0.00  0.00    +0.000 OA
ATOM     22  C   UNL     1       4.324   3.892  18.426  0.00  0.00    +0.000 A 
ATOM     23  C   UNL     1       4.368   2.630  19.026  0.00  0.00    +0.000 A 
ATOM     24  C   UNL     1       3.562   2.347  20.123  0.00  0.00    +0.000 A 
ATOM     25  C   UNL     1       2.711   3.328  20.631  0.00  0.00    +0.000 A 
ATOM     26  C   UNL     1       1.848   3.051  21.829  0.00  0.00    +0.000 C 
ATOM     27  C   UNL     1       2.675   4.598  20.024  0.00  0.00    +0.000 A 
ATOM     28  C   UNL     1       3.476   4.910  18.914  0.00  0.00    +0.000 A 
ENDBRANCH  15  16
ENDBRANCH   1  15
TORSDOF 5
ENDMDL
MODEL 6
REMARK VINA RESULT:      -7.1      3.248      5.493
REMARK  Name = 
REMARK  7 active torsions:
REMARK  status: ('A' for Active; 'I' for Inactive)
REMARK    1  A    between atoms: C_1  and  C_2
REMARK    2  A    between atoms: C_2  and  O_3
REMARK    3  A    between atoms: O_3  and  C_4
REMARK    4  A    between atoms: C_10  and  C_12
REMARK    5  A    between atoms: C_12  and  C_13
REMARK    6  A    between atoms: C_13  and  C_14
REMARK    7  A    between atoms: C_23  and  C_24
REMARK                            x       y       z     vdW  Elec       q    Type
REMARK                         _______ _______ _______ _____ _____    ______ ____
ROOT
ATOM      1  C   UNL     1       0.969   8.432  21.075  0.00  0.00    +0.000 C 
ENDROOT
BRANCH   1   8
ATOM      2  C   UNL     1       4.281   3.654  18.363  0.00  0.00    +0.000 C 
ATOM      3  O   UNL     1       4.804   3.565  17.258  0.00  0.00    +0.000 OA
ATOM      4  N   UNL     1       3.953   4.851  18.959  0.00  0.00    +0.000 N 
ATOM      5  C   UNL     1       4.114   6.096  18.210  0.00  0.00    +0.000 C 
ATOM      6  C   UNL     1       2.768   6.823  18.082  0.00  0.00    +0.000 C 
ATOM      7  N   UNL     1       2.145   7.013  19.401  0.00  0.00    +0.000 N 
ATOM      8  C   UNL     1       1.576   8.241  19.698  0.00  0.00    +0.000 C 
ATOM      9  O   UNL     1       1.612   9.182  18.903  0.00  0.00    +0.000 OA
ATOM     10  C   UNL     1       1.992   5.772  20.181  0.00  0.00    +0.000 C 
ATOM     11  C   UNL     1       3.307   4.979  20.268  0.00  0.00    +0.000 C 
BRANCH   2  12
ATOM     12  O   UNL     1       3.882   2.582  19.098  0.00  0.00    +0.000 OA
BRANCH  12  14
ATOM     13  C   UNL     1       1.571   2.251  18.567  0.00  0.00    +0.000 C 
ATOM     14  C   UNL     1       2.977   1.693  18.429  0.00  0.00    +0.000 C 
ENDBRANCH  12  14
ENDBRANCH   2  12
ENDBRANCH   1   8
BRANCH   1  15
ATOM     15  C   UNL     1       1.390   9.773  21.677  0.00  0.00    +0.000 C 
BRANCH  15  16
ATOM     16  C   UNL     1       0.201  10.495  22.288  0.00  0.00    +0.000 C 
ATOM     17  O   UNL     1      -0.134  10.194  23.436  0.00  0.00    +0.000 OA
ATOM     18  N   UNL     1      -0.397  11.498  21.514  0.00  0.00    +0.000 N 
ATOM     19  C   UNL     1       0.064  11.831  20.157  0.00  0.00    +0.000 C 
ATOM     20  C   UNL     1      -0.058  13.317  19.886  0.00  0.00    +0.000 C 
ATOM     21  O   UNL     1      -1.414  13.744  19.972  0.00  0.00    +0.000 OA
ATOM     22  C   UNL     1      -2.030  13.306  21.121  0.00  0.00    +0.000 A 
ATOM     23  C   UNL     1      -3.190  14.016  21.448  0.00  0.00    +0.000 A 
ATOM     24  C   UNL     1      -3.925  13.676  22.579  0.00  0.00    +0.000 A 
ATOM     25  C   UNL     1      -3.507  12.618  23.387  0.00  0.00    +0.000 A 
ATOM     26  C   UNL     1      -4.297  12.220  24.600  0.00  0.00    +0.000 C 
ATOM     27  C   UNL     1      -2.340  11.906  23.048  0.00  0.00    +0.000 A 
ATOM     28  C   UNL     1      -1.579  12.228  21.914  0.00  0.00    +0.000 A 
ENDBRANCH  15  16
ENDBRANCH   1  15
TORSDOF 5
ENDMDL
MODEL 7
REMARK VINA RESULT:      -7.0      3.812      9.705
REMARK  Name = 
REMARK  7 active torsions:
REMARK  status: ('A' for Active; 'I' for Inactive)
REMARK    1  A    between atoms: C_1  and  C_2
REMARK    2  A    between atoms: C_2  and  O_3
REMARK    3  A    between atoms: O_3  and  C_4
REMARK    4  A    between atoms: C_10  and  C_12
REMARK    5  A    between atoms: C_12  and  C_13
REMARK    6  A    between atoms: C_13  and  C_14
REMARK    7  A    between atoms: C_23  and  C_24
REMARK                            x       y       z     vdW  Elec       q    Type
REMARK                         _______ _______ _______ _____ _____    ______ ____
ROOT
ATOM      1  C   UNL     1       1.475   8.881  20.182  0.00  0.00    +0.000 C 
ENDROOT
BRANCH   1   8
ATOM      2  C   UNL     1      -3.703  12.654  19.868  0.00  0.00    +0.000 C 
ATOM      3  O   UNL     1      -4.202  13.405  20.699  0.00  0.00    +0.000 OA
ATOM      4  N   UNL     1      -2.399  12.217  19.919  0.00  0.00    +0.000 N 
ATOM      5  C   UNL     1      -1.572  12.551  21.077  0.00  0.00    +0.000 C 
ATOM      6  C   UNL     1      -1.081  11.273  21.772  0.00  0.00    +0.000 C 
ATOM      7  N   UNL     1      -0.410  10.379  20.815  0.00  0.00    +0.000 N 
ATOM      8  C   UNL     1       0.777   9.772  21.192  0.00  0.00    +0.000 C 
ATOM      9  O   UNL     1       1.299   9.991  22.287  0.00  0.00    +0.000 OA
ATOM     10  C   UNL     1      -1.219  10.046  19.629  0.00  0.00    +0.000 C 
ATOM     11  C   UNL     1      -1.790  11.302  18.950  0.00  0.00    +0.000 C 
BRANCH   2  12
ATOM     12  O   UNL     1      -4.399  12.093  18.843  0.00  0.00    +0.000 OA
BRANCH  12  14
ATOM     13  C   UNL     1      -6.566  11.326  18.176  0.00  0.00    +0.000 C 
ATOM     14  C   UNL     1      -5.777  12.483  18.764  0.00  0.00    +0.000 C 
ENDBRANCH  12  14
ENDBRANCH   2  12
ENDBRANCH   1   8
BRANCH   1  15
ATOM     15  C   UNL     1       1.530   7.434  20.674  0.00  0.00    +0.000 C 
BRANCH  15  16
ATOM     16  C   UNL     1       2.374   6.573  19.750  0.00  0.00    +0.000 C 
ATOM     17  O   UNL     1       3.223   7.131  19.051  0.00  0.00    +0.000 OA
ATOM     18  N   UNL     1       2.159   5.190  19.803  0.00  0.00    +0.000 N 
ATOM     19  C   UNL     1       1.146   4.579  20.678  0.00  0.00    +0.000 C 
ATOM     20  C   UNL     1       1.621   3.244  21.216  0.00  0.00    +0.000 C 
ATOM     21  O   UNL     1       1.857   2.320  20.159  0.00  0.00    +0.000 OA
ATOM     22  C   UNL     1       2.632   2.855  19.157  0.00  0.00    +0.000 A 
ATOM     23  C   UNL     1       3.222   1.899  18.324  0.00  0.00    +0.000 A 
ATOM     24  C   UNL     1       4.024   2.295  17.259  0.00  0.00    +0.000 A 
ATOM     25  C   UNL     1       4.235   3.653  17.017  0.00  0.00    +0.000 A 
ATOM     26  C   UNL     1       5.079   4.104  15.860  0.00  0.00    +0.000 C 
ATOM     27  C   UNL     1       3.634   4.610  17.858  0.00  0.00    +0.000 A 
ATOM     28  C   UNL     1       2.822   4.238  18.940  0.00  0.00    +0.000 A 
ENDBRANCH  15  16
ENDBRANCH   1  15
TORSDOF 5
ENDMDL
MODEL 8
REMARK VINA RESULT:      -7.0      3.407      9.455
REMARK  Name = 
REMARK  7 active torsions:
REMARK  status: ('A' for Active; 'I' for Inactive)
REMARK    1  A    between atoms: C_1  and  C_2
REMARK    2  A    between atoms: C_2  and  O_3
REMARK    3  A    between atoms: O_3  and  C_4
REMARK    4  A    between atoms: C_10  and  C_12
REMARK    5  A    between atoms: C_12  and  C_13
REMARK    6  A    between atoms: C_13  and  C_14
REMARK    7  A    between atoms: C_23  and  C_24
REMARK                            x       y       z     vdW  Elec       q    Type
REMARK                         _______ _______ _______ _____ _____    ______ ____
ROOT
ATOM      1  C   UNL     1       1.445   8.816  21.846  0.00  0.00    +0.000 C 
ENDROOT
BRANCH   1   8
ATOM      2  C   UNL     1      -0.795  14.633  20.335  0.00  0.00    +0.000 C 
ATOM      3  O   UNL     1      -1.702  15.297  20.823  0.00  0.00    +0.000 OA
ATOM      4  N   UNL     1      -0.167  13.598  20.990  0.00  0.00    +0.000 N 
ATOM      5  C   UNL     1      -0.665  13.163  22.293  0.00  0.00    +0.000 C 
ATOM      6  C   UNL     1      -1.082  11.686  22.242  0.00  0.00    +0.000 C 
ATOM      7  N   UNL     1       0.013  10.849  21.728  0.00  0.00    +0.000 N 
ATOM      8  C   UNL     1       0.292   9.651  22.367  0.00  0.00    +0.000 C 
ATOM      9  O   UNL     1      -0.327   9.292  23.370  0.00  0.00    +0.000 OA
ATOM     10  C   UNL     1       0.544  11.282  20.424  0.00  0.00    +0.000 C 
ATOM     11  C   UNL     1       0.903  12.779  20.415  0.00  0.00    +0.000 C 
BRANCH   2  12
ATOM     12  O   UNL     1      -0.356  14.781  19.056  0.00  0.00    +0.000 OA
BRANCH  12  14
ATOM     13  C   UNL     1       1.530  16.189  18.616  0.00  0.00    +0.000 C 
ATOM     14  C   UNL     1       0.015  16.119  18.695  0.00  0.00    +0.000 C 
ENDBRANCH  12  14
ENDBRANCH   2  12
ENDBRANCH   1   8
BRANCH   1  15
ATOM     15  C   UNL     1       0.937   7.642  21.008  0.00  0.00    +0.000 C 
BRANCH  15  16
ATOM     16  C   UNL     1       1.963   7.227  19.967  0.00  0.00    +0.000 C 
ATOM     17  O   UNL     1       2.537   8.114  19.333  0.00  0.00    +0.000 OA
ATOM     18  N   UNL     1       2.221   5.855  19.846  0.00  0.00    +0.000 N 
ATOM     19  C   UNL     1       1.519   4.843  20.650  0.00  0.00    +0.000 C 
ATOM     20  C   UNL     1       2.438   3.692  21.005  0.00  0.00    +0.000 C 
ATOM     21  O   UNL     1       2.905   3.030  19.834  0.00  0.00    +0.000 OA
ATOM     22  C   UNL     1       3.400   3.906  18.897  0.00  0.00    +0.000 A 
ATOM     23  C   UNL     1       4.224   3.306  17.939  0.00  0.00    +0.000 A 
ATOM     24  C   UNL     1       4.787   4.069  16.922  0.00  0.00    +0.000 A 
ATOM     25  C   UNL     1       4.523   5.438  16.853  0.00  0.00    +0.000 A 
ATOM     26  C   UNL     1       5.103   6.276  15.751  0.00  0.00    +0.000 C 
ATOM     27  C   UNL     1       3.689   6.033  17.819  0.00  0.00    +0.000 A 
ATOM     28  C   UNL     1       3.110   5.287  18.857  0.00  0.00    +0.000 A 
ENDBRANCH  15  16
ENDBRANCH   1  15
TORSDOF 5
ENDMDL
MODEL 9
REMARK VINA RESULT:      -7.0      3.532      5.755
REMARK  Name = 
REMARK  7 active torsions:
REMARK  status: ('A' for Active; 'I' for Inactive)
REMARK    1  A    between atoms: C_1  and  C_2
REMARK    2  A    between atoms: C_2  and  O_3
REMARK    3  A    between atoms: O_3  and  C_4
REMARK    4  A    between atoms: C_10  and  C_12
REMARK    5  A    between atoms: C_12  and  C_13
REMARK    6  A    between atoms: C_13  and  C_14
REMARK    7  A    between atoms: C_23  and  C_24
REMARK                            x       y       z     vdW  Elec       q    Type
REMARK                         _______ _______ _______ _____ _____    ______ ____
ROOT
ATOM      1  C   UNL     1       1.415   9.304  17.952  0.00  0.00    +0.000 C 
ENDROOT
BRANCH   1   8
ATOM      2  C   UNL     1       5.119   4.095  18.484  0.00  0.00    +0.000 C 
ATOM      3  O   UNL     1       5.278   3.314  19.415  0.00  0.00    +0.000 OA
ATOM      4  N   UNL     1       4.024   4.919  18.357  0.00  0.00    +0.000 N 
ATOM      5  C   UNL     1       3.038   4.978  19.434  0.00  0.00    +0.000 C 
ATOM      6  C   UNL     1       2.924   6.408  19.980  0.00  0.00    +0.000 C 
ATOM      7  N   UNL     1       2.659   7.365  18.895  0.00  0.00    +0.000 N 
ATOM      8  C   UNL     1       1.701   8.347  19.093  0.00  0.00    +0.000 C 
ATOM      9  O   UNL     1       1.045   8.413  20.134  0.00  0.00    +0.000 OA
ATOM     10  C   UNL     1       3.630   7.309  17.788  0.00  0.00    +0.000 C 
ATOM     11  C   UNL     1       3.826   5.876  17.265  0.00  0.00    +0.000 C 
BRANCH   2  12
ATOM     12  O   UNL     1       6.043   4.305  17.509  0.00  0.00    +0.000 OA
BRANCH  12  14
ATOM     13  C   UNL     1       7.399   6.278  17.530  0.00  0.00    +0.000 C 
ATOM     14  C   UNL     1       7.298   4.828  17.968  0.00  0.00    +0.000 C 
ENDBRANCH  12  14
ENDBRANCH   2  12
ENDBRANCH   1   8
BRANCH   1  15
ATOM     15  C   UNL     1       1.009  10.681  18.481  0.00  0.00    +0.000 C 
BRANCH  15  16
ATOM     16  C   UNL     1      -0.502  10.841  18.488  0.00  0.00    +0.000 C 
ATOM     17  O   UNL     1      -1.161  10.162  17.698  0.00  0.00    +0.000 OA
ATOM     18  N   UNL     1      -1.040  11.717  19.440  0.00  0.00    +0.000 N 
ATOM     19  C   UNL     1      -0.202  12.483  20.375  0.00  0.00    +0.000 C 
ATOM     20  C   UNL     1      -0.877  12.626  21.724  0.00  0.00    +0.000 C 
ATOM     21  O   UNL     1      -2.109  13.331  21.609  0.00  0.00    +0.000 OA
ATOM     22  C   UNL     1      -2.907  12.835  20.605  0.00  0.00    +0.000 A 
ATOM     23  C   UNL     1      -4.251  13.204  20.714  0.00  0.00    +0.000 A 
ATOM     24  C   UNL     1      -5.174  12.783  19.762  0.00  0.00    +0.000 A 
ATOM     25  C   UNL     1      -4.755  11.994  18.690  0.00  0.00    +0.000 A 
ATOM     26  C   UNL     1      -5.729  11.547  17.639  0.00  0.00    +0.000 C 
ATOM     27  C   UNL     1      -3.398  11.630  18.585  0.00  0.00    +0.000 A 
ATOM     28  C   UNL     1      -2.447  12.040  19.532  0.00  0.00    +0.000 A 
ENDBRANCH  15  16
ENDBRANCH   1  15
TORSDOF 5
ENDMDL
