MODEL 1
REMARK VINA RESULT:      -8.5      0.000      0.000
REMARK  Name = 
REMARK  7 active torsions:
REMARK  status: ('A' for Active; 'I' for Inactive)
REMARK    1  A    between atoms: C_1  and  O_2
REMARK    2  A    between atoms: O_2  and  C_3
REMARK    3  A    between atoms: C_8  and  C_9
REMARK    4  A    between atoms: C_10  and  C_11
REMARK    5  A    between atoms: C_11  and  C_12
REMARK    6  A    between atoms: C_14  and  C_15
REMARK    7  A    between atoms: C_21  and  N_22
REMARK                            x       y       z     vdW  Elec       q    Type
REMARK                         _______ _______ _______ _____ _____    ______ ____
ROOT
ATOM      1  C   UNL     1       0.206  12.602  19.199  0.00  0.00    +0.000 C 
ATOM      2  C   UNL     1       0.906  13.703  19.934  0.00  0.00    +0.000 C 
ATOM      3  C   UNL     1       0.201  14.476  20.791  0.00  0.00    +0.000 C 
ATOM      4  C   UNL     1       0.774  15.543  21.689  0.00  0.00    +0.000 C 
ATOM      5  O   UNL     1      -1.191  14.314  20.993  0.00  0.00    +0.000 OA
ATOM      6  C   UNL     1      -1.929  13.420  20.220  0.00  0.00    +0.000 A 
ATOM      7  N   UNL     1      -3.276  13.366  20.454  0.00  0.00    +0.000 NA
ATOM      8  C   UNL     1      -4.063  12.484  19.744  0.00  0.00    +0.000 A 
ATOM      9  C   UNL     1      -3.449  11.666  18.715  0.00  0.00    +0.000 A 
ATOM     10  C   UNL     1      -2.081  11.819  18.447  0.00  0.00    +0.000 A 
ATOM     11  C   UNL     1      -1.299  12.643  19.262  0.00  0.00    +0.000 A 
ATOM     12  C   UNL     1      -4.162  10.570  17.850  0.00  0.00    +0.000 C 
ATOM     13  C   UNL     1      -5.505  10.738  18.367  0.00  0.00    +0.000 C 
ATOM     14  C   UNL     1      -6.930  10.612  18.570  0.00  0.00    +0.000 C 
ATOM     15  C   UNL     1      -7.010  11.707  19.710  0.00  0.00    +0.000 C 
ATOM     16  C   UNL     1      -5.622  12.575  20.156  0.00  0.00    +0.000 C 
ENDROOT
BRANCH   1  22
ATOM     17  C   UNL     1       2.458   6.500  19.330  0.00  0.00    +0.000 A 
ATOM     18  C   UNL     1       2.736   7.058  18.084  0.00  0.00    +0.000 A 
ATOM     19  C   UNL     1       2.410   8.386  17.826  0.00  0.00    +0.000 A 
ATOM     20  C   UNL     1       1.791   9.158  18.818  0.00  0.00    +0.000 A 
ATOM     21  C   UNL     1       1.439  10.483  18.592  0.00  0.00    +0.000 A 
ATOM     22  C   UNL     1       0.729  11.213  19.565  0.00  0.00    +0.000 A 
ATOM     23  C   UNL     1       0.478  10.549  20.768  0.00  0.00    +0.000 A 
ATOM     24 CL   UNL     1      -0.366  11.222  22.103  0.00  0.00    +0.000 Cl
ATOM     25  N   UNL     1       0.856   9.281  21.030  0.00  0.00    +0.000 NA
ATOM     26  C   UNL     1       1.482   8.593  20.070  0.00  0.00    +0.000 A 
ATOM     27  C   UNL     1       1.834   7.274  20.309  0.00  0.00    +0.000 A 
BRANCH  17  29
ATOM     28  C   UNL     1       4.221   4.914  19.297  0.00  0.00    +0.000 C 
ATOM     29  O   UNL     1       2.835   5.193  19.471  0.00  0.00    +0.000 OA
ENDBRANCH  17  29
ENDBRANCH   1  22
BRANCH   2  30
ATOM     30  C   UNL     1       2.402  13.812  19.684  0.00  0.00    +0.000 C 
ATOM     31  C   UNL     1       2.923  14.065  18.280  0.00  0.00    +0.000 C 
ATOM     32  O   UNL     1       3.223  13.647  20.585  0.00  0.00    +0.000 OA
ENDBRANCH   2  30
BRANCH  10  33
ATOM     33  N   UNL     1      -1.547  11.184  17.316  0.00  0.00    +0.000 N 
ATOM     34  H   UNL     1      -2.108  11.246  16.476  0.00  0.00    +0.000 HD
ATOM     35  H   UNL     1      -1.064  10.306  17.417  0.00  0.00    +0.000 HD
ENDBRANCH  10  33
TORSDOF 4
ENDMDL
MODEL 2
REMARK VINA RESULT:      -7.4      1.162      1.317
REMARK  Name = 
REMARK  7 active torsions:
REMARK  status: ('A' for Active; 'I' for Inactive)
REMARK    1  A    between atoms: C_1  and  O_2
REMARK    2  A    between atoms: O_2  and  C_3
REMARK    3  A    between atoms: C_8  and  C_9
REMARK    4  A    between atoms: C_10  and  C_11
REMARK    5  A    between atoms: C_11  and  C_12
REMARK    6  A    between atoms: C_14  and  C_15
REMARK    7  A    between atoms: C_21  and  N_22
REMARK                            x       y       z     vdW  Elec       q    Type
REMARK                         _______ _______ _______ _____ _____    ______ ____
ROOT
ATOM      1  C   UNL     1      -0.404  13.329  19.870  0.00  0.00    +0.000 C 
ATOM      2  C   UNL     1       0.322  14.403  20.621  0.00  0.00    +0.000 C 
ATOM      3  C   UNL     1      -0.324  15.074  21.602  0.00  0.00    +0.000 C 
ATOM      4  C   UNL     1       0.294  16.094  22.524  0.00  0.00    +0.000 C 
ATOM      5  O   UNL     1      -1.682  14.832  21.923  0.00  0.00    +0.000 OA
ATOM      6  C   UNL     1      -2.458  13.967  21.154  0.00  0.00    +0.000 A 
ATOM      7  N   UNL     1      -3.771  13.831  21.512  0.00  0.00    +0.000 NA
ATOM      8  C   UNL     1      -4.590  12.971  20.812  0.00  0.00    +0.000 A 
ATOM      9  C   UNL     1      -4.050  12.265  19.665  0.00  0.00    +0.000 A 
ATOM     10  C   UNL     1      -2.723  12.501  19.280  0.00  0.00    +0.000 A 
ATOM     11  C   UNL     1      -1.897  13.295  20.080  0.00  0.00    +0.000 A 
ATOM     12  C   UNL     1      -4.803  11.207  18.787  0.00  0.00    +0.000 C 
ATOM     13  C   UNL     1      -6.094  11.271  19.442  0.00  0.00    +0.000 C 
ATOM     14  C   UNL     1      -7.485  11.063  19.772  0.00  0.00    +0.000 C 
ATOM     15  C   UNL     1      -7.494  12.063  20.999  0.00  0.00    +0.000 C 
ATOM     16  C   UNL     1      -6.103  12.958  21.377  0.00  0.00    +0.000 C 
ENDROOT
BRANCH   1  22
ATOM     17  C   UNL     1       2.125   7.365  19.284  0.00  0.00    +0.000 A 
ATOM     18  C   UNL     1       2.287   8.045  18.079  0.00  0.00    +0.000 A 
ATOM     19  C   UNL     1       1.883   9.372  17.967  0.00  0.00    +0.000 A 
ATOM     20  C   UNL     1       1.303  10.020  19.066  0.00  0.00    +0.000 A 
ATOM     21  C   UNL     1       0.876  11.340  18.987  0.00  0.00    +0.000 A 
ATOM     22  C   UNL     1       0.206  11.943  20.069  0.00  0.00    +0.000 A 
ATOM     23  C   UNL     1       0.072  11.162  21.220  0.00  0.00    +0.000 A 
ATOM     24 CL   UNL     1      -0.703  11.670  22.666  0.00  0.00    +0.000 Cl
ATOM     25  N   UNL     1       0.526   9.897  21.338  0.00  0.00    +0.000 NA
ATOM     26  C   UNL     1       1.112   9.331  20.278  0.00  0.00    +0.000 A 
ATOM     27  C   UNL     1       1.539   8.016  20.370  0.00  0.00    +0.000 A 
BRANCH  17  29
ATOM     28  C   UNL     1       2.581   5.415  18.015  0.00  0.00    +0.000 C 
ATOM     29  O   UNL     1       2.571   6.072  19.278  0.00  0.00    +0.000 OA
ENDBRANCH  17  29
ENDBRANCH   1  22
BRANCH   2  30
ATOM     30  C   UNL     1       1.780  14.600  20.237  0.00  0.00    +0.000 C 
ATOM     31  C   UNL     1       2.880  14.011  21.102  0.00  0.00    +0.000 C 
ATOM     32  O   UNL     1       2.108  15.276  19.264  0.00  0.00    +0.000 OA
ENDBRANCH   2  30
BRANCH  10  33
ATOM     33  N   UNL     1      -2.280  11.980  18.055  0.00  0.00    +0.000 N 
ATOM     34  H   UNL     1      -1.276  11.896  17.956  0.00  0.00    +0.000 HD
ATOM     35  H   UNL     1      -2.751  12.237  17.203  0.00  0.00    +0.000 HD
ENDBRANCH  10  33
TORSDOF 4
ENDMDL
MODEL 3
REMARK VINA RESULT:      -7.1      1.920      6.842
REMARK  Name = 
REMARK  7 active torsions:
REMARK  status: ('A' for Active; 'I' for Inactive)
REMARK    1  A    between atoms: C_1  and  O_2
REMARK    2  A    between atoms: O_2  and  C_3
REMARK    3  A    between atoms: C_8  and  C_9
REMARK    4  A    between atoms: C_10  and  C_11
REMARK    5  A    between atoms: C_11  and  C_12
REMARK    6  A    between atoms: C_14  and  C_15
REMARK    7  A    between atoms: C_21  and  N_22
REMARK                            x       y       z     vdW  Elec       q    Type
REMARK                         _______ _______ _______ _____ _____    ______ ____
ROOT
ATOM      1  C   UNL     1       0.437  12.373  20.305  0.00  0.00    +0.000 C 
ATOM      2  C   UNL     1       0.994  13.547  19.561  0.00  0.00    +0.000 C 
ATOM      3  C   UNL     1       1.825  13.331  18.515  0.00  0.00    +0.000 C 
ATOM      4  C   UNL     1       2.375  14.391  17.596  0.00  0.00    +0.000 C 
ATOM      5  O   UNL     1       2.226  12.033  18.117  0.00  0.00    +0.000 OA
ATOM      6  C   UNL     1       1.876  10.912  18.867  0.00  0.00    +0.000 A 
ATOM      7  N   UNL     1       2.348   9.704  18.431  0.00  0.00    +0.000 NA
ATOM      8  C   UNL     1       2.017   8.550  19.110  0.00  0.00    +0.000 A 
ATOM      9  C   UNL     1       1.216   8.650  20.315  0.00  0.00    +0.000 A 
ATOM     10  C   UNL     1       0.829   9.916  20.776  0.00  0.00    +0.000 A 
ATOM     11  C   UNL     1       1.091  11.049  20.000  0.00  0.00    +0.000 A 
ATOM     12  C   UNL     1       0.692   7.454  21.184  0.00  0.00    +0.000 C 
ATOM     13  C   UNL     1       1.311   6.372  20.445  0.00  0.00    +0.000 C 
ATOM     14  C   UNL     1       1.757   5.060  20.035  0.00  0.00    +0.000 C 
ATOM     15  C   UNL     1       2.563   5.570  18.772  0.00  0.00    +0.000 C 
ATOM     16  C   UNL     1       2.677   7.232  18.449  0.00  0.00    +0.000 C 
ENDROOT
BRANCH   1  22
ATOM     17  C   UNL     1      -5.782  11.962  18.443  0.00  0.00    +0.000 A 
ATOM     18  C   UNL     1      -4.968  11.550  17.391  0.00  0.00    +0.000 A 
ATOM     19  C   UNL     1      -3.588  11.485  17.561  0.00  0.00    +0.000 A 
ATOM     20  C   UNL     1      -3.019  11.846  18.790  0.00  0.00    +0.000 A 
ATOM     21  C   UNL     1      -1.645  11.805  18.992  0.00  0.00    +0.000 A 
ATOM     22  C   UNL     1      -1.084  12.266  20.200  0.00  0.00    +0.000 A 
ATOM     23  C   UNL     1      -1.990  12.683  21.177  0.00  0.00    +0.000 A 
ATOM     24 CL   UNL     1      -1.555  13.284  22.727  0.00  0.00    +0.000 Cl
ATOM     25  N   UNL     1      -3.330  12.681  21.023  0.00  0.00    +0.000 NA
ATOM     26  C   UNL     1      -3.834  12.289  19.849  0.00  0.00    +0.000 A 
ATOM     27  C   UNL     1      -5.206  12.327  19.660  0.00  0.00    +0.000 A 
BRANCH  17  29
ATOM     28  C   UNL     1      -7.767  13.241  18.220  0.00  0.00    +0.000 C 
ATOM     29  O   UNL     1      -7.121  11.974  18.162  0.00  0.00    +0.000 OA
ENDBRANCH  17  29
ENDBRANCH   1  22
BRANCH   2  30
ATOM     30  C   UNL     1       0.511  14.910  20.030  0.00  0.00    +0.000 C 
ATOM     31  C   UNL     1      -0.485  15.693  19.193  0.00  0.00    +0.000 C 
ATOM     32  O   UNL     1       0.946  15.435  21.054  0.00  0.00    +0.000 OA
ENDBRANCH   2  30
BRANCH  10  33
ATOM     33  N   UNL     1       0.242  10.014  22.046  0.00  0.00    +0.000 N 
ATOM     34  H   UNL     1       0.317  10.921  22.491  0.00  0.00    +0.000 HD
ATOM     35  H   UNL     1       0.306   9.242  22.688  0.00  0.00    +0.000 HD
ENDBRANCH  10  33
TORSDOF 4
ENDMDL
MODEL 4
REMARK VINA RESULT:      -7.1      3.596      6.920
REMARK  Name = 
REMARK  7 active torsions:
REMARK  status: ('A' for Active; 'I' for Inactive)
REMARK    1  A    between atoms: C_1  and  O_2
REMARK    2  A    between atoms: O_2  and  C_3
REMARK    3  A    between atoms: C_8  and  C_9
REMARK    4  A    between atoms: C_10  and  C_11
REMARK    5  A    between atoms: C_11  and  C_12
REMARK    6  A    between atoms: C_14  and  C_15
REMARK    7  A    between atoms: C_21  and  N_22
REMARK                            x       y       z     vdW  Elec       q    Type
REMARK                         _______ _______ _______ _____ _____    ______ ____
ROOT
ATOM      1  C   UNL     1      -0.270  14.076  20.418  0.00  0.00    +0.000 C 
ATOM      2  C   UNL     1      -0.883  14.639  21.663  0.00  0.00    +0.000 C 
ATOM      3  C   UNL     1      -0.903  13.886  22.787  0.00  0.00    +0.000 C 
ATOM      4  C   UNL     1      -1.374  14.344  24.144  0.00  0.00    +0.000 C 
ATOM      5  O   UNL     1      -0.404  12.562  22.825  0.00  0.00    +0.000 OA
ATOM      6  C   UNL     1       0.026  11.923  21.663  0.00  0.00    +0.000 A 
ATOM      7  N   UNL     1       0.448  10.628  21.790  0.00  0.00    +0.000 NA
ATOM      8  C   UNL     1       0.913   9.945  20.687  0.00  0.00    +0.000 A 
ATOM      9  C   UNL     1       0.890  10.601  19.393  0.00  0.00    +0.000 A 
ATOM     10  C   UNL     1       0.366  11.898  19.294  0.00  0.00    +0.000 A 
ATOM     11  C   UNL     1       0.008  12.595  20.452  0.00  0.00    +0.000 A 
ATOM     12  C   UNL     1       1.429  10.014  18.043  0.00  0.00    +0.000 C 
ATOM     13  C   UNL     1       1.826   8.707  18.528  0.00  0.00    +0.000 C 
ATOM     14  C   UNL     1       2.304   7.345  18.587  0.00  0.00    +0.000 C 
ATOM     15  C   UNL     1       2.064   7.175  20.142  0.00  0.00    +0.000 C 
ATOM     16  C   UNL     1       1.354   8.431  21.035  0.00  0.00    +0.000 C 
ENDROOT
BRANCH   1  22
ATOM     17  C   UNL     1       5.490  17.021  19.742  0.00  0.00    +0.000 A 
ATOM     18  C   UNL     1       5.597  16.041  20.726  0.00  0.00    +0.000 A 
ATOM     19  C   UNL     1       4.510  15.221  21.014  0.00  0.00    +0.000 A 
ATOM     20  C   UNL     1       3.304  15.391  20.321  0.00  0.00    +0.000 A 
ATOM     21  C   UNL     1       2.194  14.600  20.591  0.00  0.00    +0.000 A 
ATOM     22  C   UNL     1       0.963  14.851  19.955  0.00  0.00    +0.000 A 
ATOM     23  C   UNL     1       0.960  15.876  19.006  0.00  0.00    +0.000 A 
ATOM     24 CL   UNL     1      -0.413  16.371  18.100  0.00  0.00    +0.000 Cl
ATOM     25  N   UNL     1       2.038  16.622  18.689  0.00  0.00    +0.000 NA
ATOM     26  C   UNL     1       3.181  16.398  19.345  0.00  0.00    +0.000 A 
ATOM     27  C   UNL     1       4.283  17.189  19.063  0.00  0.00    +0.000 A 
BRANCH  17  29
ATOM     28  C   UNL     1       7.589  17.195  18.651  0.00  0.00    +0.000 C 
ATOM     29  O   UNL     1       6.626  17.756  19.538  0.00  0.00    +0.000 OA
ENDBRANCH  17  29
ENDBRANCH   1  22
BRANCH   2  30
ATOM     30  C   UNL     1      -1.385  16.071  21.558  0.00  0.00    +0.000 C 
ATOM     31  C   UNL     1      -2.709  16.364  20.876  0.00  0.00    +0.000 C 
ATOM     32  O   UNL     1      -0.720  17.021  21.966  0.00  0.00    +0.000 OA
ENDBRANCH   2  30
BRANCH  10  33
ATOM     33  N   UNL     1       0.154  12.438  18.017  0.00  0.00    +0.000 N 
ATOM     34  H   UNL     1      -0.229  13.375  17.999  0.00  0.00    +0.000 HD
ATOM     35  H   UNL     1      -0.183  11.848  17.274  0.00  0.00    +0.000 HD
ENDBRANCH  10  33
TORSDOF 4
ENDMDL
MODEL 5
REMARK VINA RESULT:      -6.9      2.684      7.060
REMARK  Name = 
REMARK  7 active torsions:
REMARK  status: ('A' for Active; 'I' for Inactive)
REMARK    1  A    between atoms: C_1  and  O_2
REMARK    2  A    between atoms: O_2  and  C_3
REMARK    3  A    between atoms: C_8  and  C_9
REMARK    4  A    between atoms: C_10  and  C_11
REMARK    5  A    between atoms: C_11  and  C_12
REMARK    6  A    between atoms: C_14  and  C_15
REMARK    7  A    between atoms: C_21  and  N_22
REMARK                            x       y       z     vdW  Elec       q    Type
REMARK                         _______ _______ _______ _____ _____    ______ ____
ROOT
ATOM      1  C   UNL     1      -0.222  11.518  20.035  0.00  0.00    +0.000 C 
ATOM      2  C   UNL     1      -1.084  11.820  21.221  0.00  0.00    +0.000 C 
ATOM      3  C   UNL     1      -1.065  10.981  22.282  0.00  0.00    +0.000 C 
ATOM      4  C   UNL     1      -1.780  11.201  23.591  0.00  0.00    +0.000 C 
ATOM      5  O   UNL     1      -0.291   9.796  22.301  0.00  0.00    +0.000 OA
ATOM      6  C   UNL     1       0.402   9.373  21.168  0.00  0.00    +0.000 A 
ATOM      7  N   UNL     1       1.084   8.191  21.266  0.00  0.00    +0.000 NA
ATOM      8  C   UNL     1       1.814   7.727  20.192  0.00  0.00    +0.000 A 
ATOM      9  C   UNL     1       1.795   8.479  18.952  0.00  0.00    +0.000 A 
ATOM     10  C   UNL     1       1.009   9.638  18.868  0.00  0.00    +0.000 A 
ATOM     11  C   UNL     1       0.374  10.133  20.010  0.00  0.00    +0.000 A 
ATOM     12  C   UNL     1       2.602   8.147  17.650  0.00  0.00    +0.000 C 
ATOM     13  C   UNL     1       3.223   6.916  18.099  0.00  0.00    +0.000 C 
ATOM     14  C   UNL     1       3.983   5.687  18.133  0.00  0.00    +0.000 C 
ATOM     15  C   UNL     1       3.609   5.329  19.629  0.00  0.00    +0.000 C 
ATOM     16  C   UNL     1       2.538   6.316  20.499  0.00  0.00    +0.000 C 
ENDROOT
BRANCH   1  22
ATOM     17  C   UNL     1       4.606  15.862  20.396  0.00  0.00    +0.000 A 
ATOM     18  C   UNL     1       4.715  14.975  21.465  0.00  0.00    +0.000 A 
ATOM     19  C   UNL     1       3.831  13.906  21.578  0.00  0.00    +0.000 A 
ATOM     20  C   UNL     1       2.825  13.729  20.619  0.00  0.00    +0.000 A 
ATOM     21  C   UNL     1       1.917  12.681  20.706  0.00  0.00    +0.000 A 
ATOM     22  C   UNL     1       0.852  12.577  19.790  0.00  0.00    +0.000 A 
ATOM     23  C   UNL     1       0.820  13.534  18.774  0.00  0.00    +0.000 A 
ATOM     24 CL   UNL     1      -0.372  13.620  17.541  0.00  0.00    +0.000 Cl
ATOM     25  N   UNL     1       1.722  14.529  18.638  0.00  0.00    +0.000 NA
ATOM     26  C   UNL     1       2.692  14.637  19.551  0.00  0.00    +0.000 A 
ATOM     27  C   UNL     1       3.596  15.683  19.451  0.00  0.00    +0.000 A 
BRANCH  17  29
ATOM     28  C   UNL     1       6.193  17.102  19.143  0.00  0.00    +0.000 C 
ATOM     29  O   UNL     1       5.537  16.864  20.384  0.00  0.00    +0.000 OA
ENDBRANCH  17  29
ENDBRANCH   1  22
BRANCH   2  30
ATOM     30  C   UNL     1      -1.877  13.116  21.143  0.00  0.00    +0.000 C 
ATOM     31  C   UNL     1      -3.240  13.134  20.474  0.00  0.00    +0.000 C 
ATOM     32  O   UNL     1      -1.424  14.179  21.563  0.00  0.00    +0.000 OA
ENDBRANCH   2  30
BRANCH  10  33
ATOM     33  N   UNL     1       0.831  10.235  17.611  0.00  0.00    +0.000 N 
ATOM     34  H   UNL     1       1.026  11.228  17.569  0.00  0.00    +0.000 HD
ATOM     35  H   UNL     1       0.064   9.947  17.025  0.00  0.00    +0.000 HD
ENDBRANCH  10  33
TORSDOF 4
ENDMDL
MODEL 6
REMARK VINA RESULT:      -6.7      4.341      6.403
REMARK  Name = 
REMARK  7 active torsions:
REMARK  status: ('A' for Active; 'I' for Inactive)
REMARK    1  A    between atoms: C_1  and  O_2
REMARK    2  A    between atoms: O_2  and  C_3
REMARK    3  A    between atoms: C_8  and  C_9
REMARK    4  A    between atoms: C_10  and  C_11
REMARK    5  A    between atoms: C_11  and  C_12
REMARK    6  A    between atoms: C_14  and  C_15
REMARK    7  A    between atoms: C_21  and  N_22
REMARK                            x       y       z     vdW  Elec       q    Type
REMARK                         _______ _______ _______ _____ _____    ______ ____
ROOT
ATOM      1  C   UNL     1       1.568  15.402  19.631  0.00  0.00    +0.000 C 
ATOM      2  C   UNL     1       1.180  16.716  20.236  0.00  0.00    +0.000 C 
ATOM      3  C   UNL     1       0.516  16.730  21.414  0.00  0.00    +0.000 C 
ATOM      4  C   UNL     1       0.158  17.961  22.208  0.00  0.00    +0.000 C 
ATOM      5  O   UNL     1       0.131  15.544  22.085  0.00  0.00    +0.000 OA
ATOM      6  C   UNL     1       0.315  14.295  21.495  0.00  0.00    +0.000 A 
ATOM      7  N   UNL     1      -0.130  13.208  22.198  0.00  0.00    +0.000 NA
ATOM      8  C   UNL     1       0.044  11.940  21.687  0.00  0.00    +0.000 A 
ATOM      9  C   UNL     1       0.650  11.787  20.378  0.00  0.00    +0.000 A 
ATOM     10  C   UNL     1       1.010  12.932  19.654  0.00  0.00    +0.000 A 
ATOM     11  C   UNL     1       0.918  14.192  20.252  0.00  0.00    +0.000 A 
ATOM     12  C   UNL     1       0.984  10.434  19.660  0.00  0.00    +0.000 C 
ATOM     13  C   UNL     1       0.447   9.530  20.658  0.00  0.00    +0.000 C 
ATOM     14  C   UNL     1       0.019   8.336  21.349  0.00  0.00    +0.000 C 
ATOM     15  C   UNL     1      -0.559   9.098  22.610  0.00  0.00    +0.000 C 
ATOM     16  C   UNL     1      -0.555  10.794  22.655  0.00  0.00    +0.000 C 
ENDROOT
BRANCH   1  22
ATOM     17  C   UNL     1       7.976  14.858  20.606  0.00  0.00    +0.000 A 
ATOM     18  C   UNL     1       7.315  14.645  21.814  0.00  0.00    +0.000 A 
ATOM     19  C   UNL     1       5.924  14.645  21.858  0.00  0.00    +0.000 A 
ATOM     20  C   UNL     1       5.189  14.870  20.686  0.00  0.00    +0.000 A 
ATOM     21  C   UNL     1       3.800  14.889  20.694  0.00  0.00    +0.000 A 
ATOM     22  C   UNL     1       3.081  15.215  19.528  0.00  0.00    +0.000 A 
ATOM     23  C   UNL     1       3.843  15.438  18.379  0.00  0.00    +0.000 A 
ATOM     24 CL   UNL     1       3.201  15.848  16.840  0.00  0.00    +0.000 Cl
ATOM     25  N   UNL     1       5.189  15.372  18.335  0.00  0.00    +0.000 NA
ATOM     26  C   UNL     1       5.850  15.113  19.467  0.00  0.00    +0.000 A 
ATOM     27  C   UNL     1       7.236  15.090  19.446  0.00  0.00    +0.000 A 
BRANCH  17  29
ATOM     28  C   UNL     1       9.899  13.821  21.528  0.00  0.00    +0.000 C 
ATOM     29  O   UNL     1       9.341  14.823  20.684  0.00  0.00    +0.000 OA
ENDBRANCH  17  29
ENDBRANCH   1  22
BRANCH   2  30
ATOM     30  C   UNL     1       1.637  17.950  19.473  0.00  0.00    +0.000 C 
ATOM     31  C   UNL     1       0.920  18.368  18.202  0.00  0.00    +0.000 C 
ATOM     32  O   UNL     1       2.617  18.603  19.827  0.00  0.00    +0.000 OA
ENDBRANCH   2  30
BRANCH  10  33
ATOM     33  N   UNL     1       1.395  12.783  18.313  0.00  0.00    +0.000 N 
ATOM     34  H   UNL     1       1.136  13.545  17.699  0.00  0.00    +0.000 HD
ATOM     35  H   UNL     1       1.346  11.876  17.877  0.00  0.00    +0.000 HD
ENDBRANCH  10  33
TORSDOF 4
ENDMDL
MODEL 7
REMARK VINA RESULT:      -6.7      2.124      3.069
REMARK  Name = 
REMARK  7 active torsions:
REMARK  status: ('A' for Active; 'I' for Inactive)
REMARK    1  A    between atoms: C_1  and  O_2
REMARK    2  A    between atoms: O_2  and  C_3
REMARK    3  A    between atoms: C_8  and  C_9
REMARK    4  A    between atoms: C_10  and  C_11
REMARK    5  A    between atoms: C_11  and  C_12
REMARK    6  A    between atoms: C_14  and  C_15
REMARK    7  A    between atoms: C_21  and  N_22
REMARK                            x       y       z     vdW  Elec       q    Type
REMARK                         _______ _______ _______ _____ _____    ______ ____
ROOT
ATOM      1  C   UNL     1      -1.143  13.921  20.463  0.00  0.00    +0.000 C 
ATOM      2  C   UNL     1      -0.075  14.809  21.023  0.00  0.00    +0.000 C 
ATOM      3  C   UNL     1      -0.219  15.306  22.273  0.00  0.00    +0.000 C 
ATOM      4  C   UNL     1       0.810  16.114  23.023  0.00  0.00    +0.000 C 
ATOM      5  O   UNL     1      -1.367  15.057  23.064  0.00  0.00    +0.000 OA
ATOM      6  C   UNL     1      -2.466  14.378  22.540  0.00  0.00    +0.000 A 
ATOM      7  N   UNL     1      -3.547  14.225  23.364  0.00  0.00    +0.000 NA
ATOM      8  C   UNL     1      -4.658  13.540  22.920  0.00  0.00    +0.000 A 
ATOM      9  C   UNL     1      -4.679  13.042  21.557  0.00  0.00    +0.000 A 
ATOM     10  C   UNL     1      -3.584  13.300  20.719  0.00  0.00    +0.000 A 
ATOM     11  C   UNL     1      -2.435  13.901  21.240  0.00  0.00    +0.000 A 
ATOM     12  C   UNL     1      -5.818  12.194  20.894  0.00  0.00    +0.000 C 
ATOM     13  C   UNL     1      -6.744  12.180  22.009  0.00  0.00    +0.000 C 
ATOM     14  C   UNL     1      -7.916  11.963  22.826  0.00  0.00    +0.000 C 
ATOM     15  C   UNL     1      -7.346  12.715  24.098  0.00  0.00    +0.000 C 
ATOM     16  C   UNL     1      -5.830  13.474  24.029  0.00  0.00    +0.000 C 
ENDROOT
BRANCH   1  22
ATOM     17  C   UNL     1       1.541   7.997  20.564  0.00  0.00    +0.000 A 
ATOM     18  C   UNL     1       1.408   8.455  21.872  0.00  0.00    +0.000 A 
ATOM     19  C   UNL     1       0.798   9.680  22.124  0.00  0.00    +0.000 A 
ATOM     20  C   UNL     1       0.326  10.457  21.058  0.00  0.00    +0.000 A 
ATOM     21  C   UNL     1      -0.277  11.691  21.270  0.00  0.00    +0.000 A 
ATOM     22  C   UNL     1      -0.654  12.501  20.182  0.00  0.00    +0.000 A 
ATOM     23  C   UNL     1      -0.451  11.957  18.911  0.00  0.00    +0.000 A 
ATOM     24 CL   UNL     1      -0.828  12.746  17.433  0.00  0.00    +0.000 Cl
ATOM     25  N   UNL     1       0.083  10.740  18.682  0.00  0.00    +0.000 NA
ATOM     26  C   UNL     1       0.481  10.013  19.731  0.00  0.00    +0.000 A 
ATOM     27  C   UNL     1       1.076   8.781  19.507  0.00  0.00    +0.000 A 
BRANCH  17  29
ATOM     28  C   UNL     1       2.910   6.566  19.259  0.00  0.00    +0.000 C 
ATOM     29  O   UNL     1       2.145   6.776  20.442  0.00  0.00    +0.000 OA
ENDBRANCH  17  29
ENDBRANCH   1  22
BRANCH   2  30
ATOM     30  C   UNL     1       1.136  15.023  20.129  0.00  0.00    +0.000 C 
ATOM     31  C   UNL     1       1.035  15.930  18.915  0.00  0.00    +0.000 C 
ATOM     32  O   UNL     1       2.199  14.438  20.328  0.00  0.00    +0.000 OA
ENDBRANCH   2  30
BRANCH  10  33
ATOM     33  N   UNL     1      -3.703  13.003  19.354  0.00  0.00    +0.000 N 
ATOM     34  H   UNL     1      -3.919  12.037  19.136  0.00  0.00    +0.000 HD
ATOM     35  H   UNL     1      -3.084  13.439  18.691  0.00  0.00    +0.000 HD
ENDBRANCH  10  33
TORSDOF 4
ENDMDL
MODEL 8
REMARK VINA RESULT:      -6.7      3.437      6.832
REMARK  Name = 
REMARK  7 active torsions:
REMARK  status: ('A' for Active; 'I' for Inactive)
REMARK    1  A    between atoms: C_1  and  O_2
REMARK    2  A    between atoms: O_2  and  C_3
REMARK    3  A    between atoms: C_8  and  C_9
REMARK    4  A    between atoms: C_10  and  C_11
REMARK    5  A    between atoms: C_11  and  C_12
REMARK    6  A    between atoms: C_14  and  C_15
REMARK    7  A    between atoms: C_21  and  N_22
REMARK                            x       y       z     vdW  Elec       q    Type
REMARK                         _______ _______ _______ _____ _____    ______ ____
ROOT
ATOM      1  C   UNL     1      -0.349  13.176  20.366  0.00  0.00    +0.000 C 
ATOM      2  C   UNL     1      -1.182  13.586  21.541  0.00  0.00    +0.000 C 
ATOM      3  C   UNL     1      -1.348  12.719  22.566  0.00  0.00    +0.000 C 
ATOM      4  C   UNL     1      -2.055  13.017  23.864  0.00  0.00    +0.000 C 
ATOM      5  O   UNL     1      -0.799  11.414  22.556  0.00  0.00    +0.000 OA
ATOM      6  C   UNL     1      -0.156  10.914  21.425  0.00  0.00    +0.000 A 
ATOM      7  N   UNL     1       0.301   9.627  21.492  0.00  0.00    +0.000 NA
ATOM      8  C   UNL     1       0.971   9.078  20.420  0.00  0.00    +0.000 A 
ATOM      9  C   UNL     1       1.128   9.865  19.211  0.00  0.00    +0.000 A 
ATOM     10  C   UNL     1       0.565  11.148  19.154  0.00  0.00    +0.000 A 
ATOM     11  C   UNL     1      -0.009  11.708  20.299  0.00  0.00    +0.000 A 
ATOM     12  C   UNL     1       1.906   9.440  17.919  0.00  0.00    +0.000 C 
ATOM     13  C   UNL     1       2.282   8.103  18.332  0.00  0.00    +0.000 C 
ATOM     14  C   UNL     1       2.808   6.757  18.335  0.00  0.00    +0.000 C 
ATOM     15  C   UNL     1       2.327   6.418  19.805  0.00  0.00    +0.000 C 
ATOM     16  C   UNL     1       1.422   7.550  20.686  0.00  0.00    +0.000 C 
ENDROOT
BRANCH   1  22
ATOM     17  C   UNL     1       5.332  16.295  20.919  0.00  0.00    +0.000 A 
ATOM     18  C   UNL     1       5.344  15.183  21.758  0.00  0.00    +0.000 A 
ATOM     19  C   UNL     1       4.260  14.310  21.775  0.00  0.00    +0.000 A 
ATOM     20  C   UNL     1       3.153  14.557  20.952  0.00  0.00    +0.000 A 
ATOM     21  C   UNL     1       2.048  13.715  20.951  0.00  0.00    +0.000 A 
ATOM     22  C   UNL     1       0.904  14.033  20.193  0.00  0.00    +0.000 A 
ATOM     23  C   UNL     1       0.989  15.185  19.408  0.00  0.00    +0.000 A 
ATOM     24 CL   UNL     1      -0.267  15.782  18.400  0.00  0.00    +0.000 Cl
ATOM     25  N   UNL     1       2.071  15.990  19.352  0.00  0.00    +0.000 NA
ATOM     26  C   UNL     1       3.123  15.694  20.122  0.00  0.00    +0.000 A 
ATOM     27  C   UNL     1       4.222  16.538  20.110  0.00  0.00    +0.000 A 
BRANCH  17  29
ATOM     28  C   UNL     1       7.305  17.046  19.838  0.00  0.00    +0.000 C 
ATOM     29  O   UNL     1       6.457  17.073  20.981  0.00  0.00    +0.000 OA
ENDBRANCH  17  29
ENDBRANCH   1  22
BRANCH   2  30
ATOM     30  C   UNL     1      -1.728  15.004  21.495  0.00  0.00    +0.000 C 
ATOM     31  C   UNL     1      -1.074  16.098  22.320  0.00  0.00    +0.000 C 
ATOM     32  O   UNL     1      -2.730  15.291  20.843  0.00  0.00    +0.000 OA
ENDBRANCH   2  30
BRANCH  10  33
ATOM     33  N   UNL     1       0.538  11.812  17.919  0.00  0.00    +0.000 N 
ATOM     34  H   UNL     1       1.019  11.342  17.162  0.00  0.00    +0.000 HD
ATOM     35  H   UNL     1       0.617  12.815  17.889  0.00  0.00    +0.000 HD
ENDBRANCH  10  33
TORSDOF 4
ENDMDL
MODEL 9
REMARK VINA RESULT:      -6.6      7.565     11.152
REMARK  Name = 
REMARK  7 active torsions:
REMARK  status: ('A' for Active; 'I' for Inactive)
REMARK    1  A    between atoms: C_1  and  O_2
REMARK    2  A    between atoms: O_2  and  C_3
REMARK    3  A    between atoms: C_8  and  C_9
REMARK    4  A    between atoms: C_10  and  C_11
REMARK    5  A    between atoms: C_11  and  C_12
REMARK    6  A    between atoms: C_14  and  C_15
REMARK    7  A    between atoms: C_21  and  N_22
REMARK                            x       y       z     vdW  Elec       q    Type
REMARK                         _______ _______ _______ _____ _____    ______ ____
ROOT
ATOM      1  C   UNL     1       9.143  13.789  21.355  0.00  0.00    +0.000 C 
ATOM      2  C   UNL     1       9.536  12.762  20.339  0.00  0.00    +0.000 C 
ATOM      3  C   UNL     1       9.276  11.458  20.585  0.00  0.00    +0.000 C 
ATOM      4  C   UNL     1       9.500  10.319  19.622  0.00  0.00    +0.000 C 
ATOM      5  O   UNL     1       8.682  11.014  21.791  0.00  0.00    +0.000 OA
ATOM      6  C   UNL     1       8.446  11.899  22.842  0.00  0.00    +0.000 A 
ATOM      7  N   UNL     1       7.911  11.371  23.986  0.00  0.00    +0.000 NA
ATOM      8  C   UNL     1       7.626  12.193  25.055  0.00  0.00    +0.000 A 
ATOM      9  C   UNL     1       7.955  13.604  24.963  0.00  0.00    +0.000 A 
ATOM     10  C   UNL     1       8.583  14.085  23.807  0.00  0.00    +0.000 A 
ATOM     11  C   UNL     1       8.755  13.242  22.705  0.00  0.00    +0.000 A 
ATOM     12  C   UNL     1       7.654  14.700  26.043  0.00  0.00    +0.000 C 
ATOM     13  C   UNL     1       7.071  13.841  27.055  0.00  0.00    +0.000 C 
ATOM     14  C   UNL     1       6.491  13.360  28.288  0.00  0.00    +0.000 C 
ATOM     15  C   UNL     1       6.403  11.849  27.825  0.00  0.00    +0.000 C 
ATOM     16  C   UNL     1       7.013  11.385  26.311  0.00  0.00    +0.000 C 
ENDROOT
BRANCH   1  22
ATOM     17  C   UNL     1       3.875  16.764  18.966  0.00  0.00    +0.000 A 
ATOM     18  C   UNL     1       3.503  15.519  19.467  0.00  0.00    +0.000 A 
ATOM     19  C   UNL     1       4.445  14.709  20.094  0.00  0.00    +0.000 A 
ATOM     20  C   UNL     1       5.771  15.144  20.211  0.00  0.00    +0.000 A 
ATOM     21  C   UNL     1       6.742  14.358  20.820  0.00  0.00    +0.000 A 
ATOM     22  C   UNL     1       8.089  14.768  20.839  0.00  0.00    +0.000 A 
ATOM     23  C   UNL     1       8.357  16.021  20.284  0.00  0.00    +0.000 A 
ATOM     24 CL   UNL     1       9.914  16.741  20.189  0.00  0.00    +0.000 Cl
ATOM     25  N   UNL     1       7.423  16.826  19.736  0.00  0.00    +0.000 NA
ATOM     26  C   UNL     1       6.161  16.390  19.683  0.00  0.00    +0.000 A 
ATOM     27  C   UNL     1       5.200  17.185  19.079  0.00  0.00    +0.000 A 
BRANCH  17  29
ATOM     28  C   UNL     1       2.621  17.214  17.004  0.00  0.00    +0.000 C 
ATOM     29  O   UNL     1       2.861  17.474  18.383  0.00  0.00    +0.000 OA
ENDBRANCH  17  29
ENDBRANCH   1  22
BRANCH   2  30
ATOM     30  C   UNL     1      10.155  13.307  19.060  0.00  0.00    +0.000 C 
ATOM     31  C   UNL     1       9.342  13.342  17.778  0.00  0.00    +0.000 C 
ATOM     32  O   UNL     1      11.326  13.677  19.014  0.00  0.00    +0.000 OA
ENDBRANCH   2  30
BRANCH  10  33
ATOM     33  N   UNL     1       9.085  15.395  23.814  0.00  0.00    +0.000 N 
ATOM     34  H   UNL     1       9.183  15.818  24.729  0.00  0.00    +0.000 HD
ATOM     35  H   UNL     1       8.804  16.043  23.097  0.00  0.00    +0.000 HD
ENDBRANCH  10  33
TORSDOF 4
ENDMDL
