MODEL 1
REMARK VINA RESULT:      -7.5      0.000      0.000
REMARK  Name = 
REMARK  7 active torsions:
REMARK  status: ('A' for Active; 'I' for Inactive)
REMARK    1  A    between atoms: C_1  and  O_2
REMARK    2  A    between atoms: O_2  and  C_3
REMARK    3  A    between atoms: C_3  and  C_5
REMARK    4  A    between atoms: C_5  and  C_6
REMARK    5  A    between atoms: C_7  and  C_8
REMARK    6  A    between atoms: C_8  and  C_9
REMARK    7  A    between atoms: N_20  and  C_21
REMARK                            x       y       z     vdW  Elec       q    Type
REMARK                         _______ _______ _______ _____ _____    ______ ____
ROOT
ATOM      1  C   UNL     1       5.646   4.644  15.921  0.00  0.00    +0.000 C 
ATOM      2  C   UNL     1       4.274   4.408  16.605  0.00  0.00    +0.000 C 
ATOM      3  C   UNL     1       3.982   5.774  17.310  0.00  0.00    +0.000 C 
ATOM      4  C   UNL     1       5.199   6.345  18.101  0.00  0.00    +0.000 C 
ATOM      5  C   UNL     1       6.154   7.290  17.343  0.00  0.00    +0.000 C 
ATOM      6  C   UNL     1       7.249   6.392  16.742  0.00  0.00    +0.000 C 
ATOM      7  C   UNL     1       6.732   4.982  17.031  0.00  0.00    +0.000 C 
ATOM      8  N   UNL     1       6.056   5.192  18.345  0.00  0.00    +0.000 NA
ATOM      9  C   UNL     1       6.903   5.327  19.519  0.00  0.00    +0.000 C 
ENDROOT
BRANCH   1  10
ATOM     10  C   UNL     1       6.016   3.593  14.871  0.00  0.00    +0.000 C 
BRANCH  10  11
ATOM     11  C   UNL     1       6.667   4.212  13.649  0.00  0.00    +0.000 C 
ATOM     12  O   UNL     1       7.279   5.279  13.669  0.00  0.00    +0.000 OA
BRANCH  11  14
ATOM     13  C   UNL     1       5.101   3.335  12.135  0.00  0.00    +0.000 C 
ATOM     14  O   UNL     1       6.473   3.450  12.539  0.00  0.00    +0.000 OA
ENDBRANCH  11  14
ENDBRANCH  10  11
ENDBRANCH   1  10
BRANCH   2  15
ATOM     15  C   UNL     1       4.294   3.135  17.514  0.00  0.00    +0.000 C 
BRANCH  15  16
ATOM     16  C   UNL     1       3.203   2.981  18.545  0.00  0.00    +0.000 A 
ATOM     17  C   UNL     1       3.491   3.145  19.902  0.00  0.00    +0.000 A 
ATOM     18  C   UNL     1       2.466   3.148  20.851  0.00  0.00    +0.000 A 
ATOM     19  C   UNL     1       1.142   2.971  20.452  0.00  0.00    +0.000 A 
ATOM     20  C   UNL     1       0.840   2.786  19.102  0.00  0.00    +0.000 A 
ATOM     21  C   UNL     1       1.867   2.797  18.153  0.00  0.00    +0.000 A 
ENDBRANCH  15  16
ENDBRANCH   2  15
TORSDOF 5
ENDMDL
MODEL 2
REMARK VINA RESULT:      -7.4      0.118      1.059
REMARK  Name = 
REMARK  7 active torsions:
REMARK  status: ('A' for Active; 'I' for Inactive)
REMARK    1  A    between atoms: C_1  and  O_2
REMARK    2  A    between atoms: O_2  and  C_3
REMARK    3  A    between atoms: C_3  and  C_5
REMARK    4  A    between atoms: C_5  and  C_6
REMARK    5  A    between atoms: C_7  and  C_8
REMARK    6  A    between atoms: C_8  and  C_9
REMARK    7  A    between atoms: N_20  and  C_21
REMARK                            x       y       z     vdW  Elec       q    Type
REMARK                         _______ _______ _______ _____ _____    ______ ____
ROOT
ATOM      1  C   UNL     1       5.655   4.688  15.921  0.00  0.00    +0.000 C 
ATOM      2  C   UNL     1       4.263   4.523  16.585  0.00  0.00    +0.000 C 
ATOM      3  C   UNL     1       4.027   5.905  17.280  0.00  0.00    +0.000 C 
ATOM      4  C   UNL     1       5.258   6.418  18.088  0.00  0.00    +0.000 C 
ATOM      5  C   UNL     1       6.270   7.312  17.342  0.00  0.00    +0.000 C 
ATOM      6  C   UNL     1       7.329   6.358  16.761  0.00  0.00    +0.000 C 
ATOM      7  C   UNL     1       6.739   4.977  17.047  0.00  0.00    +0.000 C 
ATOM      8  N   UNL     1       6.053   5.226  18.350  0.00  0.00    +0.000 NA
ATOM      9  C   UNL     1       6.888   5.324  19.536  0.00  0.00    +0.000 C 
ENDROOT
BRANCH   1  10
ATOM     10  C   UNL     1       5.989   3.616  14.881  0.00  0.00    +0.000 C 
BRANCH  10  11
ATOM     11  C   UNL     1       6.655   4.201  13.651  0.00  0.00    +0.000 C 
ATOM     12  O   UNL     1       7.277   5.262  13.653  0.00  0.00    +0.000 OA
BRANCH  11  14
ATOM     13  C   UNL     1       5.096   3.347  12.116  0.00  0.00    +0.000 C 
ATOM     14  O   UNL     1       6.460   3.418  12.556  0.00  0.00    +0.000 OA
ENDBRANCH  11  14
ENDBRANCH  10  11
ENDBRANCH   1  10
BRANCH   2  15
ATOM     15  C   UNL     1       4.206   3.254  17.499  0.00  0.00    +0.000 C 
BRANCH  15  16
ATOM     16  C   UNL     1       3.150   3.201  18.575  0.00  0.00    +0.000 A 
ATOM     17  C   UNL     1       1.809   3.009  18.235  0.00  0.00    +0.000 A 
ATOM     18  C   UNL     1       0.845   2.814  19.226  0.00  0.00    +0.000 A 
ATOM     19  C   UNL     1       1.210   2.824  20.571  0.00  0.00    +0.000 A 
ATOM     20  C   UNL     1       2.543   3.034  20.929  0.00  0.00    +0.000 A 
ATOM     21  C   UNL     1       3.509   3.216  19.933  0.00  0.00    +0.000 A 
ENDBRANCH  15  16
ENDBRANCH   2  15
TORSDOF 5
ENDMDL
MODEL 3
REMARK VINA RESULT:      -7.3      3.084      6.201
REMARK  Name = 
REMARK  7 active torsions:
REMARK  status: ('A' for Active; 'I' for Inactive)
REMARK    1  A    between atoms: C_1  and  O_2
REMARK    2  A    between atoms: O_2  and  C_3
REMARK    3  A    between atoms: C_3  and  C_5
REMARK    4  A    between atoms: C_5  and  C_6
REMARK    5  A    between atoms: C_7  and  C_8
REMARK    6  A    between atoms: C_8  and  C_9
REMARK    7  A    between atoms: N_20  and  C_21
REMARK                            x       y       z     vdW  Elec       q    Type
REMARK                         _______ _______ _______ _____ _____    ______ ____
ROOT
ATOM      1  C   UNL     1       2.624   5.220  18.548  0.00  0.00    +0.000 C 
ATOM      2  C   UNL     1       3.026   4.129  17.522  0.00  0.00    +0.000 C 
ATOM      3  C   UNL     1       1.978   2.994  17.773  0.00  0.00    +0.000 C 
ATOM      4  C   UNL     1       1.769   2.656  19.281  0.00  0.00    +0.000 C 
ATOM      5  C   UNL     1       0.661   3.423  20.031  0.00  0.00    +0.000 C 
ATOM      6  C   UNL     1       1.339   4.667  20.632  0.00  0.00    +0.000 C 
ATOM      7  C   UNL     1       2.738   4.623  20.017  0.00  0.00    +0.000 C 
ATOM      8  N   UNL     1       2.970   3.150  19.942  0.00  0.00    +0.000 NA
ATOM      9  C   UNL     1       3.286   2.459  21.181  0.00  0.00    +0.000 C 
ENDROOT
BRANCH   1  10
ATOM     10  C   UNL     1       3.260   6.590  18.294  0.00  0.00    +0.000 C 
BRANCH  10  11
ATOM     11  C   UNL     1       2.354   7.728  18.723  0.00  0.00    +0.000 C 
ATOM     12  O   UNL     1       2.048   7.951  19.893  0.00  0.00    +0.000 OA
BRANCH  11  14
ATOM     13  C   UNL     1       1.084   9.565  17.998  0.00  0.00    +0.000 C 
ATOM     14  O   UNL     1       1.917   8.448  17.656  0.00  0.00    +0.000 OA
ENDBRANCH  11  14
ENDBRANCH  10  11
ENDBRANCH   1  10
BRANCH   2  15
ATOM     15  C   UNL     1       4.535   3.739  17.655  0.00  0.00    +0.000 C 
BRANCH  15  16
ATOM     16  C   UNL     1       5.456   4.061  16.504  0.00  0.00    +0.000 A 
ATOM     17  C   UNL     1       5.051   3.815  15.190  0.00  0.00    +0.000 A 
ATOM     18  C   UNL     1       5.832   4.241  14.114  0.00  0.00    +0.000 A 
ATOM     19  C   UNL     1       7.037   4.905  14.342  0.00  0.00    +0.000 A 
ATOM     20  C   UNL     1       7.466   5.141  15.649  0.00  0.00    +0.000 A 
ATOM     21  C   UNL     1       6.674   4.725  16.725  0.00  0.00    +0.000 A 
ENDBRANCH  15  16
ENDBRANCH   2  15
TORSDOF 5
ENDMDL
MODEL 4
REMARK VINA RESULT:      -7.3      2.806      4.171
REMARK  Name = 
REMARK  7 active torsions:
REMARK  status: ('A' for Active; 'I' for Inactive)
REMARK    1  A    between atoms: C_1  and  O_2
REMARK    2  A    between atoms: O_2  and  C_3
REMARK    3  A    between atoms: C_3  and  C_5
REMARK    4  A    between atoms: C_5  and  C_6
REMARK    5  A    between atoms: C_7  and  C_8
REMARK    6  A    between atoms: C_8  and  C_9
REMARK    7  A    between atoms: N_20  and  C_21
REMARK                            x       y       z     vdW  Elec       q    Type
REMARK                         _______ _______ _______ _____ _____    ______ ____
ROOT
ATOM      1  C   UNL     1       4.450   6.023  18.237  0.00  0.00    +0.000 C 
ATOM      2  C   UNL     1       5.003   5.076  19.333  0.00  0.00    +0.000 C 
ATOM      3  C   UNL     1       6.530   5.418  19.368  0.00  0.00    +0.000 C 
ATOM      4  C   UNL     1       7.187   5.500  17.957  0.00  0.00    +0.000 C 
ATOM      5  C   UNL     1       7.208   6.878  17.265  0.00  0.00    +0.000 C 
ATOM      6  C   UNL     1       5.919   6.951  16.427  0.00  0.00    +0.000 C 
ATOM      7  C   UNL     1       5.162   5.694  16.854  0.00  0.00    +0.000 C 
ATOM      8  N   UNL     1       6.292   4.747  17.087  0.00  0.00    +0.000 NA
ATOM      9  C   UNL     1       6.945   4.185  15.916  0.00  0.00    +0.000 C 
ENDROOT
BRANCH   1  10
ATOM     10  C   UNL     1       2.924   6.155  18.228  0.00  0.00    +0.000 C 
BRANCH  10  11
ATOM     11  C   UNL     1       2.468   7.534  18.664  0.00  0.00    +0.000 C 
ATOM     12  O   UNL     1       2.083   7.796  19.802  0.00  0.00    +0.000 OA
BRANCH  11  14
ATOM     13  C   UNL     1       1.905   9.690  17.922  0.00  0.00    +0.000 C 
ATOM     14  O   UNL     1       2.523   8.426  17.639  0.00  0.00    +0.000 OA
ENDBRANCH  11  14
ENDBRANCH  10  11
ENDBRANCH   1  10
BRANCH   2  15
ATOM     15  C   UNL     1       4.619   3.585  19.056  0.00  0.00    +0.000 C 
BRANCH  15  16
ATOM     16  C   UNL     1       3.213   3.142  19.377  0.00  0.00    +0.000 A 
ATOM     17  C   UNL     1       2.688   3.344  20.655  0.00  0.00    +0.000 A 
ATOM     18  C   UNL     1       1.345   3.071  20.923  0.00  0.00    +0.000 A 
ATOM     19  C   UNL     1       0.515   2.579  19.917  0.00  0.00    +0.000 A 
ATOM     20  C   UNL     1       1.030   2.353  18.639  0.00  0.00    +0.000 A 
ATOM     21  C   UNL     1       2.372   2.640  18.370  0.00  0.00    +0.000 A 
ENDBRANCH  15  16
ENDBRANCH   2  15
TORSDOF 5
ENDMDL
MODEL 5
REMARK VINA RESULT:      -7.3      3.042      6.080
REMARK  Name = 
REMARK  7 active torsions:
REMARK  status: ('A' for Active; 'I' for Inactive)
REMARK    1  A    between atoms: C_1  and  O_2
REMARK    2  A    between atoms: O_2  and  C_3
REMARK    3  A    between atoms: C_3  and  C_5
REMARK    4  A    between atoms: C_5  and  C_6
REMARK    5  A    between atoms: C_7  and  C_8
REMARK    6  A    between atoms: C_8  and  C_9
REMARK    7  A    between atoms: N_20  and  C_21
REMARK                            x       y       z     vdW  Elec       q    Type
REMARK                         _______ _______ _______ _____ _____    ______ ____
ROOT
ATOM      1  C   UNL     1       2.607   5.193  18.586  0.00  0.00    +0.000 C 
ATOM      2  C   UNL     1       2.883   4.087  17.535  0.00  0.00    +0.000 C 
ATOM      3  C   UNL     1       1.808   2.999  17.866  0.00  0.00    +0.000 C 
ATOM      4  C   UNL     1       1.699   2.668  19.386  0.00  0.00    +0.000 C 
ATOM      5  C   UNL     1       0.685   3.483  20.215  0.00  0.00    +0.000 C 
ATOM      6  C   UNL     1       1.460   4.695  20.761  0.00  0.00    +0.000 C 
ATOM      7  C   UNL     1       2.805   4.590  20.043  0.00  0.00    +0.000 C 
ATOM      8  N   UNL     1       2.966   3.109  19.954  0.00  0.00    +0.000 NA
ATOM      9  C   UNL     1       3.344   2.403  21.167  0.00  0.00    +0.000 C 
ENDROOT
BRANCH   1  10
ATOM     10  C   UNL     1       3.281   6.534  18.281  0.00  0.00    +0.000 C 
BRANCH  10  11
ATOM     11  C   UNL     1       2.408   7.713  18.667  0.00  0.00    +0.000 C 
ATOM     12  O   UNL     1       2.002   7.915  19.811  0.00  0.00    +0.000 OA
BRANCH  11  14
ATOM     13  C   UNL     1       1.814   9.858  17.920  0.00  0.00    +0.000 C 
ATOM     14  O   UNL     1       2.122   8.496  17.592  0.00  0.00    +0.000 OA
ENDBRANCH  11  14
ENDBRANCH  10  11
ENDBRANCH   1  10
BRANCH   2  15
ATOM     15  C   UNL     1       4.379   3.631  17.555  0.00  0.00    +0.000 C 
BRANCH  15  16
ATOM     16  C   UNL     1       5.295   4.153  16.476  0.00  0.00    +0.000 A 
ATOM     17  C   UNL     1       6.496   4.779  16.817  0.00  0.00    +0.000 A 
ATOM     18  C   UNL     1       7.417   5.136  15.830  0.00  0.00    +0.000 A 
ATOM     19  C   UNL     1       7.139   4.884  14.488  0.00  0.00    +0.000 A 
ATOM     20  C   UNL     1       5.935   4.278  14.128  0.00  0.00    +0.000 A 
ATOM     21  C   UNL     1       5.020   3.908  15.120  0.00  0.00    +0.000 A 
ENDBRANCH  15  16
ENDBRANCH   2  15
TORSDOF 5
ENDMDL
MODEL 6
REMARK VINA RESULT:      -7.2      0.489      1.056
REMARK  Name = 
REMARK  7 active torsions:
REMARK  status: ('A' for Active; 'I' for Inactive)
REMARK    1  A    between atoms: C_1  and  O_2
REMARK    2  A    between atoms: O_2  and  C_3
REMARK    3  A    between atoms: C_3  and  C_5
REMARK    4  A    between atoms: C_5  and  C_6
REMARK    5  A    between atoms: C_7  and  C_8
REMARK    6  A    between atoms: C_8  and  C_9
REMARK    7  A    between atoms: N_20  and  C_21
REMARK                            x       y       z     vdW  Elec       q    Type
REMARK                         _______ _______ _______ _____ _____    ______ ____
ROOT
ATOM      1  C   UNL     1       5.659   4.559  16.011  0.00  0.00    +0.000 C 
ATOM      2  C   UNL     1       4.280   4.346  16.689  0.00  0.00    +0.000 C 
ATOM      3  C   UNL     1       3.981   5.735  17.343  0.00  0.00    +0.000 C 
ATOM      4  C   UNL     1       5.189   6.332  18.127  0.00  0.00    +0.000 C 
ATOM      5  C   UNL     1       6.153   7.251  17.348  0.00  0.00    +0.000 C 
ATOM      6  C   UNL     1       7.254   6.333  16.789  0.00  0.00    +0.000 C 
ATOM      7  C   UNL     1       6.733   4.935  17.120  0.00  0.00    +0.000 C 
ATOM      8  N   UNL     1       6.043   5.189  18.419  0.00  0.00    +0.000 NA
ATOM      9  C   UNL     1       6.878   5.364  19.597  0.00  0.00    +0.000 C 
ENDROOT
BRANCH   1  10
ATOM     10  C   UNL     1       6.040   3.473  15.001  0.00  0.00    +0.000 C 
BRANCH  10  11
ATOM     11  C   UNL     1       6.374   4.051  13.640  0.00  0.00    +0.000 C 
ATOM     12  O   UNL     1       5.956   3.585  12.581  0.00  0.00    +0.000 OA
BRANCH  11  14
ATOM     13  C   UNL     1       7.932   5.425  12.544  0.00  0.00    +0.000 C 
ATOM     14  O   UNL     1       7.201   5.126  13.742  0.00  0.00    +0.000 OA
ENDBRANCH  11  14
ENDBRANCH  10  11
ENDBRANCH   1  10
BRANCH   2  15
ATOM     15  C   UNL     1       4.290   3.105  17.640  0.00  0.00    +0.000 C 
BRANCH  15  16
ATOM     16  C   UNL     1       3.181   2.980  18.656  0.00  0.00    +0.000 A 
ATOM     17  C   UNL     1       3.454   3.138  20.017  0.00  0.00    +0.000 A 
ATOM     18  C   UNL     1       2.417   3.168  20.951  0.00  0.00    +0.000 A 
ATOM     19  C   UNL     1       1.094   3.024  20.534  0.00  0.00    +0.000 A 
ATOM     20  C   UNL     1       0.806   2.845  19.181  0.00  0.00    +0.000 A 
ATOM     21  C   UNL     1       1.847   2.829  18.245  0.00  0.00    +0.000 A 
ENDBRANCH  15  16
ENDBRANCH   2  15
TORSDOF 5
ENDMDL
MODEL 7
REMARK VINA RESULT:      -7.2      0.501      1.498
REMARK  Name = 
REMARK  7 active torsions:
REMARK  status: ('A' for Active; 'I' for Inactive)
REMARK    1  A    between atoms: C_1  and  O_2
REMARK    2  A    between atoms: O_2  and  C_3
REMARK    3  A    between atoms: C_3  and  C_5
REMARK    4  A    between atoms: C_5  and  C_6
REMARK    5  A    between atoms: C_7  and  C_8
REMARK    6  A    between atoms: C_8  and  C_9
REMARK    7  A    between atoms: N_20  and  C_21
REMARK                            x       y       z     vdW  Elec       q    Type
REMARK                         _______ _______ _______ _____ _____    ______ ____
ROOT
ATOM      1  C   UNL     1       5.667   4.598  16.012  0.00  0.00    +0.000 C 
ATOM      2  C   UNL     1       4.269   4.450  16.665  0.00  0.00    +0.000 C 
ATOM      3  C   UNL     1       4.019   5.855  17.307  0.00  0.00    +0.000 C 
ATOM      4  C   UNL     1       5.238   6.402  18.110  0.00  0.00    +0.000 C 
ATOM      5  C   UNL     1       6.256   7.273  17.345  0.00  0.00    +0.000 C 
ATOM      6  C   UNL     1       7.325   6.304  16.811  0.00  0.00    +0.000 C 
ATOM      7  C   UNL     1       6.737   4.932  17.139  0.00  0.00    +0.000 C 
ATOM      8  N   UNL     1       6.035   5.224  18.424  0.00  0.00    +0.000 NA
ATOM      9  C   UNL     1       6.855   5.368  19.616  0.00  0.00    +0.000 C 
ENDROOT
BRANCH   1  10
ATOM     10  C   UNL     1       6.019   3.491  15.014  0.00  0.00    +0.000 C 
BRANCH  10  11
ATOM     11  C   UNL     1       6.367   4.044  13.646  0.00  0.00    +0.000 C 
ATOM     12  O   UNL     1       5.988   3.538  12.590  0.00  0.00    +0.000 OA
BRANCH  11  14
ATOM     13  C   UNL     1       7.971   5.389  12.582  0.00  0.00    +0.000 C 
ATOM     14  O   UNL     1       7.157   5.147  13.739  0.00  0.00    +0.000 OA
ENDBRANCH  11  14
ENDBRANCH  10  11
ENDBRANCH   1  10
BRANCH   2  15
ATOM     15  C   UNL     1       4.206   3.215  17.622  0.00  0.00    +0.000 C 
BRANCH  15  16
ATOM     16  C   UNL     1       3.135   3.193  18.685  0.00  0.00    +0.000 A 
ATOM     17  C   UNL     1       1.795   3.028  18.327  0.00  0.00    +0.000 A 
ATOM     18  C   UNL     1       0.813   2.862  19.306  0.00  0.00    +0.000 A 
ATOM     19  C   UNL     1       1.160   2.873  20.656  0.00  0.00    +0.000 A 
ATOM     20  C   UNL     1       2.492   3.056  21.031  0.00  0.00    +0.000 A 
ATOM     21  C   UNL     1       3.476   3.209  20.047  0.00  0.00    +0.000 A 
ENDBRANCH  15  16
ENDBRANCH   2  15
TORSDOF 5
ENDMDL
MODEL 8
REMARK VINA RESULT:      -7.2      2.709      4.178
REMARK  Name = 
REMARK  7 active torsions:
REMARK  status: ('A' for Active; 'I' for Inactive)
REMARK    1  A    between atoms: C_1  and  O_2
REMARK    2  A    between atoms: O_2  and  C_3
REMARK    3  A    between atoms: C_3  and  C_5
REMARK    4  A    between atoms: C_5  and  C_6
REMARK    5  A    between atoms: C_7  and  C_8
REMARK    6  A    between atoms: C_8  and  C_9
REMARK    7  A    between atoms: N_20  and  C_21
REMARK                            x       y       z     vdW  Elec       q    Type
REMARK                         _______ _______ _______ _____ _____    ______ ____
ROOT
ATOM      1  C   UNL     1       4.480   6.085  18.220  0.00  0.00    +0.000 C 
ATOM      2  C   UNL     1       5.009   5.108  19.303  0.00  0.00    +0.000 C 
ATOM      3  C   UNL     1       6.544   5.408  19.342  0.00  0.00    +0.000 C 
ATOM      4  C   UNL     1       7.202   5.492  17.931  0.00  0.00    +0.000 C 
ATOM      5  C   UNL     1       7.260   6.880  17.260  0.00  0.00    +0.000 C 
ATOM      6  C   UNL     1       5.974   6.999  16.423  0.00  0.00    +0.000 C 
ATOM      7  C   UNL     1       5.183   5.757  16.833  0.00  0.00    +0.000 C 
ATOM      8  N   UNL     1       6.288   4.777  17.051  0.00  0.00    +0.000 NA
ATOM      9  C   UNL     1       6.925   4.214  15.872  0.00  0.00    +0.000 C 
ENDROOT
BRANCH   1  10
ATOM     10  C   UNL     1       2.959   6.258  18.215  0.00  0.00    +0.000 C 
BRANCH  10  11
ATOM     11  C   UNL     1       2.550   7.717  18.269  0.00  0.00    +0.000 C 
ATOM     12  O   UNL     1       2.617   8.480  17.306  0.00  0.00    +0.000 OA
BRANCH  11  14
ATOM     13  C   UNL     1       1.782   6.963  20.356  0.00  0.00    +0.000 C 
ATOM     14  O   UNL     1       2.122   8.071  19.511  0.00  0.00    +0.000 OA
ENDBRANCH  11  14
ENDBRANCH  10  11
ENDBRANCH   1  10
BRANCH   2  15
ATOM     15  C   UNL     1       4.585   3.632  19.005  0.00  0.00    +0.000 C 
BRANCH  15  16
ATOM     16  C   UNL     1       3.184   3.208  19.370  0.00  0.00    +0.000 A 
ATOM     17  C   UNL     1       2.713   3.387  20.673  0.00  0.00    +0.000 A 
ATOM     18  C   UNL     1       1.377   3.132  20.987  0.00  0.00    +0.000 A 
ATOM     19  C   UNL     1       0.499   2.681  20.002  0.00  0.00    +0.000 A 
ATOM     20  C   UNL     1       0.958   2.478  18.700  0.00  0.00    +0.000 A 
ATOM     21  C   UNL     1       2.295   2.747  18.385  0.00  0.00    +0.000 A 
ENDBRANCH  15  16
ENDBRANCH   2  15
TORSDOF 5
ENDMDL
MODEL 9
REMARK VINA RESULT:      -7.1      2.816      4.879
REMARK  Name = 
REMARK  7 active torsions:
REMARK  status: ('A' for Active; 'I' for Inactive)
REMARK    1  A    between atoms: C_1  and  O_2
REMARK    2  A    between atoms: O_2  and  C_3
REMARK    3  A    between atoms: C_3  and  C_5
REMARK    4  A    between atoms: C_5  and  C_6
REMARK    5  A    between atoms: C_7  and  C_8
REMARK    6  A    between atoms: C_8  and  C_9
REMARK    7  A    between atoms: N_20  and  C_21
REMARK                            x       y       z     vdW  Elec       q    Type
REMARK                         _______ _______ _______ _____ _____    ______ ____
ROOT
ATOM      1  C   UNL     1       4.761   4.557  17.720  0.00  0.00    +0.000 C 
ATOM      2  C   UNL     1       4.211   5.734  18.567  0.00  0.00    +0.000 C 
ATOM      3  C   UNL     1       3.837   5.056  19.927  0.00  0.00    +0.000 C 
ATOM      4  C   UNL     1       3.038   3.726  19.766  0.00  0.00    +0.000 C 
ATOM      5  C   UNL     1       3.852   2.418  19.689  0.00  0.00    +0.000 C 
ATOM      6  C   UNL     1       4.125   2.177  18.194  0.00  0.00    +0.000 C 
ATOM      7  C   UNL     1       3.621   3.464  17.542  0.00  0.00    +0.000 C 
ATOM      8  N   UNL     1       2.466   3.797  18.428  0.00  0.00    +0.000 NA
ATOM      9  C   UNL     1       1.251   3.015  18.265  0.00  0.00    +0.000 C 
ENDROOT
BRANCH   1  10
ATOM     10  C   UNL     1       5.525   4.987  16.465  0.00  0.00    +0.000 C 
BRANCH  10  11
ATOM     11  C   UNL     1       7.000   5.204  16.741  0.00  0.00    +0.000 C 
ATOM     12  O   UNL     1       7.729   4.358  17.256  0.00  0.00    +0.000 OA
BRANCH  11  14
ATOM     13  C   UNL     1       7.554   7.373  17.450  0.00  0.00    +0.000 C 
ATOM     14  O   UNL     1       7.401   6.448  16.364  0.00  0.00    +0.000 OA
ENDBRANCH  11  14
ENDBRANCH  10  11
ENDBRANCH   1  10
BRANCH   2  15
ATOM     15  C   UNL     1       3.068   6.498  17.822  0.00  0.00    +0.000 C 
BRANCH  15  16
ATOM     16  C   UNL     1       2.421   7.668  18.522  0.00  0.00    +0.000 A 
ATOM     17  C   UNL     1       2.114   8.830  17.810  0.00  0.00    +0.000 A 
ATOM     18  C   UNL     1       1.387   9.860  18.411  0.00  0.00    +0.000 A 
ATOM     19  C   UNL     1       0.971   9.744  19.736  0.00  0.00    +0.000 A 
ATOM     20  C   UNL     1       1.287   8.598  20.467  0.00  0.00    +0.000 A 
ATOM     21  C   UNL     1       2.003   7.561  19.859  0.00  0.00    +0.000 A 
ENDBRANCH  15  16
ENDBRANCH   2  15
TORSDOF 5
ENDMDL
