MODEL 1
REMARK VINA RESULT:      -8.3      0.000      0.000
REMARK  Name = 
REMARK  7 active torsions:
REMARK  status: ('A' for Active; 'I' for Inactive)
REMARK    1  A    between atoms: C_1  and  C_2
REMARK    2  A    between atoms: C_2  and  C_3
REMARK    3  A    between atoms: C_2  and  C_4
REMARK    4  A    between atoms: C_4  and  N_5
REMARK    5  A    between atoms: N_13  and  S_14
REMARK    6  A    between atoms: S_14  and  C_17
REMARK    7  A    between atoms: C_21  and  C_22
REMARK                            x       y       z     vdW  Elec       q    Type
REMARK                         _______ _______ _______ _____ _____    ______ ____
ROOT
ATOM      1  N   UNL     1       2.447   4.721  18.914  0.00  0.00    +0.000 N 
ATOM      2  C   UNL     1       1.943   4.303  20.135  0.00  0.00    +0.000 C 
ATOM      3  O   UNL     1       0.944   4.711  20.705  0.00  0.00    +0.000 OA
ATOM      4  C   UNL     1       2.899   3.270  20.663  0.00  0.00    +0.000 C 
ATOM      5  N   UNL     1       3.803   2.967  19.534  0.00  0.00    +0.000 NA
ATOM      6  C   UNL     1       3.747   4.139  18.624  0.00  0.00    +0.000 C 
ATOM      7  C   UNL     1       3.841   3.640  17.167  0.00  0.00    +0.000 C 
ATOM      8  C   UNL     1       5.253   3.218  16.772  0.00  0.00    +0.000 C 
ATOM      9  N   UNL     1       6.243   4.283  17.061  0.00  0.00    +0.000 NA
ATOM     10  C   UNL     1       6.261   4.581  18.523  0.00  0.00    +0.000 C 
ATOM     11  C   UNL     1       4.906   5.098  18.988  0.00  0.00    +0.000 C 
ATOM     12  H   UNL     1       3.377   2.177  19.047  0.00  0.00    +0.000 HD
ENDROOT
BRANCH   9  13
ATOM     13  S   UNL     1       6.304   5.653  16.042  0.00  0.00    +0.000 S 
ATOM     14  O   UNL     1       4.998   6.281  16.034  0.00  0.00    +0.000 OA
ATOM     15  O   UNL     1       7.478   6.419  16.399  0.00  0.00    +0.000 OA
BRANCH  13  16
ATOM     16  C   UNL     1       6.588   4.991  14.410  0.00  0.00    +0.000 A 
ATOM     17  C   UNL     1       7.777   5.310  13.752  0.00  0.00    +0.000 A 
ATOM     18  C   UNL     1       7.953   4.937  12.419  0.00  0.00    +0.000 A 
ATOM     19  C   UNL     1       6.945   4.243  11.748  0.00  0.00    +0.000 A 
ATOM     20  C   UNL     1       5.745   3.912  12.397  0.00  0.00    +0.000 A 
ATOM     21  C   UNL     1       5.567   4.303  13.737  0.00  0.00    +0.000 A 
BRANCH  20  22
ATOM     22  C   UNL     1       4.656   3.157  11.669  0.00  0.00    +0.000 C 
ATOM     23  F   UNL     1       3.553   2.924  12.419  0.00  0.00    +0.000 F 
ATOM     24  F   UNL     1       4.223   3.820  10.562  0.00  0.00    +0.000 F 
ATOM     25  F   UNL     1       5.079   1.939  11.230  0.00  0.00    +0.000 F 
ENDBRANCH  20  22
ENDBRANCH  13  16
ENDBRANCH   9  13
BRANCH   1  26
ATOM     26  C   UNL     1       1.956   5.944  18.276  0.00  0.00    +0.000 C 
BRANCH  26  28
ATOM     27  C   UNL     1       2.650   8.329  17.690  0.00  0.00    +0.000 C 
ATOM     28  C   UNL     1       2.627   7.239  18.760  0.00  0.00    +0.000 C 
ATOM     29  C   UNL     1       1.888   7.757  19.999  0.00  0.00    +0.000 C 
ENDBRANCH  26  28
ENDBRANCH   1  26
TORSDOF 5
ENDMDL
MODEL 2
REMARK VINA RESULT:      -8.1      1.511      2.882
REMARK  Name = 
REMARK  7 active torsions:
REMARK  status: ('A' for Active; 'I' for Inactive)
REMARK    1  A    between atoms: C_1  and  C_2
REMARK    2  A    between atoms: C_2  and  C_3
REMARK    3  A    between atoms: C_2  and  C_4
REMARK    4  A    between atoms: C_4  and  N_5
REMARK    5  A    between atoms: N_13  and  S_14
REMARK    6  A    between atoms: S_14  and  C_17
REMARK    7  A    between atoms: C_21  and  C_22
REMARK                            x       y       z     vdW  Elec       q    Type
REMARK                         _______ _______ _______ _____ _____    ______ ____
ROOT
ATOM      1  N   UNL     1       3.272   5.030  19.695  0.00  0.00    +0.000 N 
ATOM      2  C   UNL     1       2.119   5.681  20.104  0.00  0.00    +0.000 C 
ATOM      3  O   UNL     1       1.201   5.221  20.762  0.00  0.00    +0.000 OA
ATOM      4  C   UNL     1       2.186   7.071  19.534  0.00  0.00    +0.000 C 
ATOM      5  N   UNL     1       3.564   7.212  19.017  0.00  0.00    +0.000 NA
ATOM      6  C   UNL     1       4.066   5.834  18.780  0.00  0.00    +0.000 C 
ATOM      7  C   UNL     1       5.568   5.788  19.129  0.00  0.00    +0.000 C 
ATOM      8  C   UNL     1       6.447   6.447  18.071  0.00  0.00    +0.000 C 
ATOM      9  N   UNL     1       6.173   5.905  16.719  0.00  0.00    +0.000 NA
ATOM     10  C   UNL     1       4.753   6.165  16.342  0.00  0.00    +0.000 C 
ATOM     11  C   UNL     1       3.800   5.463  17.301  0.00  0.00    +0.000 C 
ATOM     12  H   UNL     1       4.105   7.610  19.786  0.00  0.00    +0.000 HD
ENDROOT
BRANCH   9  13
ATOM     13  S   UNL     1       6.756   4.350  16.319  0.00  0.00    +0.000 S 
ATOM     14  O   UNL     1       8.111   4.223  16.815  0.00  0.00    +0.000 OA
ATOM     15  O   UNL     1       5.747   3.386  16.704  0.00  0.00    +0.000 OA
BRANCH  13  16
ATOM     16  C   UNL     1       6.835   4.340  14.537  0.00  0.00    +0.000 A 
ATOM     17  C   UNL     1       7.818   5.102  13.902  0.00  0.00    +0.000 A 
ATOM     18  C   UNL     1       7.802   5.237  12.515  0.00  0.00    +0.000 A 
ATOM     19  C   UNL     1       6.809   4.608  11.762  0.00  0.00    +0.000 A 
ATOM     20  C   UNL     1       5.816   3.835  12.385  0.00  0.00    +0.000 A 
ATOM     21  C   UNL     1       5.829   3.714  13.786  0.00  0.00    +0.000 A 
BRANCH  20  22
ATOM     22  C   UNL     1       4.744   3.151  11.567  0.00  0.00    +0.000 C 
ATOM     23  F   UNL     1       5.093   1.922  11.120  0.00  0.00    +0.000 F 
ATOM     24  F   UNL     1       3.592   2.979  12.273  0.00  0.00    +0.000 F 
ATOM     25  F   UNL     1       4.399   3.872  10.464  0.00  0.00    +0.000 F 
ENDBRANCH  20  22
ENDBRANCH  13  16
ENDBRANCH   9  13
BRANCH   1  26
ATOM     26  C   UNL     1       3.387   3.573  19.787  0.00  0.00    +0.000 C 
BRANCH  26  28
ATOM     27  C   UNL     1       3.246   1.742  18.014  0.00  0.00    +0.000 C 
ATOM     28  C   UNL     1       2.483   2.792  18.822  0.00  0.00    +0.000 C 
ATOM     29  C   UNL     1       1.367   2.107  19.619  0.00  0.00    +0.000 C 
ENDBRANCH  26  28
ENDBRANCH   1  26
TORSDOF 5
ENDMDL
MODEL 3
REMARK VINA RESULT:      -7.7      0.892      1.204
REMARK  Name = 
REMARK  7 active torsions:
REMARK  status: ('A' for Active; 'I' for Inactive)
REMARK    1  A    between atoms: C_1  and  C_2
REMARK    2  A    between atoms: C_2  and  C_3
REMARK    3  A    between atoms: C_2  and  C_4
REMARK    4  A    between atoms: C_4  and  N_5
REMARK    5  A    between atoms: N_13  and  S_14
REMARK    6  A    between atoms: S_14  and  C_17
REMARK    7  A    between atoms: C_21  and  C_22
REMARK                            x       y       z     vdW  Elec       q    Type
REMARK                         _______ _______ _______ _____ _____    ______ ____
ROOT
ATOM      1  N   UNL     1       2.558   6.026  19.496  0.00  0.00    +0.000 N 
ATOM      2  C   UNL     1       1.934   5.662  20.678  0.00  0.00    +0.000 C 
ATOM      3  O   UNL     1       1.343   6.387  21.461  0.00  0.00    +0.000 OA
ATOM      4  C   UNL     1       2.168   4.186  20.849  0.00  0.00    +0.000 C 
ATOM      5  N   UNL     1       2.726   3.731  19.558  0.00  0.00    +0.000 NA
ATOM      6  C   UNL     1       3.309   4.931  18.906  0.00  0.00    +0.000 C 
ATOM      7  C   UNL     1       3.078   4.829  17.384  0.00  0.00    +0.000 C 
ATOM      8  C   UNL     1       4.008   3.829  16.706  0.00  0.00    +0.000 C 
ATOM      9  N   UNL     1       5.429   4.092  17.037  0.00  0.00    +0.000 NA
ATOM     10  C   UNL     1       5.642   3.970  18.508  0.00  0.00    +0.000 C 
ATOM     11  C   UNL     1       4.813   5.001  19.264  0.00  0.00    +0.000 C 
ATOM     12  H   UNL     1       1.922   3.437  19.001  0.00  0.00    +0.000 HD
ENDROOT
BRANCH   9  13
ATOM     13  S   UNL     1       6.217   5.416  16.298  0.00  0.00    +0.000 S 
ATOM     14  O   UNL     1       5.282   6.520  16.210  0.00  0.00    +0.000 OA
ATOM     15  O   UNL     1       7.494   5.595  16.956  0.00  0.00    +0.000 OA
BRANCH  13  16
ATOM     16  C   UNL     1       6.558   4.870  14.635  0.00  0.00    +0.000 A 
ATOM     17  C   UNL     1       7.747   5.272  14.024  0.00  0.00    +0.000 A 
ATOM     18  C   UNL     1       7.963   4.991  12.675  0.00  0.00    +0.000 A 
ATOM     19  C   UNL     1       6.994   4.307  11.939  0.00  0.00    +0.000 A 
ATOM     20  C   UNL     1       5.795   3.892  12.540  0.00  0.00    +0.000 A 
ATOM     21  C   UNL     1       5.577   4.190  13.897  0.00  0.00    +0.000 A 
BRANCH  20  22
ATOM     22  C   UNL     1       4.749   3.146  11.742  0.00  0.00    +0.000 C 
ATOM     23  F   UNL     1       3.569   2.996  12.389  0.00  0.00    +0.000 F 
ATOM     24  F   UNL     1       4.457   3.772  10.569  0.00  0.00    +0.000 F 
ATOM     25  F   UNL     1       5.158   1.892  11.402  0.00  0.00    +0.000 F 
ENDBRANCH  20  22
ENDBRANCH  13  16
ENDBRANCH   9  13
BRANCH   1  26
ATOM     26  C   UNL     1       2.815   7.434  19.184  0.00  0.00    +0.000 C 
BRANCH  26  28
ATOM     27  C   UNL     1       1.077   9.195  19.811  0.00  0.00    +0.000 C 
ATOM     28  C   UNL     1       1.581   8.232  18.737  0.00  0.00    +0.000 C 
ATOM     29  C   UNL     1       1.923   9.020  17.467  0.00  0.00    +0.000 C 
ENDBRANCH  26  28
ENDBRANCH   1  26
TORSDOF 5
ENDMDL
MODEL 4
REMARK VINA RESULT:      -7.5      1.454      3.007
REMARK  Name = 
REMARK  7 active torsions:
REMARK  status: ('A' for Active; 'I' for Inactive)
REMARK    1  A    between atoms: C_1  and  C_2
REMARK    2  A    between atoms: C_2  and  C_3
REMARK    3  A    between atoms: C_2  and  C_4
REMARK    4  A    between atoms: C_4  and  N_5
REMARK    5  A    between atoms: N_13  and  S_14
REMARK    6  A    between atoms: S_14  and  C_17
REMARK    7  A    between atoms: C_21  and  C_22
REMARK                            x       y       z     vdW  Elec       q    Type
REMARK                         _______ _______ _______ _____ _____    ______ ____
ROOT
ATOM      1  N   UNL     1       3.122   5.048  19.501  0.00  0.00    +0.000 N 
ATOM      2  C   UNL     1       1.986   5.747  19.875  0.00  0.00    +0.000 C 
ATOM      3  O   UNL     1       1.006   5.315  20.459  0.00  0.00    +0.000 OA
ATOM      4  C   UNL     1       2.164   7.154  19.374  0.00  0.00    +0.000 C 
ATOM      5  N   UNL     1       3.575   7.235  18.942  0.00  0.00    +0.000 NA
ATOM      6  C   UNL     1       4.012   5.842  18.671  0.00  0.00    +0.000 C 
ATOM      7  C   UNL     1       5.486   5.693  19.101  0.00  0.00    +0.000 C 
ATOM      8  C   UNL     1       6.461   6.343  18.125  0.00  0.00    +0.000 C 
ATOM      9  N   UNL     1       6.237   5.877  16.736  0.00  0.00    +0.000 NA
ATOM     10  C   UNL     1       4.858   6.236  16.292  0.00  0.00    +0.000 C 
ATOM     11  C   UNL     1       3.813   5.551  17.163  0.00  0.00    +0.000 C 
ATOM     12  H   UNL     1       4.092   7.568  19.758  0.00  0.00    +0.000 HD
ENDROOT
BRANCH   9  13
ATOM     13  S   UNL     1       6.753   4.308  16.298  0.00  0.00    +0.000 S 
ATOM     14  O   UNL     1       8.103   4.114  16.787  0.00  0.00    +0.000 OA
ATOM     15  O   UNL     1       5.706   3.379  16.664  0.00  0.00    +0.000 OA
BRANCH  13  16
ATOM     16  C   UNL     1       6.828   4.337  14.516  0.00  0.00    +0.000 A 
ATOM     17  C   UNL     1       7.804   5.119  13.895  0.00  0.00    +0.000 A 
ATOM     18  C   UNL     1       7.783   5.283  12.511  0.00  0.00    +0.000 A 
ATOM     19  C   UNL     1       6.793   4.663  11.747  0.00  0.00    +0.000 A 
ATOM     20  C   UNL     1       5.807   3.870  12.356  0.00  0.00    +0.000 A 
ATOM     21  C   UNL     1       5.824   3.719  13.755  0.00  0.00    +0.000 A 
BRANCH  20  22
ATOM     22  C   UNL     1       4.738   3.195  11.527  0.00  0.00    +0.000 C 
ATOM     23  F   UNL     1       5.073   1.954  11.102  0.00  0.00    +0.000 F 
ATOM     24  F   UNL     1       3.570   3.054  12.212  0.00  0.00    +0.000 F 
ATOM     25  F   UNL     1       4.427   3.908  10.408  0.00  0.00    +0.000 F 
ENDBRANCH  20  22
ENDBRANCH  13  16
ENDBRANCH   9  13
BRANCH   1  26
ATOM     26  C   UNL     1       3.149   3.585  19.533  0.00  0.00    +0.000 C 
BRANCH  26  28
ATOM     27  C   UNL     1       2.416   2.421  21.683  0.00  0.00    +0.000 C 
ATOM     28  C   UNL     1       3.588   2.975  20.873  0.00  0.00    +0.000 C 
ATOM     29  C   UNL     1       4.599   1.855  20.610  0.00  0.00    +0.000 C 
ENDBRANCH  26  28
ENDBRANCH   1  26
TORSDOF 5
ENDMDL
MODEL 5
REMARK VINA RESULT:      -7.1      5.606      7.951
REMARK  Name = 
REMARK  7 active torsions:
REMARK  status: ('A' for Active; 'I' for Inactive)
REMARK    1  A    between atoms: C_1  and  C_2
REMARK    2  A    between atoms: C_2  and  C_3
REMARK    3  A    between atoms: C_2  and  C_4
REMARK    4  A    between atoms: C_4  and  N_5
REMARK    5  A    between atoms: N_13  and  S_14
REMARK    6  A    between atoms: S_14  and  C_17
REMARK    7  A    between atoms: C_21  and  C_22
REMARK                            x       y       z     vdW  Elec       q    Type
REMARK                         _______ _______ _______ _____ _____    ______ ____
ROOT
ATOM      1  N   UNL     1      -2.429  12.040  19.826  0.00  0.00    +0.000 N 
ATOM      2  C   UNL     1      -2.992  13.026  20.620  0.00  0.00    +0.000 C 
ATOM      3  O   UNL     1      -3.963  13.719  20.367  0.00  0.00    +0.000 OA
ATOM      4  C   UNL     1      -2.141  13.119  21.857  0.00  0.00    +0.000 C 
ATOM      5  N   UNL     1      -1.244  11.946  21.798  0.00  0.00    +0.000 NA
ATOM      6  C   UNL     1      -1.179  11.537  20.372  0.00  0.00    +0.000 C 
ATOM      7  C   UNL     1      -1.098   9.999  20.301  0.00  0.00    +0.000 C 
ATOM      8  C   UNL     1       0.279   9.456  20.670  0.00  0.00    +0.000 C 
ATOM      9  N   UNL     1       1.352  10.107  19.881  0.00  0.00    +0.000 NA
ATOM     10  C   UNL     1       1.366  11.574  20.150  0.00  0.00    +0.000 C 
ATOM     11  C   UNL     1       0.052  12.216  19.723  0.00  0.00    +0.000 C 
ATOM     12  H   UNL     1      -1.728  11.206  22.310  0.00  0.00    +0.000 HD
ENDROOT
BRANCH   9  13
ATOM     13  S   UNL     1       1.554   9.668  18.242  0.00  0.00    +0.000 S 
ATOM     14  O   UNL     1       0.247   9.424  17.665  0.00  0.00    +0.000 OA
ATOM     15  O   UNL     1       2.449  10.628  17.634  0.00  0.00    +0.000 OA
BRANCH  13  16
ATOM     16  C   UNL     1       2.416   8.108  18.293  0.00  0.00    +0.000 A 
ATOM     17  C   UNL     1       2.207   7.259  19.382  0.00  0.00    +0.000 A 
ATOM     18  C   UNL     1       2.985   6.110  19.523  0.00  0.00    +0.000 A 
ATOM     19  C   UNL     1       3.967   5.808  18.577  0.00  0.00    +0.000 A 
ATOM     20  C   UNL     1       4.186   6.650  17.475  0.00  0.00    +0.000 A 
ATOM     21  C   UNL     1       3.407   7.815  17.344  0.00  0.00    +0.000 A 
BRANCH  20  22
ATOM     22  C   UNL     1       5.246   6.319  16.449  0.00  0.00    +0.000 C 
ATOM     23  F   UNL     1       5.444   4.992  16.273  0.00  0.00    +0.000 F 
ATOM     24  F   UNL     1       4.943   6.819  15.219  0.00  0.00    +0.000 F 
ATOM     25  F   UNL     1       6.459   6.844  16.775  0.00  0.00    +0.000 F 
ENDBRANCH  20  22
ENDBRANCH  13  16
ENDBRANCH   9  13
BRANCH   1  26
ATOM     26  C   UNL     1      -2.797  11.909  18.415  0.00  0.00    +0.000 C 
BRANCH  26  28
ATOM     27  C   UNL     1      -5.066  11.533  17.309  0.00  0.00    +0.000 C 
ATOM     28  C   UNL     1      -3.936  10.918  18.134  0.00  0.00    +0.000 C 
ATOM     29  C   UNL     1      -3.372   9.699  17.395  0.00  0.00    +0.000 C 
ENDBRANCH  26  28
ENDBRANCH   1  26
TORSDOF 5
ENDMDL
MODEL 6
REMARK VINA RESULT:      -7.0      5.869      8.252
REMARK  Name = 
REMARK  7 active torsions:
REMARK  status: ('A' for Active; 'I' for Inactive)
REMARK    1  A    between atoms: C_1  and  C_2
REMARK    2  A    between atoms: C_2  and  C_3
REMARK    3  A    between atoms: C_2  and  C_4
REMARK    4  A    between atoms: C_4  and  N_5
REMARK    5  A    between atoms: N_13  and  S_14
REMARK    6  A    between atoms: S_14  and  C_17
REMARK    7  A    between atoms: C_21  and  C_22
REMARK                            x       y       z     vdW  Elec       q    Type
REMARK                         _______ _______ _______ _____ _____    ______ ____
ROOT
ATOM      1  N   UNL     1      -2.344  12.016  19.709  0.00  0.00    +0.000 N 
ATOM      2  C   UNL     1      -2.910  13.019  20.479  0.00  0.00    +0.000 C 
ATOM      3  O   UNL     1      -3.880  13.706  20.207  0.00  0.00    +0.000 OA
ATOM      4  C   UNL     1      -2.060  13.142  21.714  0.00  0.00    +0.000 C 
ATOM      5  N   UNL     1      -1.162  11.969  21.684  0.00  0.00    +0.000 NA
ATOM      6  C   UNL     1      -1.095  11.527  20.268  0.00  0.00    +0.000 C 
ATOM      7  C   UNL     1      -1.013   9.987  20.233  0.00  0.00    +0.000 C 
ATOM      8  C   UNL     1       0.364   9.454  20.617  0.00  0.00    +0.000 C 
ATOM      9  N   UNL     1       1.438  10.087  19.815  0.00  0.00    +0.000 NA
ATOM     10  C   UNL     1       1.450  11.560  20.049  0.00  0.00    +0.000 C 
ATOM     11  C   UNL     1       0.137  12.191  19.606  0.00  0.00    +0.000 C 
ATOM     12  H   UNL     1      -1.646  11.240  22.212  0.00  0.00    +0.000 HD
ENDROOT
BRANCH   9  13
ATOM     13  S   UNL     1       1.642   9.611  18.186  0.00  0.00    +0.000 S 
ATOM     14  O   UNL     1       0.336   9.368  17.609  0.00  0.00    +0.000 OA
ATOM     15  O   UNL     1       2.551  10.547  17.562  0.00  0.00    +0.000 OA
BRANCH  13  16
ATOM     16  C   UNL     1       2.487   8.043  18.276  0.00  0.00    +0.000 A 
ATOM     17  C   UNL     1       3.585   7.820  17.442  0.00  0.00    +0.000 A 
ATOM     18  C   UNL     1       4.162   6.552  17.380  0.00  0.00    +0.000 A 
ATOM     19  C   UNL     1       3.646   5.510  18.152  0.00  0.00    +0.000 A 
ATOM     20  C   UNL     1       2.546   5.718  18.999  0.00  0.00    +0.000 A 
ATOM     21  C   UNL     1       1.959   6.996  19.047  0.00  0.00    +0.000 A 
BRANCH  20  22
ATOM     22  C   UNL     1       1.992   4.589  19.838  0.00  0.00    +0.000 C 
ATOM     23  F   UNL     1       1.082   4.984  20.759  0.00  0.00    +0.000 F 
ATOM     24  F   UNL     1       1.373   3.643  19.080  0.00  0.00    +0.000 F 
ATOM     25  F   UNL     1       2.968   3.933  20.526  0.00  0.00    +0.000 F 
ENDBRANCH  20  22
ENDBRANCH  13  16
ENDBRANCH   9  13
BRANCH   1  26
ATOM     26  C   UNL     1      -2.710  11.852  18.300  0.00  0.00    +0.000 C 
BRANCH  26  28
ATOM     27  C   UNL     1      -5.010  11.504  17.249  0.00  0.00    +0.000 C 
ATOM     28  C   UNL     1      -3.867  10.874  18.043  0.00  0.00    +0.000 C 
ATOM     29  C   UNL     1      -3.335   9.652  17.286  0.00  0.00    +0.000 C 
ENDBRANCH  26  28
ENDBRANCH   1  26
TORSDOF 5
ENDMDL
MODEL 7
REMARK VINA RESULT:      -6.9      3.592      7.543
REMARK  Name = 
REMARK  7 active torsions:
REMARK  status: ('A' for Active; 'I' for Inactive)
REMARK    1  A    between atoms: C_1  and  C_2
REMARK    2  A    between atoms: C_2  and  C_3
REMARK    3  A    between atoms: C_2  and  C_4
REMARK    4  A    between atoms: C_4  and  N_5
REMARK    5  A    between atoms: N_13  and  S_14
REMARK    6  A    between atoms: S_14  and  C_17
REMARK    7  A    between atoms: C_21  and  C_22
REMARK                            x       y       z     vdW  Elec       q    Type
REMARK                         _______ _______ _______ _____ _____    ______ ____
ROOT
ATOM      1  N   UNL     1       6.384   4.565  13.433  0.00  0.00    +0.000 N 
ATOM      2  C   UNL     1       7.458   4.636  12.560  0.00  0.00    +0.000 C 
ATOM      3  O   UNL     1       7.542   4.151  11.444  0.00  0.00    +0.000 OA
ATOM      4  C   UNL     1       8.542   5.394  13.276  0.00  0.00    +0.000 C 
ATOM      5  N   UNL     1       7.892   5.953  14.481  0.00  0.00    +0.000 NA
ATOM      6  C   UNL     1       6.697   5.111  14.742  0.00  0.00    +0.000 C 
ATOM      7  C   UNL     1       5.564   6.011  15.276  0.00  0.00    +0.000 C 
ATOM      8  C   UNL     1       5.768   6.428  16.729  0.00  0.00    +0.000 C 
ATOM      9  N   UNL     1       6.008   5.257  17.605  0.00  0.00    +0.000 NA
ATOM     10  C   UNL     1       7.241   4.539  17.172  0.00  0.00    +0.000 C 
ATOM     11  C   UNL     1       7.088   4.006  15.753  0.00  0.00    +0.000 C 
ATOM     12  H   UNL     1       7.563   6.881  14.209  0.00  0.00    +0.000 HD
ENDROOT
BRANCH   9  13
ATOM     13  S   UNL     1       4.690   4.251  18.018  0.00  0.00    +0.000 S 
ATOM     14  O   UNL     1       4.006   3.864  16.801  0.00  0.00    +0.000 OA
ATOM     15  O   UNL     1       5.174   3.240  18.933  0.00  0.00    +0.000 OA
BRANCH  13  16
ATOM     16  C   UNL     1       3.586   5.306  18.939  0.00  0.00    +0.000 A 
ATOM     17  C   UNL     1       2.982   4.804  20.094  0.00  0.00    +0.000 A 
ATOM     18  C   UNL     1       1.997   5.550  20.741  0.00  0.00    +0.000 A 
ATOM     19  C   UNL     1       1.620   6.796  20.238  0.00  0.00    +0.000 A 
ATOM     20  C   UNL     1       2.220   7.317  19.081  0.00  0.00    +0.000 A 
ATOM     21  C   UNL     1       3.203   6.554  18.424  0.00  0.00    +0.000 A 
BRANCH  20  22
ATOM     22  C   UNL     1       1.813   8.668  18.540  0.00  0.00    +0.000 C 
ATOM     23  F   UNL     1       1.154   9.442  19.435  0.00  0.00    +0.000 F 
ATOM     24  F   UNL     1       2.884   9.401  18.129  0.00  0.00    +0.000 F 
ATOM     25  F   UNL     1       0.996   8.564  17.455  0.00  0.00    +0.000 F 
ENDBRANCH  20  22
ENDBRANCH  13  16
ENDBRANCH   9  13
BRANCH   1  26
ATOM     26  C   UNL     1       5.286   3.624  13.198  0.00  0.00    +0.000 C 
BRANCH  26  28
ATOM     27  C   UNL     1       5.565   1.704  11.540  0.00  0.00    +0.000 C 
ATOM     28  C   UNL     1       5.136   3.157  11.742  0.00  0.00    +0.000 C 
ATOM     29  C   UNL     1       3.675   3.321  11.308  0.00  0.00    +0.000 C 
ENDBRANCH  26  28
ENDBRANCH   1  26
TORSDOF 5
ENDMDL
MODEL 8
REMARK VINA RESULT:      -6.8      8.937     11.967
REMARK  Name = 
REMARK  7 active torsions:
REMARK  status: ('A' for Active; 'I' for Inactive)
REMARK    1  A    between atoms: C_1  and  C_2
REMARK    2  A    between atoms: C_2  and  C_3
REMARK    3  A    between atoms: C_2  and  C_4
REMARK    4  A    between atoms: C_4  and  N_5
REMARK    5  A    between atoms: N_13  and  S_14
REMARK    6  A    between atoms: S_14  and  C_17
REMARK    7  A    between atoms: C_21  and  C_22
REMARK                            x       y       z     vdW  Elec       q    Type
REMARK                         _______ _______ _______ _____ _____    ______ ____
ROOT
ATOM      1  N   UNL     1       1.197  16.425  18.542  0.00  0.00    +0.000 N 
ATOM      2  C   UNL     1       1.031  17.583  17.799  0.00  0.00    +0.000 C 
ATOM      3  O   UNL     1       1.898  18.251  17.261  0.00  0.00    +0.000 OA
ATOM      4  C   UNL     1      -0.439  17.899  17.821  0.00  0.00    +0.000 C 
ATOM      5  N   UNL     1      -1.084  16.699  18.396  0.00  0.00    +0.000 NA
ATOM      6  C   UNL     1      -0.037  15.992  19.176  0.00  0.00    +0.000 C 
ATOM      7  C   UNL     1      -0.255  14.472  19.033  0.00  0.00    +0.000 C 
ATOM      8  C   UNL     1      -1.427  13.957  19.862  0.00  0.00    +0.000 C 
ATOM      9  N   UNL     1      -1.316  14.372  21.281  0.00  0.00    +0.000 NA
ATOM     10  C   UNL     1      -1.322  15.861  21.380  0.00  0.00    +0.000 C 
ATOM     11  C   UNL     1      -0.126  16.458  20.650  0.00  0.00    +0.000 C 
ATOM     12  H   UNL     1      -1.326  16.110  17.597  0.00  0.00    +0.000 HD
ENDROOT
BRANCH   9  13
ATOM     13  S   UNL     1      -0.181  13.584  22.286  0.00  0.00    +0.000 S 
ATOM     14  O   UNL     1       1.140  14.091  21.976  0.00  0.00    +0.000 OA
ATOM     15  O   UNL     1      -0.681  13.636  23.643  0.00  0.00    +0.000 OA
BRANCH  13  16
ATOM     16  C   UNL     1      -0.233  11.876  21.775  0.00  0.00    +0.000 A 
ATOM     17  C   UNL     1      -0.705  10.917  22.674  0.00  0.00    +0.000 A 
ATOM     18  C   UNL     1      -0.608   9.563  22.357  0.00  0.00    +0.000 A 
ATOM     19  C   UNL     1      -0.043   9.167  21.143  0.00  0.00    +0.000 A 
ATOM     20  C   UNL     1       0.434  10.118  20.227  0.00  0.00    +0.000 A 
ATOM     21  C   UNL     1       0.345  11.483  20.558  0.00  0.00    +0.000 A 
BRANCH  20  22
ATOM     22  C   UNL     1       1.041   9.687  18.912  0.00  0.00    +0.000 C 
ATOM     23  F   UNL     1       1.978  10.539  18.434  0.00  0.00    +0.000 F 
ATOM     24  F   UNL     1       1.649   8.473  19.001  0.00  0.00    +0.000 F 
ATOM     25  F   UNL     1       0.106   9.562  17.929  0.00  0.00    +0.000 F 
ENDBRANCH  20  22
ENDBRANCH  13  16
ENDBRANCH   9  13
BRANCH   1  26
ATOM     26  C   UNL     1       2.523  16.012  19.005  0.00  0.00    +0.000 C 
BRANCH  26  28
ATOM     27  C   UNL     1       4.806  15.412  18.034  0.00  0.00    +0.000 C 
ATOM     28  C   UNL     1       3.305  15.127  18.022  0.00  0.00    +0.000 C 
ATOM     29  C   UNL     1       3.064  13.654  18.370  0.00  0.00    +0.000 C 
ENDBRANCH  26  28
ENDBRANCH   1  26
TORSDOF 5
ENDMDL
MODEL 9
REMARK VINA RESULT:      -6.7      8.727     12.416
REMARK  Name = 
REMARK  7 active torsions:
REMARK  status: ('A' for Active; 'I' for Inactive)
REMARK    1  A    between atoms: C_1  and  C_2
REMARK    2  A    between atoms: C_2  and  C_3
REMARK    3  A    between atoms: C_2  and  C_4
REMARK    4  A    between atoms: C_4  and  N_5
REMARK    5  A    between atoms: N_13  and  S_14
REMARK    6  A    between atoms: S_14  and  C_17
REMARK    7  A    between atoms: C_21  and  C_22
REMARK                            x       y       z     vdW  Elec       q    Type
REMARK                         _______ _______ _______ _____ _____    ______ ____
ROOT
ATOM      1  N   UNL     1       1.010   9.736  20.093  0.00  0.00    +0.000 N 
ATOM      2  C   UNL     1       1.599   8.768  19.296  0.00  0.00    +0.000 C 
ATOM      3  O   UNL     1       2.200   7.771  19.659  0.00  0.00    +0.000 OA
ATOM      4  C   UNL     1       1.402   9.208  17.871  0.00  0.00    +0.000 C 
ATOM      5  N   UNL     1       0.443  10.331  17.943  0.00  0.00    +0.000 NA
ATOM      6  C   UNL     1       0.531  10.871  19.323  0.00  0.00    +0.000 C 
ATOM      7  C   UNL     1      -0.875  11.318  19.771  0.00  0.00    +0.000 C 
ATOM      8  C   UNL     1      -1.317  12.629  19.130  0.00  0.00    +0.000 C 
ATOM      9  N   UNL     1      -0.307  13.698  19.320  0.00  0.00    +0.000 NA
ATOM     10  C   UNL     1       0.981  13.303  18.681  0.00  0.00    +0.000 C 
ATOM     11  C   UNL     1       1.543  12.043  19.327  0.00  0.00    +0.000 C 
ATOM     12  H   UNL     1      -0.481   9.909  17.835  0.00  0.00    +0.000 HD
ENDROOT
BRANCH   9  13
ATOM     13  S   UNL     1      -0.160  14.430  20.857  0.00  0.00    +0.000 S 
ATOM     14  O   UNL     1       0.573  13.533  21.727  0.00  0.00    +0.000 OA
ATOM     15  O   UNL     1       0.299  15.788  20.658  0.00  0.00    +0.000 OA
BRANCH  13  16
ATOM     16  C   UNL     1      -1.830  14.528  21.474  0.00  0.00    +0.000 A 
ATOM     17  C   UNL     1      -2.642  15.585  21.056  0.00  0.00    +0.000 A 
ATOM     18  C   UNL     1      -3.893  15.772  21.643  0.00  0.00    +0.000 A 
ATOM     19  C   UNL     1      -4.333  14.904  22.644  0.00  0.00    +0.000 A 
ATOM     20  C   UNL     1      -3.531  13.835  23.073  0.00  0.00    +0.000 A 
ATOM     21  C   UNL     1      -2.264  13.659  22.486  0.00  0.00    +0.000 A 
BRANCH  20  22
ATOM     22  C   UNL     1      -4.011  12.893  24.153  0.00  0.00    +0.000 C 
ATOM     23  F   UNL     1      -5.344  12.659  24.125  0.00  0.00    +0.000 F 
ATOM     24  F   UNL     1      -3.415  11.672  24.072  0.00  0.00    +0.000 F 
ATOM     25  F   UNL     1      -3.734  13.359  25.403  0.00  0.00    +0.000 F 
ENDBRANCH  20  22
ENDBRANCH  13  16
ENDBRANCH   9  13
BRANCH   1  26
ATOM     26  C   UNL     1       1.295   9.803  21.528  0.00  0.00    +0.000 C 
BRANCH  26  28
ATOM     27  C   UNL     1      -0.656  10.197  23.126  0.00  0.00    +0.000 C 
ATOM     28  C   UNL     1       0.228   9.163  22.430  0.00  0.00    +0.000 C 
ATOM     29  C   UNL     1      -0.648   8.228  21.588  0.00  0.00    +0.000 C 
ENDBRANCH  26  28
ENDBRANCH   1  26
TORSDOF 5
ENDMDL
