MODEL 1
REMARK VINA RESULT:      -7.8      0.000      0.000
REMARK  Name = 
REMARK  5 active torsions:
REMARK  status: ('A' for Active; 'I' for Inactive)
REMARK    1  A    between atoms: C_1  and  C_2
REMARK    2  A    between atoms: C_5  and  N_6
REMARK    3  A    between atoms: C_7  and  C_9
REMARK    4  A    between atoms: N_12  and  S_13
REMARK    5  A    between atoms: S_13  and  C_16
REMARK                            x       y       z     vdW  Elec       q    Type
REMARK                         _______ _______ _______ _____ _____    ______ ____
ROOT
ATOM      1  C   UNL     1       7.471   6.294  17.854  0.00  0.00    +0.000 C 
ATOM      2  C   UNL     1       7.040   5.668  19.189  0.00  0.00    +0.000 C 
ATOM      3  C   UNL     1       5.567   5.250  19.192  0.00  0.00    +0.000 C 
ATOM      4  N   UNL     1       4.696   6.386  18.793  0.00  0.00    +0.000 NA
ATOM      5  C   UNL     1       5.080   7.026  17.511  0.00  0.00    +0.000 C 
ATOM      6  C   UNL     1       6.540   7.470  17.547  0.00  0.00    +0.000 C 
ENDROOT
BRANCH   1   8
ATOM      7  N   UNL     1       6.927   5.699  15.536  0.00  0.00    +0.000 N 
ATOM      8  C   UNL     1       7.477   5.253  16.727  0.00  0.00    +0.000 C 
ATOM      9  O   UNL     1       7.961   4.138  16.903  0.00  0.00    +0.000 OA
ATOM     10  H   UNL     1       6.816   6.698  15.415  0.00  0.00    +0.000 HD
BRANCH   7  15
ATOM     11  C   UNL     1       5.765   2.428  10.966  0.00  0.00    +0.000 C 
ATOM     12  C   UNL     1       6.088   3.271  12.164  0.00  0.00    +0.000 A 
ATOM     13  C   UNL     1       7.247   4.047  12.193  0.00  0.00    +0.000 A 
ATOM     14  C   UNL     1       7.537   4.848  13.301  0.00  0.00    +0.000 A 
ATOM     15  C   UNL     1       6.677   4.893  14.400  0.00  0.00    +0.000 A 
ATOM     16  C   UNL     1       5.533   4.089  14.388  0.00  0.00    +0.000 A 
ATOM     17  C   UNL     1       5.234   3.293  13.273  0.00  0.00    +0.000 A 
ENDBRANCH   7  15
ENDBRANCH   1   8
BRANCH   4  18
ATOM     18  S   UNL     1       3.011   6.058  18.934  0.00  0.00    +0.000 S 
ATOM     19  O   UNL     1       2.635   6.203  20.324  0.00  0.00    +0.000 OA
ATOM     20  O   UNL     1       2.323   6.784  17.887  0.00  0.00    +0.000 OA
BRANCH  18  21
ATOM     21  C   UNL     1       2.777   4.315  18.589  0.00  0.00    +0.000 A 
ATOM     22  C   UNL     1       2.876   3.589  17.413  0.00  0.00    +0.000 A 
ATOM     23  C   UNL     1       2.538   2.215  17.589  0.00  0.00    +0.000 A 
ATOM     24  C   UNL     1       2.209   1.931  18.896  0.00  0.00    +0.000 A 
ATOM     25  S   UNL     1       2.312   3.312  19.899  0.00  0.00    +0.000 S 
ENDBRANCH  18  21
ENDBRANCH   4  18
TORSDOF 4
ENDMDL
MODEL 2
REMARK VINA RESULT:      -7.5      0.247      1.011
REMARK  Name = 
REMARK  5 active torsions:
REMARK  status: ('A' for Active; 'I' for Inactive)
REMARK    1  A    between atoms: C_1  and  C_2
REMARK    2  A    between atoms: C_5  and  N_6
REMARK    3  A    between atoms: C_7  and  C_9
REMARK    4  A    between atoms: N_12  and  S_13
REMARK    5  A    between atoms: S_13  and  C_16
REMARK                            x       y       z     vdW  Elec       q    Type
REMARK                         _______ _______ _______ _____ _____    ______ ____
ROOT
ATOM      1  C   UNL     1       7.413   6.291  17.820  0.00  0.00    +0.000 C 
ATOM      2  C   UNL     1       6.955   5.686  19.156  0.00  0.00    +0.000 C 
ATOM      3  C   UNL     1       5.473   5.302  19.147  0.00  0.00    +0.000 C 
ATOM      4  N   UNL     1       4.632   6.454  18.730  0.00  0.00    +0.000 NA
ATOM      5  C   UNL     1       5.043   7.074  17.447  0.00  0.00    +0.000 C 
ATOM      6  C   UNL     1       6.512   7.485  17.494  0.00  0.00    +0.000 C 
ENDROOT
BRANCH   1   8
ATOM      7  N   UNL     1       6.805   5.663  15.527  0.00  0.00    +0.000 N 
ATOM      8  C   UNL     1       7.407   5.241  16.702  0.00  0.00    +0.000 C 
ATOM      9  O   UNL     1       7.925   4.140  16.870  0.00  0.00    +0.000 OA
ATOM     10  H   UNL     1       6.664   6.657  15.403  0.00  0.00    +0.000 HD
BRANCH   7  15
ATOM     11  C   UNL     1       5.865   2.328  10.952  0.00  0.00    +0.000 C 
ATOM     12  C   UNL     1       6.091   3.212  12.143  0.00  0.00    +0.000 A 
ATOM     13  C   UNL     1       5.161   3.253  13.183  0.00  0.00    +0.000 A 
ATOM     14  C   UNL     1       5.383   4.061  14.301  0.00  0.00    +0.000 A 
ATOM     15  C   UNL     1       6.536   4.841  14.407  0.00  0.00    +0.000 A 
ATOM     16  C   UNL     1       7.452   4.828  13.351  0.00  0.00    +0.000 A 
ATOM     17  C   UNL     1       7.237   4.010  12.232  0.00  0.00    +0.000 A 
ENDBRANCH   7  15
ENDBRANCH   1   8
BRANCH   4  18
ATOM     18  S   UNL     1       2.939   6.165  18.857  0.00  0.00    +0.000 S 
ATOM     19  O   UNL     1       2.562   6.276  20.249  0.00  0.00    +0.000 OA
ATOM     20  O   UNL     1       2.273   6.941  17.831  0.00  0.00    +0.000 OA
BRANCH  18  21
ATOM     21  C   UNL     1       2.660   4.440  18.456  0.00  0.00    +0.000 A 
ATOM     22  C   UNL     1       3.117   3.654  17.411  0.00  0.00    +0.000 A 
ATOM     23  C   UNL     1       2.587   2.331  17.451  0.00  0.00    +0.000 A 
ATOM     24  C   UNL     1       1.758   2.143  18.534  0.00  0.00    +0.000 A 
ATOM     25  S   UNL     1       1.625   3.551  19.493  0.00  0.00    +0.000 S 
ENDBRANCH  18  21
ENDBRANCH   4  18
TORSDOF 4
ENDMDL
MODEL 3
REMARK VINA RESULT:      -7.5      1.873      2.817
REMARK  Name = 
REMARK  5 active torsions:
REMARK  status: ('A' for Active; 'I' for Inactive)
REMARK    1  A    between atoms: C_1  and  C_2
REMARK    2  A    between atoms: C_5  and  N_6
REMARK    3  A    between atoms: C_7  and  C_9
REMARK    4  A    between atoms: N_12  and  S_13
REMARK    5  A    between atoms: S_13  and  C_16
REMARK                            x       y       z     vdW  Elec       q    Type
REMARK                         _______ _______ _______ _____ _____    ______ ____
ROOT
ATOM      1  C   UNL     1       7.529   6.293  17.799  0.00  0.00    +0.000 C 
ATOM      2  C   UNL     1       7.146   5.668  19.149  0.00  0.00    +0.000 C 
ATOM      3  C   UNL     1       5.684   5.216  19.192  0.00  0.00    +0.000 C 
ATOM      4  N   UNL     1       4.778   6.329  18.807  0.00  0.00    +0.000 NA
ATOM      5  C   UNL     1       5.114   6.967  17.511  0.00  0.00    +0.000 C 
ATOM      6  C   UNL     1       6.564   7.444  17.506  0.00  0.00    +0.000 C 
ENDROOT
BRANCH   1   8
ATOM      7  N   UNL     1       6.976   5.680  15.487  0.00  0.00    +0.000 N 
ATOM      8  C   UNL     1       7.531   5.242  16.680  0.00  0.00    +0.000 C 
ATOM      9  O   UNL     1       8.015   4.129  16.863  0.00  0.00    +0.000 OA
ATOM     10  H   UNL     1       6.866   6.677  15.359  0.00  0.00    +0.000 HD
BRANCH   7  15
ATOM     11  C   UNL     1       5.797   2.370  10.950  0.00  0.00    +0.000 C 
ATOM     12  C   UNL     1       6.125   3.223  12.139  0.00  0.00    +0.000 A 
ATOM     13  C   UNL     1       7.265   4.028  12.142  0.00  0.00    +0.000 A 
ATOM     14  C   UNL     1       7.560   4.838  13.242  0.00  0.00    +0.000 A 
ATOM     15  C   UNL     1       6.722   4.865  14.359  0.00  0.00    +0.000 A 
ATOM     16  C   UNL     1       5.597   4.033  14.373  0.00  0.00    +0.000 A 
ATOM     17  C   UNL     1       5.295   3.227  13.266  0.00  0.00    +0.000 A 
ENDBRANCH   7  15
ENDBRANCH   1   8
BRANCH   4  18
ATOM     18  S   UNL     1       3.105   5.964  18.993  0.00  0.00    +0.000 S 
ATOM     19  O   UNL     1       2.654   5.282  17.800  0.00  0.00    +0.000 OA
ATOM     20  O   UNL     1       2.913   5.389  20.309  0.00  0.00    +0.000 OA
BRANCH  18  21
ATOM     21  C   UNL     1       2.215   7.520  18.979  0.00  0.00    +0.000 A 
ATOM     22  C   UNL     1       1.966   8.428  17.963  0.00  0.00    +0.000 A 
ATOM     23  C   UNL     1       1.261   9.579  18.419  0.00  0.00    +0.000 A 
ATOM     24  C   UNL     1       0.976   9.507  19.764  0.00  0.00    +0.000 A 
ATOM     25  S   UNL     1       1.555   8.060  20.466  0.00  0.00    +0.000 S 
ENDBRANCH  18  21
ENDBRANCH   4  18
TORSDOF 4
ENDMDL
MODEL 4
REMARK VINA RESULT:      -7.2      3.339      7.065
REMARK  Name = 
REMARK  5 active torsions:
REMARK  status: ('A' for Active; 'I' for Inactive)
REMARK    1  A    between atoms: C_1  and  C_2
REMARK    2  A    between atoms: C_5  and  N_6
REMARK    3  A    between atoms: C_7  and  C_9
REMARK    4  A    between atoms: N_12  and  S_13
REMARK    5  A    between atoms: S_13  and  C_16
REMARK                            x       y       z     vdW  Elec       q    Type
REMARK                         _______ _______ _______ _____ _____    ______ ____
ROOT
ATOM      1  C   UNL     1       3.714   3.597  18.958  0.00  0.00    +0.000 C 
ATOM      2  C   UNL     1       5.118   4.121  19.296  0.00  0.00    +0.000 C 
ATOM      3  C   UNL     1       5.616   5.158  18.285  0.00  0.00    +0.000 C 
ATOM      4  N   UNL     1       5.528   4.627  16.900  0.00  0.00    +0.000 NA
ATOM      5  C   UNL     1       4.190   4.104  16.532  0.00  0.00    +0.000 C 
ATOM      6  C   UNL     1       3.733   3.044  17.531  0.00  0.00    +0.000 C 
ENDROOT
BRANCH   1   8
ATOM      7  N   UNL     1       3.135   5.982  18.991  0.00  0.00    +0.000 N 
ATOM      8  C   UNL     1       2.653   4.691  19.139  0.00  0.00    +0.000 C 
ATOM      9  O   UNL     1       1.483   4.400  19.371  0.00  0.00    +0.000 OA
ATOM     10  H   UNL     1       4.031   6.099  18.535  0.00  0.00    +0.000 HD
BRANCH   7  15
ATOM     11  C   UNL     1       0.129  10.782  19.915  0.00  0.00    +0.000 C 
ATOM     12  C   UNL     1       0.930   9.534  19.689  0.00  0.00    +0.000 A 
ATOM     13  C   UNL     1       1.123   8.619  20.724  0.00  0.00    +0.000 A 
ATOM     14  C   UNL     1       1.853   7.446  20.508  0.00  0.00    +0.000 A 
ATOM     15  C   UNL     1       2.401   7.162  19.256  0.00  0.00    +0.000 A 
ATOM     16  C   UNL     1       2.239   8.095  18.226  0.00  0.00    +0.000 A 
ATOM     17  C   UNL     1       1.498   9.267  18.438  0.00  0.00    +0.000 A 
ENDBRANCH   7  15
ENDBRANCH   1   8
BRANCH   4  18
ATOM     18  S   UNL     1       6.227   5.660  15.711  0.00  0.00    +0.000 S 
ATOM     19  O   UNL     1       5.297   6.735  15.441  0.00  0.00    +0.000 OA
ATOM     20  O   UNL     1       7.597   5.927  16.096  0.00  0.00    +0.000 OA
BRANCH  18  21
ATOM     21  C   UNL     1       6.297   4.735  14.177  0.00  0.00    +0.000 A 
ATOM     22  C   UNL     1       5.476   3.745  13.663  0.00  0.00    +0.000 A 
ATOM     23  C   UNL     1       5.950   3.236  12.418  0.00  0.00    +0.000 A 
ATOM     24  C   UNL     1       7.105   3.864  12.012  0.00  0.00    +0.000 A 
ATOM     25  S   UNL     1       7.610   5.060  13.125  0.00  0.00    +0.000 S 
ENDBRANCH  18  21
ENDBRANCH   4  18
TORSDOF 4
ENDMDL
MODEL 5
REMARK VINA RESULT:      -7.2      3.508      7.207
REMARK  Name = 
REMARK  5 active torsions:
REMARK  status: ('A' for Active; 'I' for Inactive)
REMARK    1  A    between atoms: C_1  and  C_2
REMARK    2  A    between atoms: C_5  and  N_6
REMARK    3  A    between atoms: C_7  and  C_9
REMARK    4  A    between atoms: N_12  and  S_13
REMARK    5  A    between atoms: S_13  and  C_16
REMARK                            x       y       z     vdW  Elec       q    Type
REMARK                         _______ _______ _______ _____ _____    ______ ____
ROOT
ATOM      1  C   UNL     1       3.795   3.827  18.945  0.00  0.00    +0.000 C 
ATOM      2  C   UNL     1       5.164   4.447  19.261  0.00  0.00    +0.000 C 
ATOM      3  C   UNL     1       5.631   5.421  18.175  0.00  0.00    +0.000 C 
ATOM      4  N   UNL     1       5.599   4.774  16.838  0.00  0.00    +0.000 NA
ATOM      5  C   UNL     1       4.295   4.155  16.493  0.00  0.00    +0.000 C 
ATOM      6  C   UNL     1       3.871   3.160  17.569  0.00  0.00    +0.000 C 
ENDROOT
BRANCH   1   8
ATOM      7  N   UNL     1       3.113   6.149  19.352  0.00  0.00    +0.000 N 
ATOM      8  C   UNL     1       2.678   4.877  19.017  0.00  0.00    +0.000 C 
ATOM      9  O   UNL     1       1.514   4.576  18.766  0.00  0.00    +0.000 OA
ATOM     10  H   UNL     1       4.102   6.345  19.264  0.00  0.00    +0.000 HD
BRANCH   7  15
ATOM     11  C   UNL     1      -0.275  10.602  20.626  0.00  0.00    +0.000 C 
ATOM     12  C   UNL     1       0.596   9.432  20.277  0.00  0.00    +0.000 A 
ATOM     13  C   UNL     1       1.180   9.336  19.013  0.00  0.00    +0.000 A 
ATOM     14  C   UNL     1       2.008   8.256  18.694  0.00  0.00    +0.000 A 
ATOM     15  C   UNL     1       2.272   7.252  19.629  0.00  0.00    +0.000 A 
ATOM     16  C   UNL     1       1.659   7.328  20.884  0.00  0.00    +0.000 A 
ATOM     17  C   UNL     1       0.836   8.417  21.210  0.00  0.00    +0.000 A 
ENDBRANCH   7  15
ENDBRANCH   1   8
BRANCH   4  18
ATOM     18  S   UNL     1       6.270   5.739  15.579  0.00  0.00    +0.000 S 
ATOM     19  O   UNL     1       5.342   6.809  15.283  0.00  0.00    +0.000 OA
ATOM     20  O   UNL     1       7.654   6.010  15.908  0.00  0.00    +0.000 OA
BRANCH  18  21
ATOM     21  C   UNL     1       6.284   4.738  14.091  0.00  0.00    +0.000 A 
ATOM     22  C   UNL     1       5.387   3.801  13.605  0.00  0.00    +0.000 A 
ATOM     23  C   UNL     1       5.835   3.192  12.396  0.00  0.00    +0.000 A 
ATOM     24  C   UNL     1       7.050   3.696  11.987  0.00  0.00    +0.000 A 
ATOM     25  S   UNL     1       7.639   4.894  13.054  0.00  0.00    +0.000 S 
ENDBRANCH  18  21
ENDBRANCH   4  18
TORSDOF 4
ENDMDL
MODEL 6
REMARK VINA RESULT:      -7.0      1.001      1.622
REMARK  Name = 
REMARK  5 active torsions:
REMARK  status: ('A' for Active; 'I' for Inactive)
REMARK    1  A    between atoms: C_1  and  C_2
REMARK    2  A    between atoms: C_5  and  N_6
REMARK    3  A    between atoms: C_7  and  C_9
REMARK    4  A    between atoms: N_12  and  S_13
REMARK    5  A    between atoms: S_13  and  C_16
REMARK                            x       y       z     vdW  Elec       q    Type
REMARK                         _______ _______ _______ _____ _____    ______ ____
ROOT
ATOM      1  C   UNL     1       7.459   6.175  17.871  0.00  0.00    +0.000 C 
ATOM      2  C   UNL     1       6.981   5.546  19.189  0.00  0.00    +0.000 C 
ATOM      3  C   UNL     1       5.499   5.165  19.153  0.00  0.00    +0.000 C 
ATOM      4  N   UNL     1       4.666   6.326  18.747  0.00  0.00    +0.000 NA
ATOM      5  C   UNL     1       5.095   6.970  17.481  0.00  0.00    +0.000 C 
ATOM      6  C   UNL     1       6.564   7.376  17.555  0.00  0.00    +0.000 C 
ENDROOT
BRANCH   1   8
ATOM      7  N   UNL     1       6.970   5.622  15.530  0.00  0.00    +0.000 N 
ATOM      8  C   UNL     1       7.465   5.145  16.733  0.00  0.00    +0.000 C 
ATOM      9  O   UNL     1       7.904   4.012  16.912  0.00  0.00    +0.000 OA
ATOM     10  H   UNL     1       6.897   6.625  15.417  0.00  0.00    +0.000 HD
BRANCH   7  15
ATOM     11  C   UNL     1       6.142   2.444  10.825  0.00  0.00    +0.000 C 
ATOM     12  C   UNL     1       6.339   3.286  12.050  0.00  0.00    +0.000 A 
ATOM     13  C   UNL     1       5.415   3.243  13.095  0.00  0.00    +0.000 A 
ATOM     14  C   UNL     1       5.609   4.013  14.245  0.00  0.00    +0.000 A 
ATOM     15  C   UNL     1       6.729   4.837  14.378  0.00  0.00    +0.000 A 
ATOM     16  C   UNL     1       7.637   4.908  13.317  0.00  0.00    +0.000 A 
ATOM     17  C   UNL     1       7.450   4.129  12.166  0.00  0.00    +0.000 A 
ENDBRANCH   7  15
ENDBRANCH   1   8
BRANCH   4  18
ATOM     18  S   UNL     1       2.970   6.039  18.845  0.00  0.00    +0.000 S 
ATOM     19  O   UNL     1       2.376   7.095  19.636  0.00  0.00    +0.000 OA
ATOM     20  O   UNL     1       2.489   5.730  17.515  0.00  0.00    +0.000 OA
BRANCH  18  21
ATOM     21  C   UNL     1       2.737   4.560  19.832  0.00  0.00    +0.000 A 
ATOM     22  C   UNL     1       2.423   4.388  21.170  0.00  0.00    +0.000 A 
ATOM     23  C   UNL     1       2.399   3.015  21.553  0.00  0.00    +0.000 A 
ATOM     24  C   UNL     1       2.676   2.182  20.493  0.00  0.00    +0.000 A 
ATOM     25  S   UNL     1       2.959   3.052  19.049  0.00  0.00    +0.000 S 
ENDBRANCH  18  21
ENDBRANCH   4  18
TORSDOF 4
ENDMDL
MODEL 7
REMARK VINA RESULT:      -7.0      3.133      5.836
REMARK  Name = 
REMARK  5 active torsions:
REMARK  status: ('A' for Active; 'I' for Inactive)
REMARK    1  A    between atoms: C_1  and  C_2
REMARK    2  A    between atoms: C_5  and  N_6
REMARK    3  A    between atoms: C_7  and  C_9
REMARK    4  A    between atoms: N_12  and  S_13
REMARK    5  A    between atoms: S_13  and  C_16
REMARK                            x       y       z     vdW  Elec       q    Type
REMARK                         _______ _______ _______ _____ _____    ______ ____
ROOT
ATOM      1  C   UNL     1       7.868   5.729  18.382  0.00  0.00    +0.000 C 
ATOM      2  C   UNL     1       7.423   4.810  17.235  0.00  0.00    +0.000 C 
ATOM      3  C   UNL     1       5.934   4.952  16.912  0.00  0.00    +0.000 C 
ATOM      4  N   UNL     1       5.110   4.768  18.135  0.00  0.00    +0.000 NA
ATOM      5  C   UNL     1       5.508   5.633  19.272  0.00  0.00    +0.000 C 
ATOM      6  C   UNL     1       6.986   5.444  19.601  0.00  0.00    +0.000 C 
ENDROOT
BRANCH   1   8
ATOM      7  N   UNL     1       8.667   8.031  18.681  0.00  0.00    +0.000 N 
ATOM      8  C   UNL     1       7.815   7.205  17.965  0.00  0.00    +0.000 C 
ATOM      9  O   UNL     1       7.082   7.575  17.051  0.00  0.00    +0.000 OA
ATOM     10  H   UNL     1       9.413   7.593  19.205  0.00  0.00    +0.000 HD
BRANCH   7  15
ATOM     11  C   UNL     1       8.919  13.758  18.420  0.00  0.00    +0.000 C 
ATOM     12  C   UNL     1       8.831  12.262  18.490  0.00  0.00    +0.000 A 
ATOM     13  C   UNL     1       8.144  11.546  17.508  0.00  0.00    +0.000 A 
ATOM     14  C   UNL     1       8.079  10.151  17.563  0.00  0.00    +0.000 A 
ATOM     15  C   UNL     1       8.699   9.442  18.595  0.00  0.00    +0.000 A 
ATOM     16  C   UNL     1       9.357  10.160  19.598  0.00  0.00    +0.000 A 
ATOM     17  C   UNL     1       9.433  11.560  19.540  0.00  0.00    +0.000 A 
ENDBRANCH   7  15
ENDBRANCH   1   8
BRANCH   4  18
ATOM     18  S   UNL     1       3.413   4.741  17.837  0.00  0.00    +0.000 S 
ATOM     19  O   UNL     1       2.932   6.105  17.830  0.00  0.00    +0.000 OA
ATOM     20  O   UNL     1       3.167   3.848  16.724  0.00  0.00    +0.000 OA
BRANCH  18  21
ATOM     21  C   UNL     1       2.633   4.001  19.271  0.00  0.00    +0.000 A 
ATOM     22  C   UNL     1       1.492   4.346  19.977  0.00  0.00    +0.000 A 
ATOM     23  C   UNL     1       1.273   3.504  21.106  0.00  0.00    +0.000 A 
ATOM     24  C   UNL     1       2.242   2.533  21.218  0.00  0.00    +0.000 A 
ATOM     25  S   UNL     1       3.402   2.636  19.966  0.00  0.00    +0.000 S 
ENDBRANCH  18  21
ENDBRANCH   4  18
TORSDOF 4
ENDMDL
MODEL 8
REMARK VINA RESULT:      -6.9      0.992      1.291
REMARK  Name = 
REMARK  5 active torsions:
REMARK  status: ('A' for Active; 'I' for Inactive)
REMARK    1  A    between atoms: C_1  and  C_2
REMARK    2  A    between atoms: C_5  and  N_6
REMARK    3  A    between atoms: C_7  and  C_9
REMARK    4  A    between atoms: N_12  and  S_13
REMARK    5  A    between atoms: S_13  and  C_16
REMARK                            x       y       z     vdW  Elec       q    Type
REMARK                         _______ _______ _______ _____ _____    ______ ____
ROOT
ATOM      1  C   UNL     1       7.291   6.234  17.910  0.00  0.00    +0.000 C 
ATOM      2  C   UNL     1       6.782   5.647  19.235  0.00  0.00    +0.000 C 
ATOM      3  C   UNL     1       5.294   5.291  19.186  0.00  0.00    +0.000 C 
ATOM      4  N   UNL     1       4.489   6.457  18.739  0.00  0.00    +0.000 NA
ATOM      5  C   UNL     1       4.949   7.062  17.464  0.00  0.00    +0.000 C 
ATOM      6  C   UNL     1       6.424   7.443  17.551  0.00  0.00    +0.000 C 
ENDROOT
BRANCH   1   8
ATOM      7  N   UNL     1       6.925   5.658  15.552  0.00  0.00    +0.000 N 
ATOM      8  C   UNL     1       7.296   5.177  16.798  0.00  0.00    +0.000 C 
ATOM      9  O   UNL     1       7.630   4.018  17.032  0.00  0.00    +0.000 OA
ATOM     10  H   UNL     1       6.941   6.660  15.413  0.00  0.00    +0.000 HD
BRANCH   7  15
ATOM     11  C   UNL     1       5.884   2.415  10.934  0.00  0.00    +0.000 C 
ATOM     12  C   UNL     1       6.177   3.252  12.143  0.00  0.00    +0.000 A 
ATOM     13  C   UNL     1       7.245   4.150  12.142  0.00  0.00    +0.000 A 
ATOM     14  C   UNL     1       7.505   4.945  13.262  0.00  0.00    +0.000 A 
ATOM     15  C   UNL     1       6.704   4.863  14.403  0.00  0.00    +0.000 A 
ATOM     16  C   UNL     1       5.654   3.939  14.419  0.00  0.00    +0.000 A 
ATOM     17  C   UNL     1       5.385   3.148  13.293  0.00  0.00    +0.000 A 
ENDBRANCH   7  15
ENDBRANCH   1   8
BRANCH   4  18
ATOM     18  S   UNL     1       2.787   6.203  18.818  0.00  0.00    +0.000 S 
ATOM     19  O   UNL     1       2.205   7.268  19.607  0.00  0.00    +0.000 OA
ATOM     20  O   UNL     1       2.313   5.910  17.481  0.00  0.00    +0.000 OA
BRANCH  18  21
ATOM     21  C   UNL     1       2.513   4.725  19.794  0.00  0.00    +0.000 A 
ATOM     22  C   UNL     1       2.397   4.535  21.161  0.00  0.00    +0.000 A 
ATOM     23  C   UNL     1       2.246   3.161  21.511  0.00  0.00    +0.000 A 
ATOM     24  C   UNL     1       2.234   2.347  20.400  0.00  0.00    +0.000 A 
ATOM     25  S   UNL     1       2.400   3.238  18.950  0.00  0.00    +0.000 S 
ENDBRANCH  18  21
ENDBRANCH   4  18
TORSDOF 4
ENDMDL
MODEL 9
REMARK VINA RESULT:      -6.8      2.873      5.662
REMARK  Name = 
REMARK  5 active torsions:
REMARK  status: ('A' for Active; 'I' for Inactive)
REMARK    1  A    between atoms: C_1  and  C_2
REMARK    2  A    between atoms: C_5  and  N_6
REMARK    3  A    between atoms: C_7  and  C_9
REMARK    4  A    between atoms: N_12  and  S_13
REMARK    5  A    between atoms: S_13  and  C_16
REMARK                            x       y       z     vdW  Elec       q    Type
REMARK                         _______ _______ _______ _____ _____    ______ ____
ROOT
ATOM      1  C   UNL     1       7.028   6.006  16.949  0.00  0.00    +0.000 C 
ATOM      2  C   UNL     1       5.885   6.609  16.118  0.00  0.00    +0.000 C 
ATOM      3  C   UNL     1       4.678   6.999  16.975  0.00  0.00    +0.000 C 
ATOM      4  N   UNL     1       4.229   5.851  17.805  0.00  0.00    +0.000 NA
ATOM      5  C   UNL     1       5.303   5.232  18.621  0.00  0.00    +0.000 C 
ATOM      6  C   UNL     1       6.477   4.816  17.739  0.00  0.00    +0.000 C 
ENDROOT
BRANCH   1   8
ATOM      7  N   UNL     1       7.593   8.356  17.377  0.00  0.00    +0.000 N 
ATOM      8  C   UNL     1       7.667   7.060  17.863  0.00  0.00    +0.000 C 
ATOM      9  O   UNL     1       8.168   6.740  18.938  0.00  0.00    +0.000 OA
ATOM     10  H   UNL     1       6.929   8.542  16.637  0.00  0.00    +0.000 HD
BRANCH   7  15
ATOM     11  C   UNL     1      10.288  12.820  19.773  0.00  0.00    +0.000 C 
ATOM     12  C   UNL     1       9.564  11.663  19.151  0.00  0.00    +0.000 A 
ATOM     13  C   UNL     1       8.797  11.844  17.998  0.00  0.00    +0.000 A 
ATOM     14  C   UNL     1       8.139  10.762  17.407  0.00  0.00    +0.000 A 
ATOM     15  C   UNL     1       8.234   9.479  17.951  0.00  0.00    +0.000 A 
ATOM     16  C   UNL     1       8.972   9.303  19.125  0.00  0.00    +0.000 A 
ATOM     17  C   UNL     1       9.643  10.385  19.714  0.00  0.00    +0.000 A 
ENDBRANCH   7  15
ENDBRANCH   1   8
BRANCH   4  18
ATOM     18  S   UNL     1       2.771   6.145  18.674  0.00  0.00    +0.000 S 
ATOM     19  O   UNL     1       3.118   6.645  19.986  0.00  0.00    +0.000 OA
ATOM     20  O   UNL     1       1.868   6.870  17.805  0.00  0.00    +0.000 OA
BRANCH  18  21
ATOM     21  C   UNL     1       2.010   4.553  18.992  0.00  0.00    +0.000 A 
ATOM     22  C   UNL     1       1.515   3.583  18.135  0.00  0.00    +0.000 A 
ATOM     23  C   UNL     1       0.931   2.486  18.832  0.00  0.00    +0.000 A 
ATOM     24  C   UNL     1       1.013   2.642  20.197  0.00  0.00    +0.000 A 
ATOM     25  S   UNL     1       1.792   4.101  20.630  0.00  0.00    +0.000 S 
ENDBRANCH  18  21
ENDBRANCH   4  18
TORSDOF 4
ENDMDL
