MODEL 1
REMARK VINA RESULT:      -6.8      0.000      0.000
REMARK  Name = 
REMARK  15 active torsions:
REMARK  status: ('A' for Active; 'I' for Inactive)
REMARK    1  A    between atoms: C_1  and  O_2
REMARK    2  A    between atoms: O_2  and  C_3
REMARK    3  A    between atoms: C_8  and  C_9
REMARK    4  A    between atoms: C_19  and  C_20
REMARK    5  A    between atoms: C_21  and  C_22
REMARK    6  A    between atoms: C_22  and  C_23
REMARK    7  A    between atoms: C_22  and  C_24
REMARK    8  A    between atoms: C_24  and  C_25
REMARK    9  A    between atoms: C_25  and  C_26
REMARK   10  A    between atoms: C_26  and  O_27
REMARK   11  A    between atoms: O_27  and  C_28
REMARK   12  A    between atoms: C_28  and  C_29
REMARK   13  A    between atoms: C_31  and  O_32
REMARK   14  A    between atoms: O_32  and  C_33
REMARK   15  A    between atoms: C_33  and  C_34
REMARK                            x       y       z     vdW  Elec       q    Type
REMARK                         _______ _______ _______ _____ _____    ______ ____
ROOT
ATOM      1  C   UNL     1      -3.881  13.290  21.660  0.00  0.00    +0.000 C 
ATOM      2  N   UNL     1      -3.412  13.804  20.564  0.00  0.00    +0.000 NA
ATOM      3  O   UNL     1      -2.022  13.976  20.693  0.00  0.00    +0.000 OA
ATOM      4  C   UNL     1      -1.631  13.663  22.021  0.00  0.00    +0.000 C 
ATOM      5  C   UNL     1      -2.850  13.059  22.717  0.00  0.00    +0.000 C 
ATOM      6  C   UNL     1      -1.190  14.958  22.692  0.00  0.00    +0.000 C 
ATOM      7  O   UNL     1      -1.910  15.805  23.199  0.00  0.00    +0.000 OA
ATOM      8  O   UNL     1       0.171  15.051  22.683  0.00  0.00    +0.000 OA
ATOM      9  C   UNL     1       0.725  13.929  21.985  0.00  0.00    +0.000 C 
ATOM     10  C   UNL     1       1.127  14.354  20.568  0.00  0.00    +0.000 C 
ATOM     11  C   UNL     1       1.086  13.291  19.490  0.00  0.00    +0.000 C 
ATOM     12  C   UNL     1       1.880  13.656  18.257  0.00  0.00    +0.000 C 
ATOM     13  C   UNL     1       0.490  12.082  19.664  0.00  0.00    +0.000 C 
ATOM     14  C   UNL     1      -0.085  11.717  21.032  0.00  0.00    +0.000 C 
ATOM     15  C   UNL     1      -0.331  12.840  22.072  0.00  0.00    +0.000 C 
ENDROOT
BRANCH   1  21
ATOM     16  C   UNL     1      -6.150  13.075  22.883  0.00  0.00    +0.000 A 
ATOM     17  C   UNL     1      -7.370  12.373  22.956  0.00  0.00    +0.000 A 
ATOM     18  C   UNL     1      -7.817  11.577  21.901  0.00  0.00    +0.000 A 
ATOM     19  C   UNL     1      -7.063  11.492  20.742  0.00  0.00    +0.000 A 
ATOM     20  C   UNL     1      -5.827  12.136  20.675  0.00  0.00    +0.000 A 
ATOM     21  C   UNL     1      -5.324  12.886  21.760  0.00  0.00    +0.000 A 
BRANCH  16  23
ATOM     22  C   UNL     1      -6.294  15.231  23.859  0.00  0.00    +0.000 C 
ATOM     23  O   UNL     1      -5.736  13.914  23.887  0.00  0.00    +0.000 OA
ENDBRANCH  16  23
ENDBRANCH   1  21
BRANCH  13  24
ATOM     24  C   UNL     1       0.483  11.019  18.537  0.00  0.00    +0.000 C 
ATOM     25  C   UNL     1       1.720  10.108  18.610  0.00  0.00    +0.000 C 
BRANCH  24  26
ATOM     26  C   UNL     1      -0.755  10.102  18.388  0.00  0.00    +0.000 C 
BRANCH  26  27
ATOM     27  C   UNL     1      -2.086  10.813  18.141  0.00  0.00    +0.000 C 
BRANCH  27  28
ATOM     28  C   UNL     1      -3.195   9.815  17.783  0.00  0.00    +0.000 C 
BRANCH  28  29
ATOM     29  O   UNL     1      -3.111   9.451  16.387  0.00  0.00    +0.000 OA
BRANCH  29  30
ATOM     30  C   UNL     1      -3.517  10.387  15.474  0.00  0.00    +0.000 C 
ATOM     31  C   UNL     1      -3.013  10.055  14.104  0.00  0.00    +0.000 C 
ATOM     32  O   UNL     1      -4.211  11.357  15.720  0.00  0.00    +0.000 OA
ENDBRANCH  29  30
ENDBRANCH  28  29
ENDBRANCH  27  28
ENDBRANCH  26  27
ENDBRANCH  24  26
ENDBRANCH  13  24
BRANCH  14  33
ATOM     33  O   UNL     1       0.756  10.676  21.649  0.00  0.00    +0.000 OA
BRANCH  33  34
ATOM     34  C   UNL     1       0.229   9.735  22.484  0.00  0.00    +0.000 C 
ATOM     35  C   UNL     1      -0.294   8.555  21.721  0.00  0.00    +0.000 C 
ATOM     36  O   UNL     1       0.175   9.785  23.704  0.00  0.00    +0.000 OA
ENDBRANCH  33  34
ENDBRANCH  14  33
TORSDOF 10
ENDMDL
MODEL 2
REMARK VINA RESULT:      -6.8      7.093      9.979
REMARK  Name = 
REMARK  15 active torsions:
REMARK  status: ('A' for Active; 'I' for Inactive)
REMARK    1  A    between atoms: C_1  and  O_2
REMARK    2  A    between atoms: O_2  and  C_3
REMARK    3  A    between atoms: C_8  and  C_9
REMARK    4  A    between atoms: C_19  and  C_20
REMARK    5  A    between atoms: C_21  and  C_22
REMARK    6  A    between atoms: C_22  and  C_23
REMARK    7  A    between atoms: C_22  and  C_24
REMARK    8  A    between atoms: C_24  and  C_25
REMARK    9  A    between atoms: C_25  and  C_26
REMARK   10  A    between atoms: C_26  and  O_27
REMARK   11  A    between atoms: O_27  and  C_28
REMARK   12  A    between atoms: C_28  and  C_29
REMARK   13  A    between atoms: C_31  and  O_32
REMARK   14  A    between atoms: O_32  and  C_33
REMARK   15  A    between atoms: C_33  and  C_34
REMARK                            x       y       z     vdW  Elec       q    Type
REMARK                         _______ _______ _______ _____ _____    ______ ____
ROOT
ATOM      1  C   UNL     1       5.184  15.134  18.539  0.00  0.00    +0.000 C 
ATOM      2  N   UNL     1       5.864  14.933  17.452  0.00  0.00    +0.000 NA
ATOM      3  O   UNL     1       7.225  15.178  17.709  0.00  0.00    +0.000 OA
ATOM      4  C   UNL     1       7.370  15.694  19.023  0.00  0.00    +0.000 C 
ATOM      5  C   UNL     1       6.009  15.575  19.705  0.00  0.00    +0.000 C 
ATOM      6  C   UNL     1       7.809  17.148  18.904  0.00  0.00    +0.000 C 
ATOM      7  O   UNL     1       7.094  18.117  18.699  0.00  0.00    +0.000 OA
ATOM      8  O   UNL     1       9.157  17.248  19.090  0.00  0.00    +0.000 OA
ATOM      9  C   UNL     1       9.716  15.941  19.268  0.00  0.00    +0.000 C 
ATOM     10  C   UNL     1      10.375  15.482  17.962  0.00  0.00    +0.000 C 
ATOM     11  C   UNL     1      10.414  13.993  17.694  0.00  0.00    +0.000 C 
ATOM     12  C   UNL     1      11.423  13.599  16.640  0.00  0.00    +0.000 C 
ATOM     13  C   UNL     1       9.696  13.091  18.413  0.00  0.00    +0.000 C 
ATOM     14  C   UNL     1       8.880  13.567  19.616  0.00  0.00    +0.000 C 
ATOM     15  C   UNL     1       8.569  15.078  19.766  0.00  0.00    +0.000 C 
ENDROOT
BRANCH   1  21
ATOM     16  C   UNL     1       2.700  15.746  18.921  0.00  0.00    +0.000 A 
ATOM     17  C   UNL     1       1.416  15.257  19.237  0.00  0.00    +0.000 A 
ATOM     18  C   UNL     1       1.107  13.901  19.129  0.00  0.00    +0.000 A 
ATOM     19  C   UNL     1       2.070  13.013  18.678  0.00  0.00    +0.000 A 
ATOM     20  C   UNL     1       3.361  13.473  18.415  0.00  0.00    +0.000 A 
ATOM     21  C   UNL     1       3.713  14.829  18.589  0.00  0.00    +0.000 A 
BRANCH  16  23
ATOM     22  C   UNL     1       2.838  17.716  20.234  0.00  0.00    +0.000 C 
ATOM     23  O   UNL     1       2.993  17.086  18.959  0.00  0.00    +0.000 OA
ENDBRANCH  16  23
ENDBRANCH   1  21
BRANCH  13  24
ATOM     24  C   UNL     1       9.777  11.573  18.113  0.00  0.00    +0.000 C 
ATOM     25  C   UNL     1      10.771  10.862  19.048  0.00  0.00    +0.000 C 
BRANCH  24  26
ATOM     26  C   UNL     1       8.470  10.744  18.117  0.00  0.00    +0.000 C 
BRANCH  26  27
ATOM     27  C   UNL     1       8.605   9.288  18.566  0.00  0.00    +0.000 C 
BRANCH  27  28
ATOM     28  C   UNL     1       7.887   8.337  17.600  0.00  0.00    +0.000 C 
BRANCH  28  29
ATOM     29  O   UNL     1       7.823   7.006  18.160  0.00  0.00    +0.000 OA
BRANCH  29  30
ATOM     30  C   UNL     1       7.171   6.052  17.425  0.00  0.00    +0.000 C 
ATOM     31  C   UNL     1       5.726   6.405  17.251  0.00  0.00    +0.000 C 
ATOM     32  O   UNL     1       7.683   5.054  16.953  0.00  0.00    +0.000 OA
ENDBRANCH  29  30
ENDBRANCH  28  29
ENDBRANCH  27  28
ENDBRANCH  26  27
ENDBRANCH  24  26
ENDBRANCH  13  24
BRANCH  14  33
ATOM     33  O   UNL     1       9.518  13.089  20.854  0.00  0.00    +0.000 OA
BRANCH  33  34
ATOM     34  C   UNL     1       8.835  13.033  22.034  0.00  0.00    +0.000 C 
ATOM     35  C   UNL     1       8.307  11.655  22.298  0.00  0.00    +0.000 C 
ATOM     36  O   UNL     1       8.656  13.950  22.821  0.00  0.00    +0.000 OA
ENDBRANCH  33  34
ENDBRANCH  14  33
TORSDOF 10
ENDMDL
MODEL 3
REMARK VINA RESULT:      -6.8      0.970      1.093
REMARK  Name = 
REMARK  15 active torsions:
REMARK  status: ('A' for Active; 'I' for Inactive)
REMARK    1  A    between atoms: C_1  and  O_2
REMARK    2  A    between atoms: O_2  and  C_3
REMARK    3  A    between atoms: C_8  and  C_9
REMARK    4  A    between atoms: C_19  and  C_20
REMARK    5  A    between atoms: C_21  and  C_22
REMARK    6  A    between atoms: C_22  and  C_23
REMARK    7  A    between atoms: C_22  and  C_24
REMARK    8  A    between atoms: C_24  and  C_25
REMARK    9  A    between atoms: C_25  and  C_26
REMARK   10  A    between atoms: C_26  and  O_27
REMARK   11  A    between atoms: O_27  and  C_28
REMARK   12  A    between atoms: C_28  and  C_29
REMARK   13  A    between atoms: C_31  and  O_32
REMARK   14  A    between atoms: O_32  and  C_33
REMARK   15  A    between atoms: C_33  and  C_34
REMARK                            x       y       z     vdW  Elec       q    Type
REMARK                         _______ _______ _______ _____ _____    ______ ____
ROOT
ATOM      1  C   UNL     1      -3.760  12.879  20.771  0.00  0.00    +0.000 C 
ATOM      2  N   UNL     1      -3.141  13.267  19.699  0.00  0.00    +0.000 NA
ATOM      3  O   UNL     1      -1.788  13.501  20.008  0.00  0.00    +0.000 OA
ATOM      4  C   UNL     1      -1.596  13.369  21.408  0.00  0.00    +0.000 C 
ATOM      5  C   UNL     1      -2.896  12.816  21.989  0.00  0.00    +0.000 C 
ATOM      6  C   UNL     1      -1.280  14.752  21.965  0.00  0.00    +0.000 C 
ATOM      7  O   UNL     1      -2.080  15.630  22.248  0.00  0.00    +0.000 OA
ATOM      8  O   UNL     1       0.066  14.888  22.145  0.00  0.00    +0.000 OA
ATOM      9  C   UNL     1       0.735  13.708  21.685  0.00  0.00    +0.000 C 
ATOM     10  C   UNL     1       1.339  13.966  20.300  0.00  0.00    +0.000 C 
ATOM     11  C   UNL     1       1.475  12.777  19.373  0.00  0.00    +0.000 C 
ATOM     12  C   UNL     1       2.439  13.011  18.233  0.00  0.00    +0.000 C 
ATOM     13  C   UNL     1       0.877  11.579  19.610  0.00  0.00    +0.000 C 
ATOM     14  C   UNL     1       0.109  11.368  20.915  0.00  0.00    +0.000 C 
ATOM     15  C   UNL     1      -0.307  12.603  21.754  0.00  0.00    +0.000 C 
ENDROOT
BRANCH   1  21
ATOM     16  C   UNL     1      -6.136  12.572  21.747  0.00  0.00    +0.000 A 
ATOM     17  C   UNL     1      -7.340  11.843  21.670  0.00  0.00    +0.000 A 
ATOM     18  C   UNL     1      -7.659  11.078  20.548  0.00  0.00    +0.000 A 
ATOM     19  C   UNL     1      -6.789  11.051  19.469  0.00  0.00    +0.000 A 
ATOM     20  C   UNL     1      -5.569  11.723  19.552  0.00  0.00    +0.000 A 
ATOM     21  C   UNL     1      -5.196  12.442  20.708  0.00  0.00    +0.000 A 
BRANCH  16  23
ATOM     22  C   UNL     1      -6.166  12.840  24.102  0.00  0.00    +0.000 C 
ATOM     23  O   UNL     1      -5.846  13.381  22.817  0.00  0.00    +0.000 OA
ENDBRANCH  16  23
ENDBRANCH   1  21
BRANCH  13  24
ATOM     24  C   UNL     1       1.056  10.385  18.640  0.00  0.00    +0.000 C 
ATOM     25  C   UNL     1       1.770   9.204  19.320  0.00  0.00    +0.000 C 
BRANCH  24  26
ATOM     26  C   UNL     1      -0.194   9.815  17.925  0.00  0.00    +0.000 C 
BRANCH  26  27
ATOM     27  C   UNL     1      -1.530  10.045  18.633  0.00  0.00    +0.000 C 
BRANCH  27  28
ATOM     28  C   UNL     1      -2.679  10.182  17.626  0.00  0.00    +0.000 C 
BRANCH  28  29
ATOM     29  O   UNL     1      -2.241   9.789  16.306  0.00  0.00    +0.000 OA
BRANCH  29  30
ATOM     30  C   UNL     1      -2.943  10.289  15.243  0.00  0.00    +0.000 C 
ATOM     31  C   UNL     1      -4.032  11.209  15.704  0.00  0.00    +0.000 C 
ATOM     32  O   UNL     1      -2.718  10.045  14.071  0.00  0.00    +0.000 OA
ENDBRANCH  29  30
ENDBRANCH  28  29
ENDBRANCH  27  28
ENDBRANCH  26  27
ENDBRANCH  24  26
ENDBRANCH  13  24
BRANCH  14  33
ATOM     33  O   UNL     1       0.863  10.441  21.776  0.00  0.00    +0.000 OA
BRANCH  33  34
ATOM     34  C   UNL     1       0.234   9.627  22.671  0.00  0.00    +0.000 C 
ATOM     35  C   UNL     1      -0.552   8.554  21.980  0.00  0.00    +0.000 C 
ATOM     36  O   UNL     1       0.278   9.705  23.890  0.00  0.00    +0.000 OA
ENDBRANCH  33  34
ENDBRANCH  14  33
TORSDOF 10
ENDMDL
MODEL 4
REMARK VINA RESULT:      -6.4      3.271      6.796
REMARK  Name = 
REMARK  15 active torsions:
REMARK  status: ('A' for Active; 'I' for Inactive)
REMARK    1  A    between atoms: C_1  and  O_2
REMARK    2  A    between atoms: O_2  and  C_3
REMARK    3  A    between atoms: C_8  and  C_9
REMARK    4  A    between atoms: C_19  and  C_20
REMARK    5  A    between atoms: C_21  and  C_22
REMARK    6  A    between atoms: C_22  and  C_23
REMARK    7  A    between atoms: C_22  and  C_24
REMARK    8  A    between atoms: C_24  and  C_25
REMARK    9  A    between atoms: C_25  and  C_26
REMARK   10  A    between atoms: C_26  and  O_27
REMARK   11  A    between atoms: O_27  and  C_28
REMARK   12  A    between atoms: C_28  and  C_29
REMARK   13  A    between atoms: C_31  and  O_32
REMARK   14  A    between atoms: O_32  and  C_33
REMARK   15  A    between atoms: C_33  and  C_34
REMARK                            x       y       z     vdW  Elec       q    Type
REMARK                         _______ _______ _______ _____ _____    ______ ____
ROOT
ATOM      1  C   UNL     1       1.368  14.408  19.784  0.00  0.00    +0.000 C 
ATOM      2  N   UNL     1       2.184  13.562  20.334  0.00  0.00    +0.000 NA
ATOM      3  O   UNL     1       1.440  12.552  20.971  0.00  0.00    +0.000 OA
ATOM      4  C   UNL     1       0.060  12.878  20.915  0.00  0.00    +0.000 C 
ATOM      5  C   UNL     1      -0.077  14.091  19.997  0.00  0.00    +0.000 C 
ATOM      6  C   UNL     1      -0.399  13.197  22.333  0.00  0.00    +0.000 C 
ATOM      7  O   UNL     1      -0.265  14.255  22.928  0.00  0.00    +0.000 OA
ATOM      8  O   UNL     1      -1.033  12.117  22.874  0.00  0.00    +0.000 OA
ATOM      9  C   UNL     1      -0.993  11.023  21.950  0.00  0.00    +0.000 C 
ATOM     10  C   UNL     1       0.102  10.036  22.369  0.00  0.00    +0.000 C 
ATOM     11  C   UNL     1       0.764   9.231  21.271  0.00  0.00    +0.000 C 
ATOM     12  C   UNL     1       1.500   8.013  21.780  0.00  0.00    +0.000 C 
ATOM     13  C   UNL     1       0.613   9.514  19.951  0.00  0.00    +0.000 C 
ATOM     14  C   UNL     1      -0.343  10.629  19.525  0.00  0.00    +0.000 C 
ATOM     15  C   UNL     1      -0.818  11.659  20.581  0.00  0.00    +0.000 C 
ENDROOT
BRANCH   1  21
ATOM     16  C   UNL     1       1.304  16.801  18.806  0.00  0.00    +0.000 A 
ATOM     17  C   UNL     1       1.707  17.635  17.743  0.00  0.00    +0.000 A 
ATOM     18  C   UNL     1       2.738  17.265  16.878  0.00  0.00    +0.000 A 
ATOM     19  C   UNL     1       3.402  16.066  17.078  0.00  0.00    +0.000 A 
ATOM     20  C   UNL     1       2.978  15.205  18.091  0.00  0.00    +0.000 A 
ATOM     21  C   UNL     1       1.889  15.528  18.930  0.00  0.00    +0.000 A 
BRANCH  16  23
ATOM     22  C   UNL     1      -0.371  18.384  19.367  0.00  0.00    +0.000 C 
ATOM     23  O   UNL     1       0.339  17.186  19.702  0.00  0.00    +0.000 OA
ENDBRANCH  16  23
ENDBRANCH   1  21
BRANCH  13  24
ATOM     24  C   UNL     1       1.299   8.655  18.859  0.00  0.00    +0.000 C 
ATOM     25  C   UNL     1       1.995   9.529  17.803  0.00  0.00    +0.000 C 
BRANCH  24  26
ATOM     26  C   UNL     1       2.313   7.569  19.297  0.00  0.00    +0.000 C 
BRANCH  26  27
ATOM     27  C   UNL     1       2.810   6.637  18.191  0.00  0.00    +0.000 C 
BRANCH  27  28
ATOM     28  C   UNL     1       2.335   5.196  18.419  0.00  0.00    +0.000 C 
BRANCH  28  29
ATOM     29  O   UNL     1       1.501   5.123  19.598  0.00  0.00    +0.000 OA
BRANCH  29  30
ATOM     30  C   UNL     1       1.354   3.893  20.180  0.00  0.00    +0.000 C 
ATOM     31  C   UNL     1       2.193   3.780  21.415  0.00  0.00    +0.000 C 
ATOM     32  O   UNL     1       0.629   3.002  19.774  0.00  0.00    +0.000 OA
ENDBRANCH  29  30
ENDBRANCH  28  29
ENDBRANCH  27  28
ENDBRANCH  26  27
ENDBRANCH  24  26
ENDBRANCH  13  24
BRANCH  14  33
ATOM     33  O   UNL     1      -1.525  10.033  18.879  0.00  0.00    +0.000 OA
BRANCH  33  34
ATOM     34  C   UNL     1      -2.190  10.675  17.876  0.00  0.00    +0.000 C 
ATOM     35  C   UNL     1      -3.421   9.924  17.464  0.00  0.00    +0.000 C 
ATOM     36  O   UNL     1      -1.879  11.733  17.350  0.00  0.00    +0.000 OA
ENDBRANCH  33  34
ENDBRANCH  14  33
TORSDOF 10
ENDMDL
MODEL 5
REMARK VINA RESULT:      -6.4      1.201      1.566
REMARK  Name = 
REMARK  15 active torsions:
REMARK  status: ('A' for Active; 'I' for Inactive)
REMARK    1  A    between atoms: C_1  and  O_2
REMARK    2  A    between atoms: O_2  and  C_3
REMARK    3  A    between atoms: C_8  and  C_9
REMARK    4  A    between atoms: C_19  and  C_20
REMARK    5  A    between atoms: C_21  and  C_22
REMARK    6  A    between atoms: C_22  and  C_23
REMARK    7  A    between atoms: C_22  and  C_24
REMARK    8  A    between atoms: C_24  and  C_25
REMARK    9  A    between atoms: C_25  and  C_26
REMARK   10  A    between atoms: C_26  and  O_27
REMARK   11  A    between atoms: O_27  and  C_28
REMARK   12  A    between atoms: C_28  and  C_29
REMARK   13  A    between atoms: C_31  and  O_32
REMARK   14  A    between atoms: O_32  and  C_33
REMARK   15  A    between atoms: C_33  and  C_34
REMARK                            x       y       z     vdW  Elec       q    Type
REMARK                         _______ _______ _______ _____ _____    ______ ____
ROOT
ATOM      1  C   UNL     1      -3.227  14.033  21.727  0.00  0.00    +0.000 C 
ATOM      2  N   UNL     1      -2.770  14.393  20.566  0.00  0.00    +0.000 NA
ATOM      3  O   UNL     1      -1.365  14.330  20.585  0.00  0.00    +0.000 OA
ATOM      4  C   UNL     1      -0.925  14.032  21.900  0.00  0.00    +0.000 C 
ATOM      5  C   UNL     1      -2.166  13.689  22.722  0.00  0.00    +0.000 C 
ATOM      6  C   UNL     1      -0.220  15.268  22.445  0.00  0.00    +0.000 C 
ATOM      7  O   UNL     1      -0.743  16.254  22.940  0.00  0.00    +0.000 OA
ATOM      8  O   UNL     1       1.133  15.124  22.333  0.00  0.00    +0.000 OA
ATOM      9  C   UNL     1       1.432  13.885  21.678  0.00  0.00    +0.000 C 
ATOM     10  C   UNL     1       1.782  14.151  20.210  0.00  0.00    +0.000 C 
ATOM     11  C   UNL     1       1.475  13.051  19.216  0.00  0.00    +0.000 C 
ATOM     12  C   UNL     1       2.215  13.202  17.907  0.00  0.00    +0.000 C 
ATOM     13  C   UNL     1       0.701  11.976  19.516  0.00  0.00    +0.000 C 
ATOM     14  C   UNL     1       0.187  11.794  20.945  0.00  0.00    +0.000 C 
ATOM     15  C   UNL     1       0.219  13.002  21.917  0.00  0.00    +0.000 C 
ENDROOT
BRANCH   1  21
ATOM     16  C   UNL     1      -5.486  14.716  22.785  0.00  0.00    +0.000 A 
ATOM     17  C   UNL     1      -6.775  14.283  23.156  0.00  0.00    +0.000 A 
ATOM     18  C   UNL     1      -7.325  13.108  22.642  0.00  0.00    +0.000 A 
ATOM     19  C   UNL     1      -6.604  12.359  21.726  0.00  0.00    +0.000 A 
ATOM     20  C   UNL     1      -5.305  12.745  21.391  0.00  0.00    +0.000 A 
ATOM     21  C   UNL     1      -4.704  13.890  21.957  0.00  0.00    +0.000 A 
BRANCH  16  23
ATOM     22  C   UNL     1      -5.679  16.525  24.305  0.00  0.00    +0.000 C 
ATOM     23  O   UNL     1      -4.965  15.904  23.232  0.00  0.00    +0.000 OA
ENDBRANCH  16  23
ENDBRANCH   1  21
BRANCH  13  24
ATOM     24  C   UNL     1       0.424  10.866  18.471  0.00  0.00    +0.000 C 
ATOM     25  C   UNL     1       1.400   9.686  18.624  0.00  0.00    +0.000 C 
BRANCH  24  26
ATOM     26  C   UNL     1      -1.002  10.273  18.378  0.00  0.00    +0.000 C 
BRANCH  26  27
ATOM     27  C   UNL     1      -2.127  11.279  18.129  0.00  0.00    +0.000 C 
BRANCH  27  28
ATOM     28  C   UNL     1      -3.319  10.620  17.422  0.00  0.00    +0.000 C 
BRANCH  28  29
ATOM     29  O   UNL     1      -4.513  10.745  18.227  0.00  0.00    +0.000 OA
BRANCH  29  30
ATOM     30  C   UNL     1      -5.533  11.500  17.714  0.00  0.00    +0.000 C 
ATOM     31  C   UNL     1      -6.852  11.084  18.291  0.00  0.00    +0.000 C 
ATOM     32  O   UNL     1      -5.405  12.405  16.910  0.00  0.00    +0.000 OA
ENDBRANCH  29  30
ENDBRANCH  28  29
ENDBRANCH  27  28
ENDBRANCH  26  27
ENDBRANCH  24  26
ENDBRANCH  13  24
BRANCH  14  33
ATOM     33  O   UNL     1       0.890  10.662  21.573  0.00  0.00    +0.000 OA
BRANCH  33  34
ATOM     34  C   UNL     1       0.255   9.818  22.435  0.00  0.00    +0.000 C 
ATOM     35  C   UNL     1      -0.435   8.704  21.707  0.00  0.00    +0.000 C 
ATOM     36  O   UNL     1       0.227   9.901  23.655  0.00  0.00    +0.000 OA
ENDBRANCH  33  34
ENDBRANCH  14  33
TORSDOF 10
ENDMDL
MODEL 6
REMARK VINA RESULT:      -6.3      7.410     10.317
REMARK  Name = 
REMARK  15 active torsions:
REMARK  status: ('A' for Active; 'I' for Inactive)
REMARK    1  A    between atoms: C_1  and  O_2
REMARK    2  A    between atoms: O_2  and  C_3
REMARK    3  A    between atoms: C_8  and  C_9
REMARK    4  A    between atoms: C_19  and  C_20
REMARK    5  A    between atoms: C_21  and  C_22
REMARK    6  A    between atoms: C_22  and  C_23
REMARK    7  A    between atoms: C_22  and  C_24
REMARK    8  A    between atoms: C_24  and  C_25
REMARK    9  A    between atoms: C_25  and  C_26
REMARK   10  A    between atoms: C_26  and  O_27
REMARK   11  A    between atoms: O_27  and  C_28
REMARK   12  A    between atoms: C_28  and  C_29
REMARK   13  A    between atoms: C_31  and  O_32
REMARK   14  A    between atoms: O_32  and  C_33
REMARK   15  A    between atoms: C_33  and  C_34
REMARK                            x       y       z     vdW  Elec       q    Type
REMARK                         _______ _______ _______ _____ _____    ______ ____
ROOT
ATOM      1  C   UNL     1       5.627  15.450  18.890  0.00  0.00    +0.000 C 
ATOM      2  N   UNL     1       6.510  15.378  17.942  0.00  0.00    +0.000 NA
ATOM      3  O   UNL     1       7.774  15.707  18.465  0.00  0.00    +0.000 OA
ATOM      4  C   UNL     1       7.629  16.139  19.809  0.00  0.00    +0.000 C 
ATOM      5  C   UNL     1       6.181  15.870  20.213  0.00  0.00    +0.000 C 
ATOM      6  C   UNL     1       7.953  17.627  19.854  0.00  0.00    +0.000 C 
ATOM      7  O   UNL     1       7.207  18.551  19.570  0.00  0.00    +0.000 OA
ATOM      8  O   UNL     1       9.230  17.816  20.297  0.00  0.00    +0.000 OA
ATOM      9  C   UNL     1       9.859  16.546  20.507  0.00  0.00    +0.000 C 
ATOM     10  C   UNL     1      10.785  16.230  19.327  0.00  0.00    +0.000 C 
ATOM     11  C   UNL     1      11.003  14.770  18.991  0.00  0.00    +0.000 C 
ATOM     12  C   UNL     1      12.219  14.528  18.127  0.00  0.00    +0.000 C 
ATOM     13  C   UNL     1      10.246  13.768  19.510  0.00  0.00    +0.000 C 
ATOM     14  C   UNL     1       9.184  14.096  20.561  0.00  0.00    +0.000 C 
ATOM     15  C   UNL     1       8.720  15.565  20.731  0.00  0.00    +0.000 C 
ENDROOT
BRANCH   1  21
ATOM     16  C   UNL     1       3.072  15.847  18.820  0.00  0.00    +0.000 A 
ATOM     17  C   UNL     1       1.799  15.243  18.861  0.00  0.00    +0.000 A 
ATOM     18  C   UNL     1       1.633  13.877  18.631  0.00  0.00    +0.000 A 
ATOM     19  C   UNL     1       2.737  13.095  18.330  0.00  0.00    +0.000 A 
ATOM     20  C   UNL     1       4.010  13.667  18.341  0.00  0.00    +0.000 A 
ATOM     21  C   UNL     1       4.205  15.033  18.643  0.00  0.00    +0.000 A 
BRANCH  16  23
ATOM     22  C   UNL     1       2.552  17.779  20.093  0.00  0.00    +0.000 C 
ATOM     23  O   UNL     1       3.236  17.200  18.976  0.00  0.00    +0.000 OA
ENDBRANCH  16  23
ENDBRANCH   1  21
BRANCH  13  24
ATOM     24  C   UNL     1      10.513  12.286  19.149  0.00  0.00    +0.000 C 
ATOM     25  C   UNL     1      11.630  11.683  20.019  0.00  0.00    +0.000 C 
BRANCH  24  26
ATOM     26  C   UNL     1       9.328  11.291  19.169  0.00  0.00    +0.000 C 
BRANCH  26  27
ATOM     27  C   UNL     1       9.175  10.411  17.927  0.00  0.00    +0.000 C 
BRANCH  27  28
ATOM     28  C   UNL     1       7.987   9.451  18.066  0.00  0.00    +0.000 C 
BRANCH  28  29
ATOM     29  O   UNL     1       8.447   8.132  18.438  0.00  0.00    +0.000 OA
BRANCH  29  30
ATOM     30  C   UNL     1       7.853   7.067  17.815  0.00  0.00    +0.000 C 
ATOM     31  C   UNL     1       7.492   6.000  18.803  0.00  0.00    +0.000 C 
ATOM     32  O   UNL     1       7.623   6.986  16.622  0.00  0.00    +0.000 OA
ENDBRANCH  29  30
ENDBRANCH  28  29
ENDBRANCH  27  28
ENDBRANCH  26  27
ENDBRANCH  24  26
ENDBRANCH  13  24
BRANCH  14  33
ATOM     33  O   UNL     1       9.622  13.582  21.870  0.00  0.00    +0.000 OA
BRANCH  33  34
ATOM     34  C   UNL     1       8.725  13.233  22.836  0.00  0.00    +0.000 C 
ATOM     35  C   UNL     1       8.165  11.864  22.597  0.00  0.00    +0.000 C 
ATOM     36  O   UNL     1       8.391  13.903  23.803  0.00  0.00    +0.000 OA
ENDBRANCH  33  34
ENDBRANCH  14  33
TORSDOF 10
ENDMDL
MODEL 7
REMARK VINA RESULT:      -6.3      7.526     10.478
REMARK  Name = 
REMARK  15 active torsions:
REMARK  status: ('A' for Active; 'I' for Inactive)
REMARK    1  A    between atoms: C_1  and  O_2
REMARK    2  A    between atoms: O_2  and  C_3
REMARK    3  A    between atoms: C_8  and  C_9
REMARK    4  A    between atoms: C_19  and  C_20
REMARK    5  A    between atoms: C_21  and  C_22
REMARK    6  A    between atoms: C_22  and  C_23
REMARK    7  A    between atoms: C_22  and  C_24
REMARK    8  A    between atoms: C_24  and  C_25
REMARK    9  A    between atoms: C_25  and  C_26
REMARK   10  A    between atoms: C_26  and  O_27
REMARK   11  A    between atoms: O_27  and  C_28
REMARK   12  A    between atoms: C_28  and  C_29
REMARK   13  A    between atoms: C_31  and  O_32
REMARK   14  A    between atoms: O_32  and  C_33
REMARK   15  A    between atoms: C_33  and  C_34
REMARK                            x       y       z     vdW  Elec       q    Type
REMARK                         _______ _______ _______ _____ _____    ______ ____
ROOT
ATOM      1  C   UNL     1       5.769  15.377  18.835  0.00  0.00    +0.000 C 
ATOM      2  N   UNL     1       6.288  14.981  17.713  0.00  0.00    +0.000 NA
ATOM      3  O   UNL     1       7.668  15.248  17.725  0.00  0.00    +0.000 OA
ATOM      4  C   UNL     1       7.996  15.983  18.893  0.00  0.00    +0.000 C 
ATOM      5  C   UNL     1       6.748  16.003  19.775  0.00  0.00    +0.000 C 
ATOM      6  C   UNL     1       8.395  17.389  18.461  0.00  0.00    +0.000 C 
ATOM      7  O   UNL     1       7.647  18.316  18.194  0.00  0.00    +0.000 OA
ATOM      8  O   UNL     1       9.755  17.501  18.430  0.00  0.00    +0.000 OA
ATOM      9  C   UNL     1      10.349  16.238  18.751  0.00  0.00    +0.000 C 
ATOM     10  C   UNL     1      10.818  15.549  17.464  0.00  0.00    +0.000 C 
ATOM     11  C   UNL     1      10.836  14.035  17.458  0.00  0.00    +0.000 C 
ATOM     12  C   UNL     1      11.687  13.450  16.355  0.00  0.00    +0.000 C 
ATOM     13  C   UNL     1      10.240  13.283  18.419  0.00  0.00    +0.000 C 
ATOM     14  C   UNL     1       9.600  13.972  19.625  0.00  0.00    +0.000 C 
ATOM     15  C   UNL     1       9.297  15.491  19.552  0.00  0.00    +0.000 C 
ENDROOT
BRANCH   1  21
ATOM     16  C   UNL     1       3.847  14.444  20.294  0.00  0.00    +0.000 A 
ATOM     17  C   UNL     1       2.516  13.981  20.307  0.00  0.00    +0.000 A 
ATOM     18  C   UNL     1       1.640  14.252  19.255  0.00  0.00    +0.000 A 
ATOM     19  C   UNL     1       2.074  15.014  18.183  0.00  0.00    +0.000 A 
ATOM     20  C   UNL     1       3.405  15.433  18.129  0.00  0.00    +0.000 A 
ATOM     21  C   UNL     1       4.325  15.106  19.149  0.00  0.00    +0.000 A 
BRANCH  16  23
ATOM     22  C   UNL     1       4.388  14.983  22.539  0.00  0.00    +0.000 C 
ATOM     23  O   UNL     1       4.695  14.241  21.354  0.00  0.00    +0.000 OA
ENDBRANCH  16  23
ENDBRANCH   1  21
BRANCH  13  24
ATOM     24  C   UNL     1      10.295  11.735  18.380  0.00  0.00    +0.000 C 
ATOM     25  C   UNL     1      11.573  11.196  19.046  0.00  0.00    +0.000 C 
BRANCH  24  26
ATOM     26  C   UNL     1       9.103  10.934  18.958  0.00  0.00    +0.000 C 
BRANCH  26  27
ATOM     27  C   UNL     1       8.284  10.134  17.944  0.00  0.00    +0.000 C 
BRANCH  27  28
ATOM     28  C   UNL     1       8.370   8.627  18.221  0.00  0.00    +0.000 C 
BRANCH  28  29
ATOM     29  O   UNL     1       7.960   7.878  17.055  0.00  0.00    +0.000 OA
BRANCH  29  30
ATOM     30  C   UNL     1       6.966   6.952  17.229  0.00  0.00    +0.000 C 
ATOM     31  C   UNL     1       7.399   5.871  18.172  0.00  0.00    +0.000 C 
ATOM     32  O   UNL     1       5.866   6.993  16.709  0.00  0.00    +0.000 OA
ENDBRANCH  29  30
ENDBRANCH  28  29
ENDBRANCH  27  28
ENDBRANCH  26  27
ENDBRANCH  24  26
ENDBRANCH  13  24
BRANCH  14  33
ATOM     33  O   UNL     1      10.416  13.709  20.823  0.00  0.00    +0.000 OA
BRANCH  33  34
ATOM     34  C   UNL     1       9.878  13.744  22.075  0.00  0.00    +0.000 C 
ATOM     35  C   UNL     1       9.213  12.447  22.425  0.00  0.00    +0.000 C 
ATOM     36  O   UNL     1       9.912  14.680  22.862  0.00  0.00    +0.000 OA
ENDBRANCH  33  34
ENDBRANCH  14  33
TORSDOF 10
ENDMDL
MODEL 8
REMARK VINA RESULT:      -6.3      1.092      1.618
REMARK  Name = 
REMARK  15 active torsions:
REMARK  status: ('A' for Active; 'I' for Inactive)
REMARK    1  A    between atoms: C_1  and  O_2
REMARK    2  A    between atoms: O_2  and  C_3
REMARK    3  A    between atoms: C_8  and  C_9
REMARK    4  A    between atoms: C_19  and  C_20
REMARK    5  A    between atoms: C_21  and  C_22
REMARK    6  A    between atoms: C_22  and  C_23
REMARK    7  A    between atoms: C_22  and  C_24
REMARK    8  A    between atoms: C_24  and  C_25
REMARK    9  A    between atoms: C_25  and  C_26
REMARK   10  A    between atoms: C_26  and  O_27
REMARK   11  A    between atoms: O_27  and  C_28
REMARK   12  A    between atoms: C_28  and  C_29
REMARK   13  A    between atoms: C_31  and  O_32
REMARK   14  A    between atoms: O_32  and  C_33
REMARK   15  A    between atoms: C_33  and  C_34
REMARK                            x       y       z     vdW  Elec       q    Type
REMARK                         _______ _______ _______ _____ _____    ______ ____
ROOT
ATOM      1  C   UNL     1      -3.529  13.470  22.004  0.00  0.00    +0.000 C 
ATOM      2  N   UNL     1      -3.185  13.932  20.842  0.00  0.00    +0.000 NA
ATOM      3  O   UNL     1      -1.791  14.122  20.816  0.00  0.00    +0.000 OA
ATOM      4  C   UNL     1      -1.259  13.878  22.109  0.00  0.00    +0.000 C 
ATOM      5  C   UNL     1      -2.390  13.299  22.958  0.00  0.00    +0.000 C 
ATOM      6  C   UNL     1      -0.768  15.208  22.667  0.00  0.00    +0.000 C 
ATOM      7  O   UNL     1      -1.442  16.073  23.205  0.00  0.00    +0.000 OA
ATOM      8  O   UNL     1       0.584  15.311  22.511  0.00  0.00    +0.000 OA
ATOM      9  C   UNL     1       1.077  14.161  21.814  0.00  0.00    +0.000 C 
ATOM     10  C   UNL     1       1.323  14.519  20.344  0.00  0.00    +0.000 C 
ATOM     11  C   UNL     1       1.184  13.404  19.329  0.00  0.00    +0.000 C 
ATOM     12  C   UNL     1       1.840  13.714  18.003  0.00  0.00    +0.000 C 
ATOM     13  C   UNL     1       0.625  12.200  19.621  0.00  0.00    +0.000 C 
ATOM     14  C   UNL     1       0.201  11.898  21.059  0.00  0.00    +0.000 C 
ATOM     15  C   UNL     1       0.050  13.069  22.063  0.00  0.00    +0.000 C 
ENDROOT
BRANCH   1  21
ATOM     16  C   UNL     1      -5.962  12.937  21.306  0.00  0.00    +0.000 A 
ATOM     17  C   UNL     1      -7.304  12.858  21.732  0.00  0.00    +0.000 A 
ATOM     18  C   UNL     1      -7.636  12.797  23.085  0.00  0.00    +0.000 A 
ATOM     19  C   UNL     1      -6.629  12.789  24.037  0.00  0.00    +0.000 A 
ATOM     20  C   UNL     1      -5.300  12.923  23.635  0.00  0.00    +0.000 A 
ATOM     21  C   UNL     1      -4.949  13.059  22.274  0.00  0.00    +0.000 A 
BRANCH  16  23
ATOM     22  C   UNL     1      -5.748  11.664  19.317  0.00  0.00    +0.000 C 
ATOM     23  O   UNL     1      -5.622  12.928  19.977  0.00  0.00    +0.000 OA
ENDBRANCH  16  23
ENDBRANCH   1  21
BRANCH  13  24
ATOM     24  C   UNL     1       0.515  11.083  18.554  0.00  0.00    +0.000 C 
ATOM     25  C   UNL     1       1.799  10.239  18.482  0.00  0.00    +0.000 C 
BRANCH  24  26
ATOM     26  C   UNL     1      -0.678  10.099  18.629  0.00  0.00    +0.000 C 
BRANCH  26  27
ATOM     27  C   UNL     1      -2.064  10.715  18.435  0.00  0.00    +0.000 C 
BRANCH  27  28
ATOM     28  C   UNL     1      -3.011   9.745  17.717  0.00  0.00    +0.000 C 
BRANCH  28  29
ATOM     29  O   UNL     1      -2.741   9.736  16.297  0.00  0.00    +0.000 OA
BRANCH  29  30
ATOM     30  C   UNL     1      -3.545  10.513  15.507  0.00  0.00    +0.000 C 
ATOM     31  C   UNL     1      -3.466  10.082  14.074  0.00  0.00    +0.000 C 
ATOM     32  O   UNL     1      -4.250  11.425  15.898  0.00  0.00    +0.000 OA
ENDBRANCH  29  30
ENDBRANCH  28  29
ENDBRANCH  27  28
ENDBRANCH  26  27
ENDBRANCH  24  26
ENDBRANCH  13  24
BRANCH  14  33
ATOM     33  O   UNL     1       1.115  10.896  21.634  0.00  0.00    +0.000 OA
BRANCH  33  34
ATOM     34  C   UNL     1       0.679   9.654  21.992  0.00  0.00    +0.000 C 
ATOM     35  C   UNL     1      -0.321   9.724  23.107  0.00  0.00    +0.000 C 
ATOM     36  O   UNL     1       1.016   8.588  21.498  0.00  0.00    +0.000 OA
ENDBRANCH  33  34
ENDBRANCH  14  33
TORSDOF 10
ENDMDL
MODEL 9
REMARK VINA RESULT:      -6.3      7.201     10.133
REMARK  Name = 
REMARK  15 active torsions:
REMARK  status: ('A' for Active; 'I' for Inactive)
REMARK    1  A    between atoms: C_1  and  O_2
REMARK    2  A    between atoms: O_2  and  C_3
REMARK    3  A    between atoms: C_8  and  C_9
REMARK    4  A    between atoms: C_19  and  C_20
REMARK    5  A    between atoms: C_21  and  C_22
REMARK    6  A    between atoms: C_22  and  C_23
REMARK    7  A    between atoms: C_22  and  C_24
REMARK    8  A    between atoms: C_24  and  C_25
REMARK    9  A    between atoms: C_25  and  C_26
REMARK   10  A    between atoms: C_26  and  O_27
REMARK   11  A    between atoms: O_27  and  C_28
REMARK   12  A    between atoms: C_28  and  C_29
REMARK   13  A    between atoms: C_31  and  O_32
REMARK   14  A    between atoms: O_32  and  C_33
REMARK   15  A    between atoms: C_33  and  C_34
REMARK                            x       y       z     vdW  Elec       q    Type
REMARK                         _______ _______ _______ _____ _____    ______ ____
ROOT
ATOM      1  C   UNL     1       5.319  15.123  18.987  0.00  0.00    +0.000 C 
ATOM      2  N   UNL     1       5.951  14.637  17.963  0.00  0.00    +0.000 NA
ATOM      3  O   UNL     1       7.327  14.893  18.109  0.00  0.00    +0.000 OA
ATOM      4  C   UNL     1       7.535  15.712  19.248  0.00  0.00    +0.000 C 
ATOM      5  C   UNL     1       6.198  15.811  19.981  0.00  0.00    +0.000 C 
ATOM      6  C   UNL     1       8.004  17.077  18.759  0.00  0.00    +0.000 C 
ATOM      7  O   UNL     1       7.306  17.988  18.342  0.00  0.00    +0.000 OA
ATOM      8  O   UNL     1       9.361  17.174  18.872  0.00  0.00    +0.000 OA
ATOM      9  C   UNL     1       9.894  15.934  19.351  0.00  0.00    +0.000 C 
ATOM     10  C   UNL     1      10.491  15.145  18.181  0.00  0.00    +0.000 C 
ATOM     11  C   UNL     1      10.483  13.635  18.290  0.00  0.00    +0.000 C 
ATOM     12  C   UNL     1      11.442  12.959  17.336  0.00  0.00    +0.000 C 
ATOM     13  C   UNL     1       9.771  12.963  19.233  0.00  0.00    +0.000 C 
ATOM     14  C   UNL     1       9.014  13.749  20.304  0.00  0.00    +0.000 C 
ATOM     15  C   UNL     1       8.746  15.260  20.084  0.00  0.00    +0.000 C 
ENDROOT
BRANCH   1  21
ATOM     16  C   UNL     1       2.832  15.440  18.349  0.00  0.00    +0.000 A 
ATOM     17  C   UNL     1       1.499  15.398  18.807  0.00  0.00    +0.000 A 
ATOM     18  C   UNL     1       1.154  14.738  19.986  0.00  0.00    +0.000 A 
ATOM     19  C   UNL     1       2.134  14.085  20.716  0.00  0.00    +0.000 A 
ATOM     20  C   UNL     1       3.466  14.164  20.307  0.00  0.00    +0.000 A 
ATOM     21  C   UNL     1       3.844  14.889  19.156  0.00  0.00    +0.000 A 
BRANCH  16  23
ATOM     22  C   UNL     1       2.693  17.365  16.971  0.00  0.00    +0.000 C 
ATOM     23  O   UNL     1       3.170  16.028  17.157  0.00  0.00    +0.000 OA
ENDBRANCH  16  23
ENDBRANCH   1  21
BRANCH  13  24
ATOM     24  C   UNL     1       9.804  11.417  19.316  0.00  0.00    +0.000 C 
ATOM     25  C   UNL     1       9.368  10.914  20.703  0.00  0.00    +0.000 C 
BRANCH  24  26
ATOM     26  C   UNL     1       9.016  10.599  18.264  0.00  0.00    +0.000 C 
BRANCH  26  27
ATOM     27  C   UNL     1       8.671   9.162  18.657  0.00  0.00    +0.000 C 
BRANCH  27  28
ATOM     28  C   UNL     1       7.915   8.441  17.534  0.00  0.00    +0.000 C 
BRANCH  28  29
ATOM     29  O   UNL     1       7.437   7.157  17.993  0.00  0.00    +0.000 OA
BRANCH  29  30
ATOM     30  C   UNL     1       6.960   6.294  17.042  0.00  0.00    +0.000 C 
ATOM     31  C   UNL     1       5.682   5.655  17.491  0.00  0.00    +0.000 C 
ATOM     32  O   UNL     1       7.481   6.076  15.964  0.00  0.00    +0.000 OA
ENDBRANCH  29  30
ENDBRANCH  28  29
ENDBRANCH  27  28
ENDBRANCH  26  27
ENDBRANCH  24  26
ENDBRANCH  13  24
BRANCH  14  33
ATOM     33  O   UNL     1       9.687  13.570  21.602  0.00  0.00    +0.000 OA
BRANCH  33  34
ATOM     34  C   UNL     1       9.068  13.885  22.776  0.00  0.00    +0.000 C 
ATOM     35  C   UNL     1       9.528  15.211  23.302  0.00  0.00    +0.000 C 
ATOM     36  O   UNL     1       8.230  13.217  23.365  0.00  0.00    +0.000 OA
ENDBRANCH  33  34
ENDBRANCH  14  33
TORSDOF 10
ENDMDL
