MODEL 1
REMARK VINA RESULT:      -8.4      0.000      0.000
REMARK  Name = 
REMARK  6 active torsions:
REMARK  status: ('A' for Active; 'I' for Inactive)
REMARK    1  A    between atoms: C_2  and  C_14
REMARK    2  A    between atoms: N_3  and  C_4
REMARK    3  A    between atoms: C_10  and  C_11
REMARK    4  A    between atoms: C_11  and  O_13
REMARK    5  A    between atoms: C_18  and  S_19
REMARK    6  A    between atoms: S_19  and  N_22
REMARK                            x       y       z     vdW  Elec       q    Type
REMARK                         _______ _______ _______ _____ _____    ______ ____
ROOT
ATOM      1  O   UNL     1       1.392   5.503  20.639  0.00  0.00    +0.000 OA
ATOM      2  C   UNL     1       2.056   6.013  19.732  0.00  0.00    +0.000 C 
ATOM      3  N   UNL     1       2.145   7.378  19.473  0.00  0.00    +0.000 N 
ATOM      4  H   UNL     1       2.563   7.684  18.596  0.00  0.00    +0.000 HD
ENDROOT
BRANCH   3   5
ATOM      5  C   UNL     1       1.502   8.398  20.244  0.00  0.00    +0.000 A 
ATOM      6  C   UNL     1       1.468   8.328  21.642  0.00  0.00    +0.000 A 
ATOM      7  C   UNL     1       0.781   9.270  22.414  0.00  0.00    +0.000 A 
ATOM      8  C   UNL     1       0.114  10.312  21.792  0.00  0.00    +0.000 A 
ATOM      9 CL   UNL     1      -0.759  11.450  22.740  0.00  0.00    +0.000 Cl
ATOM     10  C   UNL     1       0.158  10.445  20.408  0.00  0.00    +0.000 A 
ATOM     11  C   UNL     1       0.883   9.516  19.631  0.00  0.00    +0.000 A 
BRANCH  11  12
ATOM     12  C   UNL     1       0.921   9.699  18.163  0.00  0.00    +0.000 C 
ATOM     13  O   UNL     1       1.915   9.483  17.494  0.00  0.00    +0.000 OA
BRANCH  12  14
ATOM     14  O   UNL     1      -0.219  10.205  17.632  0.00  0.00    +0.000 OA
ATOM     15  H   UNL     1      -1.052   9.961  18.086  0.00  0.00    +0.000 HD
ENDBRANCH  12  14
ENDBRANCH  11  12
ENDBRANCH   3   5
BRANCH   2  16
ATOM     16  C   UNL     1       2.784   5.053  18.853  0.00  0.00    +0.000 A 
ATOM     17  C   UNL     1       2.624   3.667  18.932  0.00  0.00    +0.000 A 
ATOM     18  C   UNL     1       3.371   2.833  18.090  0.00  0.00    +0.000 A 
ATOM     19  C   UNL     1       4.288   3.372  17.181  0.00  0.00    +0.000 A 
ATOM     20  C   UNL     1       4.483   4.755  17.122  0.00  0.00    +0.000 A 
ATOM     21  C   UNL     1       3.715   5.593  17.938  0.00  0.00    +0.000 A 
BRANCH  20  22
ATOM     22  S   UNL     1       5.511   5.449  15.830  0.00  0.00    +0.000 S 
ATOM     23  O   UNL     1       5.593   4.438  14.797  0.00  0.00    +0.000 OA
ATOM     24  O   UNL     1       4.989   6.764  15.541  0.00  0.00    +0.000 OA
BRANCH  22  25
ATOM     25  N   UNL     1       7.054   5.632  16.473  0.00  0.00    +0.000 NA
ATOM     26  C   UNL     1       7.590   4.688  17.477  0.00  0.00    +0.000 C 
ATOM     27  C   UNL     1       7.527   5.301  18.882  0.00  0.00    +0.000 C 
ATOM     28  O   UNL     1       8.117   6.609  18.945  0.00  0.00    +0.000 OA
ATOM     29  C   UNL     1       7.568   7.514  17.975  0.00  0.00    +0.000 C 
ATOM     30  C   UNL     1       7.701   6.957  16.561  0.00  0.00    +0.000 C 
ENDBRANCH  22  25
ENDBRANCH  20  22
ENDBRANCH   2  16
TORSDOF 6
ENDMDL
MODEL 2
REMARK VINA RESULT:      -8.3      4.176      8.793
REMARK  Name = 
REMARK  6 active torsions:
REMARK  status: ('A' for Active; 'I' for Inactive)
REMARK    1  A    between atoms: C_2  and  C_14
REMARK    2  A    between atoms: N_3  and  C_4
REMARK    3  A    between atoms: C_10  and  C_11
REMARK    4  A    between atoms: C_11  and  O_13
REMARK    5  A    between atoms: C_18  and  S_19
REMARK    6  A    between atoms: S_19  and  N_22
REMARK                            x       y       z     vdW  Elec       q    Type
REMARK                         _______ _______ _______ _____ _____    ______ ____
ROOT
ATOM      1  O   UNL     1       2.344   8.788  17.249  0.00  0.00    +0.000 OA
ATOM      2  C   UNL     1       2.223   8.257  18.356  0.00  0.00    +0.000 C 
ATOM      3  N   UNL     1       2.816   7.057  18.740  0.00  0.00    +0.000 N 
ATOM      4  H   UNL     1       2.506   6.611  19.603  0.00  0.00    +0.000 HD
ENDROOT
BRANCH   3   5
ATOM      5  C   UNL     1       3.682   6.274  17.913  0.00  0.00    +0.000 A 
ATOM      6  C   UNL     1       4.857   6.821  17.383  0.00  0.00    +0.000 A 
ATOM      7  C   UNL     1       5.681   6.102  16.510  0.00  0.00    +0.000 A 
ATOM      8  C   UNL     1       5.340   4.809  16.154  0.00  0.00    +0.000 A 
ATOM      9 CL   UNL     1       6.334   3.938  15.054  0.00  0.00    +0.000 Cl
ATOM     10  C   UNL     1       4.204   4.210  16.690  0.00  0.00    +0.000 A 
ATOM     11  C   UNL     1       3.393   4.921  17.601  0.00  0.00    +0.000 A 
BRANCH  11  12
ATOM     12  C   UNL     1       2.202   4.247  18.164  0.00  0.00    +0.000 C 
ATOM     13  O   UNL     1       1.785   4.467  19.286  0.00  0.00    +0.000 OA
BRANCH  12  14
ATOM     14  O   UNL     1       1.660   3.303  17.357  0.00  0.00    +0.000 OA
ATOM     15  H   UNL     1       0.801   2.930  17.645  0.00  0.00    +0.000 HD
ENDBRANCH  12  14
ENDBRANCH  11  12
ENDBRANCH   3   5
BRANCH   2  16
ATOM     16  C   UNL     1       1.345   8.979  19.321  0.00  0.00    +0.000 A 
ATOM     17  C   UNL     1       1.475   8.869  20.708  0.00  0.00    +0.000 A 
ATOM     18  C   UNL     1       0.587   9.558  21.545  0.00  0.00    +0.000 A 
ATOM     19  C   UNL     1      -0.439  10.342  21.008  0.00  0.00    +0.000 A 
ATOM     20  C   UNL     1      -0.601  10.427  19.623  0.00  0.00    +0.000 A 
ATOM     21  C   UNL     1       0.303   9.768  18.783  0.00  0.00    +0.000 A 
BRANCH  20  22
ATOM     22  S   UNL     1      -1.790  11.580  18.939  0.00  0.00    +0.000 S 
ATOM     23  O   UNL     1      -2.509  12.129  20.069  0.00  0.00    +0.000 OA
ATOM     24  O   UNL     1      -1.067  12.438  18.032  0.00  0.00    +0.000 OA
BRANCH  22  25
ATOM     25  N   UNL     1      -2.888  10.679  18.039  0.00  0.00    +0.000 NA
ATOM     26  C   UNL     1      -2.488   9.995  16.790  0.00  0.00    +0.000 C 
ATOM     27  C   UNL     1      -2.967  10.784  15.565  0.00  0.00    +0.000 C 
ATOM     28  O   UNL     1      -4.364  11.109  15.624  0.00  0.00    +0.000 OA
ATOM     29  C   UNL     1      -4.726  11.790  16.835  0.00  0.00    +0.000 C 
ATOM     30  C   UNL     1      -4.335  10.977  18.065  0.00  0.00    +0.000 C 
ENDBRANCH  22  25
ENDBRANCH  20  22
ENDBRANCH   2  16
TORSDOF 6
ENDMDL
MODEL 3
REMARK VINA RESULT:      -8.1      4.506      7.448
REMARK  Name = 
REMARK  6 active torsions:
REMARK  status: ('A' for Active; 'I' for Inactive)
REMARK    1  A    between atoms: C_2  and  C_14
REMARK    2  A    between atoms: N_3  and  C_4
REMARK    3  A    between atoms: C_10  and  C_11
REMARK    4  A    between atoms: C_11  and  O_13
REMARK    5  A    between atoms: C_18  and  S_19
REMARK    6  A    between atoms: S_19  and  N_22
REMARK                            x       y       z     vdW  Elec       q    Type
REMARK                         _______ _______ _______ _____ _____    ______ ____
ROOT
ATOM      1  O   UNL     1       7.833  10.081  17.461  0.00  0.00    +0.000 OA
ATOM      2  C   UNL     1       8.431   9.357  18.262  0.00  0.00    +0.000 C 
ATOM      3  N   UNL     1       9.459   9.772  19.106  0.00  0.00    +0.000 N 
ATOM      4  H   UNL     1      10.011   9.065  19.590  0.00  0.00    +0.000 HD
ENDROOT
BRANCH   3   5
ATOM      5  C   UNL     1       9.953  11.112  19.191  0.00  0.00    +0.000 A 
ATOM      6  C   UNL     1      10.741  11.653  18.168  0.00  0.00    +0.000 A 
ATOM      7  C   UNL     1      11.299  12.932  18.261  0.00  0.00    +0.000 A 
ATOM      8  C   UNL     1      11.072  13.699  19.391  0.00  0.00    +0.000 A 
ATOM      9 CL   UNL     1      11.788  15.257  19.521  0.00  0.00    +0.000 Cl
ATOM     10  C   UNL     1      10.260  13.218  20.413  0.00  0.00    +0.000 A 
ATOM     11  C   UNL     1       9.664  11.943  20.303  0.00  0.00    +0.000 A 
BRANCH  11  12
ATOM     12  C   UNL     1       8.794  11.471  21.402  0.00  0.00    +0.000 C 
ATOM     13  O   UNL     1       7.944  12.171  21.921  0.00  0.00    +0.000 OA
BRANCH  12  14
ATOM     14  O   UNL     1       9.076  10.220  21.841  0.00  0.00    +0.000 OA
ATOM     15  H   UNL     1       8.448   9.838  22.489  0.00  0.00    +0.000 HD
ENDBRANCH  12  14
ENDBRANCH  11  12
ENDBRANCH   3   5
BRANCH   2  16
ATOM     16  C   UNL     1       8.005   7.928  18.278  0.00  0.00    +0.000 A 
ATOM     17  C   UNL     1       8.470   6.998  19.212  0.00  0.00    +0.000 A 
ATOM     18  C   UNL     1       8.043   5.666  19.137  0.00  0.00    +0.000 A 
ATOM     19  C   UNL     1       7.169   5.252  18.127  0.00  0.00    +0.000 A 
ATOM     20  C   UNL     1       6.728   6.166  17.165  0.00  0.00    +0.000 A 
ATOM     21  C   UNL     1       7.125   7.504  17.256  0.00  0.00    +0.000 A 
BRANCH  20  22
ATOM     22  S   UNL     1       5.463   5.678  15.995  0.00  0.00    +0.000 S 
ATOM     23  O   UNL     1       5.143   6.867  15.233  0.00  0.00    +0.000 OA
ATOM     24  O   UNL     1       5.936   4.483  15.340  0.00  0.00    +0.000 OA
BRANCH  22  25
ATOM     25  N   UNL     1       4.095   5.276  16.887  0.00  0.00    +0.000 NA
ATOM     26  C   UNL     1       3.563   6.174  17.935  0.00  0.00    +0.000 C 
ATOM     27  C   UNL     1       3.952   5.667  19.329  0.00  0.00    +0.000 C 
ATOM     28  O   UNL     1       3.621   4.285  19.531  0.00  0.00    +0.000 OA
ATOM     29  C   UNL     1       4.164   3.429  18.515  0.00  0.00    +0.000 C 
ATOM     30  C   UNL     1       3.716   3.868  17.124  0.00  0.00    +0.000 C 
ENDBRANCH  22  25
ENDBRANCH  20  22
ENDBRANCH   2  16
TORSDOF 6
ENDMDL
MODEL 4
REMARK VINA RESULT:      -7.9      3.945      8.059
REMARK  Name = 
REMARK  6 active torsions:
REMARK  status: ('A' for Active; 'I' for Inactive)
REMARK    1  A    between atoms: C_2  and  C_14
REMARK    2  A    between atoms: N_3  and  C_4
REMARK    3  A    between atoms: C_10  and  C_11
REMARK    4  A    between atoms: C_11  and  O_13
REMARK    5  A    between atoms: C_18  and  S_19
REMARK    6  A    between atoms: S_19  and  N_22
REMARK                            x       y       z     vdW  Elec       q    Type
REMARK                         _______ _______ _______ _____ _____    ______ ____
ROOT
ATOM      1  O   UNL     1       2.233   8.649  17.362  0.00  0.00    +0.000 OA
ATOM      2  C   UNL     1       2.220   8.101  18.467  0.00  0.00    +0.000 C 
ATOM      3  N   UNL     1       2.886   6.920  18.785  0.00  0.00    +0.000 N 
ATOM      4  H   UNL     1       2.664   6.453  19.663  0.00  0.00    +0.000 HD
ENDROOT
BRANCH   3   5
ATOM      5  C   UNL     1       3.714   6.182  17.880  0.00  0.00    +0.000 A 
ATOM      6  C   UNL     1       4.860   6.759  17.321  0.00  0.00    +0.000 A 
ATOM      7  C   UNL     1       5.643   6.086  16.377  0.00  0.00    +0.000 A 
ATOM      8  C   UNL     1       5.288   4.810  15.976  0.00  0.00    +0.000 A 
ATOM      9 CL   UNL     1       6.229   3.997  14.789  0.00  0.00    +0.000 Cl
ATOM     10  C   UNL     1       4.181   4.181  16.537  0.00  0.00    +0.000 A 
ATOM     11  C   UNL     1       3.413   4.844  17.519  0.00  0.00    +0.000 A 
BRANCH  11  12
ATOM     12  C   UNL     1       2.252   4.139  18.106  0.00  0.00    +0.000 C 
ATOM     13  O   UNL     1       1.283   3.801  17.451  0.00  0.00    +0.000 OA
BRANCH  12  14
ATOM     14  O   UNL     1       2.319   3.972  19.449  0.00  0.00    +0.000 OA
ATOM     15  H   UNL     1       1.593   4.373  19.971  0.00  0.00    +0.000 HD
ENDBRANCH  12  14
ENDBRANCH  11  12
ENDBRANCH   3   5
BRANCH   2  16
ATOM     16  C   UNL     1       1.394   8.777  19.509  0.00  0.00    +0.000 A 
ATOM     17  C   UNL     1       1.369   8.377  20.848  0.00  0.00    +0.000 A 
ATOM     18  C   UNL     1       0.541   9.047  21.757  0.00  0.00    +0.000 A 
ATOM     19  C   UNL     1      -0.275  10.102  21.337  0.00  0.00    +0.000 A 
ATOM     20  C   UNL     1      -0.286  10.484  19.992  0.00  0.00    +0.000 A 
ATOM     21  C   UNL     1       0.565   9.840  19.087  0.00  0.00    +0.000 A 
BRANCH  20  22
ATOM     22  S   UNL     1      -1.182  11.954  19.497  0.00  0.00    +0.000 S 
ATOM     23  O   UNL     1      -1.570  11.741  18.118  0.00  0.00    +0.000 OA
ATOM     24  O   UNL     1      -2.173  12.204  20.516  0.00  0.00    +0.000 OA
BRANCH  22  25
ATOM     25  N   UNL     1      -0.085  13.229  19.515  0.00  0.00    +0.000 NA
ATOM     26  C   UNL     1       0.698  13.593  18.314  0.00  0.00    +0.000 C 
ATOM     27  C   UNL     1       2.136  13.073  18.429  0.00  0.00    +0.000 C 
ATOM     28  O   UNL     1       2.766  13.447  19.664  0.00  0.00    +0.000 OA
ATOM     29  C   UNL     1       1.999  13.066  20.816  0.00  0.00    +0.000 C 
ATOM     30  C   UNL     1       0.590  13.648  20.760  0.00  0.00    +0.000 C 
ENDBRANCH  22  25
ENDBRANCH  20  22
ENDBRANCH   2  16
TORSDOF 6
ENDMDL
MODEL 5
REMARK VINA RESULT:      -7.9      2.520      3.586
REMARK  Name = 
REMARK  6 active torsions:
REMARK  status: ('A' for Active; 'I' for Inactive)
REMARK    1  A    between atoms: C_2  and  C_14
REMARK    2  A    between atoms: N_3  and  C_4
REMARK    3  A    between atoms: C_10  and  C_11
REMARK    4  A    between atoms: C_11  and  O_13
REMARK    5  A    between atoms: C_18  and  S_19
REMARK    6  A    between atoms: S_19  and  N_22
REMARK                            x       y       z     vdW  Elec       q    Type
REMARK                         _______ _______ _______ _____ _____    ______ ____
ROOT
ATOM      1  O   UNL     1       2.427   9.322  17.919  0.00  0.00    +0.000 OA
ATOM      2  C   UNL     1       1.798   9.016  18.935  0.00  0.00    +0.000 C 
ATOM      3  N   UNL     1       0.976   9.875  19.660  0.00  0.00    +0.000 N 
ATOM      4  H   UNL     1       0.652   9.583  20.581  0.00  0.00    +0.000 HD
ENDROOT
BRANCH   3   5
ATOM      5  C   UNL     1       0.712  11.238  19.312  0.00  0.00    +0.000 A 
ATOM      6  C   UNL     1       1.593  12.258  19.688  0.00  0.00    +0.000 A 
ATOM      7  C   UNL     1       1.322  13.606  19.427  0.00  0.00    +0.000 A 
ATOM      8  C   UNL     1       0.152  13.955  18.774  0.00  0.00    +0.000 A 
ATOM      9 CL   UNL     1      -0.199  15.614  18.485  0.00  0.00    +0.000 Cl
ATOM     10  C   UNL     1      -0.732  12.971  18.344  0.00  0.00    +0.000 A 
ATOM     11  C   UNL     1      -0.440  11.609  18.572  0.00  0.00    +0.000 A 
BRANCH  11  12
ATOM     12  C   UNL     1      -1.395  10.589  18.087  0.00  0.00    +0.000 C 
ATOM     13  O   UNL     1      -2.507  10.444  18.560  0.00  0.00    +0.000 OA
BRANCH  12  14
ATOM     14  O   UNL     1      -0.900   9.772  17.124  0.00  0.00    +0.000 OA
ATOM     15  H   UNL     1      -0.005   9.408  17.285  0.00  0.00    +0.000 HD
ENDBRANCH  12  14
ENDBRANCH  11  12
ENDBRANCH   3   5
BRANCH   2  16
ATOM     16  C   UNL     1       1.981   7.612  19.404  0.00  0.00    +0.000 A 
ATOM     17  C   UNL     1       1.400   7.111  20.573  0.00  0.00    +0.000 A 
ATOM     18  C   UNL     1       1.649   5.788  20.959  0.00  0.00    +0.000 A 
ATOM     19  C   UNL     1       2.486   4.966  20.197  0.00  0.00    +0.000 A 
ATOM     20  C   UNL     1       3.103   5.470  19.049  0.00  0.00    +0.000 A 
ATOM     21  C   UNL     1       2.831   6.781  18.641  0.00  0.00    +0.000 A 
BRANCH  20  22
ATOM     22  S   UNL     1       4.016   4.364  17.976  0.00  0.00    +0.000 S 
ATOM     23  O   UNL     1       4.629   3.380  18.844  0.00  0.00    +0.000 OA
ATOM     24  O   UNL     1       3.116   3.964  16.922  0.00  0.00    +0.000 OA
BRANCH  22  25
ATOM     25  N   UNL     1       5.259   5.262  17.285  0.00  0.00    +0.000 NA
ATOM     26  C   UNL     1       5.482   5.278  15.823  0.00  0.00    +0.000 C 
ATOM     27  C   UNL     1       6.663   4.376  15.446  0.00  0.00    +0.000 C 
ATOM     28  O   UNL     1       7.844   4.655  16.213  0.00  0.00    +0.000 OA
ATOM     29  C   UNL     1       7.610   4.614  17.629  0.00  0.00    +0.000 C 
ATOM     30  C   UNL     1       6.494   5.573  18.034  0.00  0.00    +0.000 C 
ENDBRANCH  22  25
ENDBRANCH  20  22
ENDBRANCH   2  16
TORSDOF 6
ENDMDL
MODEL 6
REMARK VINA RESULT:      -7.9      4.027      8.312
REMARK  Name = 
REMARK  6 active torsions:
REMARK  status: ('A' for Active; 'I' for Inactive)
REMARK    1  A    between atoms: C_2  and  C_14
REMARK    2  A    between atoms: N_3  and  C_4
REMARK    3  A    between atoms: C_10  and  C_11
REMARK    4  A    between atoms: C_11  and  O_13
REMARK    5  A    between atoms: C_18  and  S_19
REMARK    6  A    between atoms: S_19  and  N_22
REMARK                            x       y       z     vdW  Elec       q    Type
REMARK                         _______ _______ _______ _____ _____    ______ ____
ROOT
ATOM      1  O   UNL     1       2.127   8.710  17.378  0.00  0.00    +0.000 OA
ATOM      2  C   UNL     1       2.105   8.221  18.510  0.00  0.00    +0.000 C 
ATOM      3  N   UNL     1       2.749   7.047  18.891  0.00  0.00    +0.000 N 
ATOM      4  H   UNL     1       2.518   6.631  19.792  0.00  0.00    +0.000 HD
ENDROOT
BRANCH   3   5
ATOM      5  C   UNL     1       3.562   6.246  18.027  0.00  0.00    +0.000 A 
ATOM      6  C   UNL     1       4.737   6.760  17.466  0.00  0.00    +0.000 A 
ATOM      7  C   UNL     1       5.508   6.026  16.560  0.00  0.00    +0.000 A 
ATOM      8  C   UNL     1       5.113   4.749  16.199  0.00  0.00    +0.000 A 
ATOM      9 CL   UNL     1       6.041   3.859  15.058  0.00  0.00    +0.000 Cl
ATOM     10  C   UNL     1       3.975   4.182  16.765  0.00  0.00    +0.000 A 
ATOM     11  C   UNL     1       3.217   4.908  17.709  0.00  0.00    +0.000 A 
BRANCH  11  12
ATOM     12  C   UNL     1       2.022   4.268  18.301  0.00  0.00    +0.000 C 
ATOM     13  O   UNL     1       1.841   4.187  19.502  0.00  0.00    +0.000 OA
BRANCH  12  14
ATOM     14  O   UNL     1       1.184   3.704  17.398  0.00  0.00    +0.000 OA
ATOM     15  H   UNL     1       1.561   3.523  16.512  0.00  0.00    +0.000 HD
ENDBRANCH  12  14
ENDBRANCH  11  12
ENDBRANCH   3   5
BRANCH   2  16
ATOM     16  C   UNL     1       1.292   8.967  19.514  0.00  0.00    +0.000 A 
ATOM     17  C   UNL     1       1.273   8.649  20.875  0.00  0.00    +0.000 A 
ATOM     18  C   UNL     1       0.457   9.381  21.747  0.00  0.00    +0.000 A 
ATOM     19  C   UNL     1      -0.352  10.416  21.269  0.00  0.00    +0.000 A 
ATOM     20  C   UNL     1      -0.370  10.716  19.904  0.00  0.00    +0.000 A 
ATOM     21  C   UNL     1       0.469  10.010  19.034  0.00  0.00    +0.000 A 
BRANCH  20  22
ATOM     22  S   UNL     1      -1.257  12.161  19.325  0.00  0.00    +0.000 S 
ATOM     23  O   UNL     1      -1.275  12.068  17.881  0.00  0.00    +0.000 OA
ATOM     24  O   UNL     1      -2.485  12.228  20.080  0.00  0.00    +0.000 OA
BRANCH  22  25
ATOM     25  N   UNL     1      -0.326  13.503  19.727  0.00  0.00    +0.000 NA
ATOM     26  C   UNL     1       1.122  13.556  19.433  0.00  0.00    +0.000 C 
ATOM     27  C   UNL     1       1.941  13.291  20.703  0.00  0.00    +0.000 C 
ATOM     28  O   UNL     1       1.545  14.124  21.803  0.00  0.00    +0.000 OA
ATOM     29  C   UNL     1       0.139  14.042  22.084  0.00  0.00    +0.000 C 
ATOM     30  C   UNL     1      -0.692  14.387  20.852  0.00  0.00    +0.000 C 
ENDBRANCH  22  25
ENDBRANCH  20  22
ENDBRANCH   2  16
TORSDOF 6
ENDMDL
MODEL 7
REMARK VINA RESULT:      -7.8      4.142      8.459
REMARK  Name = 
REMARK  6 active torsions:
REMARK  status: ('A' for Active; 'I' for Inactive)
REMARK    1  A    between atoms: C_2  and  C_14
REMARK    2  A    between atoms: N_3  and  C_4
REMARK    3  A    between atoms: C_10  and  C_11
REMARK    4  A    between atoms: C_11  and  O_13
REMARK    5  A    between atoms: C_18  and  S_19
REMARK    6  A    between atoms: S_19  and  N_22
REMARK                            x       y       z     vdW  Elec       q    Type
REMARK                         _______ _______ _______ _____ _____    ______ ____
ROOT
ATOM      1  O   UNL     1       2.165   8.752  17.366  0.00  0.00    +0.000 OA
ATOM      2  C   UNL     1       2.120   8.225  18.481  0.00  0.00    +0.000 C 
ATOM      3  N   UNL     1       2.745   7.031  18.830  0.00  0.00    +0.000 N 
ATOM      4  H   UNL     1       2.495   6.587  19.713  0.00  0.00    +0.000 HD
ENDROOT
BRANCH   3   5
ATOM      5  C   UNL     1       3.563   6.252  17.952  0.00  0.00    +0.000 A 
ATOM      6  C   UNL     1       4.691   6.809  17.338  0.00  0.00    +0.000 A 
ATOM      7  C   UNL     1       5.463   6.092  16.417  0.00  0.00    +0.000 A 
ATOM      8  C   UNL     1       5.116   4.791  16.097  0.00  0.00    +0.000 A 
ATOM      9 CL   UNL     1       6.043   3.923  14.938  0.00  0.00    +0.000 Cl
ATOM     10  C   UNL     1       4.028   4.183  16.715  0.00  0.00    +0.000 A 
ATOM     11  C   UNL     1       3.272   4.892  17.674  0.00  0.00    +0.000 A 
BRANCH  11  12
ATOM     12  C   UNL     1       2.132   4.209  18.323  0.00  0.00    +0.000 C 
ATOM     13  O   UNL     1       2.035   4.082  19.530  0.00  0.00    +0.000 OA
BRANCH  12  14
ATOM     14  O   UNL     1       1.242   3.660  17.460  0.00  0.00    +0.000 OA
ATOM     15  H   UNL     1       0.353   3.463  17.822  0.00  0.00    +0.000 HD
ENDBRANCH  12  14
ENDBRANCH  11  12
ENDBRANCH   3   5
BRANCH   2  16
ATOM     16  C   UNL     1       1.299   8.944  19.497  0.00  0.00    +0.000 A 
ATOM     17  C   UNL     1       1.236   8.566  20.841  0.00  0.00    +0.000 A 
ATOM     18  C   UNL     1       0.415   9.278  21.725  0.00  0.00    +0.000 A 
ATOM     19  C   UNL     1      -0.356  10.353  21.275  0.00  0.00    +0.000 A 
ATOM     20  C   UNL     1      -0.330  10.715  19.925  0.00  0.00    +0.000 A 
ATOM     21  C   UNL     1       0.514  10.029  19.045  0.00  0.00    +0.000 A 
BRANCH  20  22
ATOM     22  S   UNL     1      -1.167  12.207  19.392  0.00  0.00    +0.000 S 
ATOM     23  O   UNL     1      -1.067  12.227  17.948  0.00  0.00    +0.000 OA
ATOM     24  O   UNL     1      -2.452  12.223  20.047  0.00  0.00    +0.000 OA
BRANCH  22  25
ATOM     25  N   UNL     1      -0.271  13.507  19.972  0.00  0.00    +0.000 NA
ATOM     26  C   UNL     1      -0.807  14.885  19.952  0.00  0.00    +0.000 C 
ATOM     27  C   UNL     1      -0.196  15.686  18.796  0.00  0.00    +0.000 C 
ATOM     28  O   UNL     1       1.238  15.624  18.772  0.00  0.00    +0.000 OA
ATOM     29  C   UNL     1       1.736  14.277  18.770  0.00  0.00    +0.000 C 
ATOM     30  C   UNL     1       1.206  13.490  19.965  0.00  0.00    +0.000 C 
ENDBRANCH  22  25
ENDBRANCH  20  22
ENDBRANCH   2  16
TORSDOF 6
ENDMDL
MODEL 8
REMARK VINA RESULT:      -7.8      2.468      3.495
REMARK  Name = 
REMARK  6 active torsions:
REMARK  status: ('A' for Active; 'I' for Inactive)
REMARK    1  A    between atoms: C_2  and  C_14
REMARK    2  A    between atoms: N_3  and  C_4
REMARK    3  A    between atoms: C_10  and  C_11
REMARK    4  A    between atoms: C_11  and  O_13
REMARK    5  A    between atoms: C_18  and  S_19
REMARK    6  A    between atoms: S_19  and  N_22
REMARK                            x       y       z     vdW  Elec       q    Type
REMARK                         _______ _______ _______ _____ _____    ______ ____
ROOT
ATOM      1  O   UNL     1       2.185   8.640  18.517  0.00  0.00    +0.000 OA
ATOM      2  C   UNL     1       1.760   8.181  19.580  0.00  0.00    +0.000 C 
ATOM      3  N   UNL     1       1.036   8.895  20.531  0.00  0.00    +0.000 N 
ATOM      4  H   UNL     1       0.894   8.482  21.452  0.00  0.00    +0.000 HD
ENDROOT
BRANCH   3   5
ATOM      5  C   UNL     1       0.649  10.267  20.400  0.00  0.00    +0.000 A 
ATOM      6  C   UNL     1       0.842  10.956  19.197  0.00  0.00    +0.000 A 
ATOM      7  C   UNL     1       0.544  12.316  19.065  0.00  0.00    +0.000 A 
ATOM      8  C   UNL     1       0.038  13.014  20.148  0.00  0.00    +0.000 A 
ATOM      9 CL   UNL     1      -0.296  14.695  19.997  0.00  0.00    +0.000 Cl
ATOM     10  C   UNL     1      -0.211  12.360  21.350  0.00  0.00    +0.000 A 
ATOM     11  C   UNL     1       0.054  10.979  21.472  0.00  0.00    +0.000 A 
BRANCH  11  12
ATOM     12  C   UNL     1      -0.238  10.313  22.760  0.00  0.00    +0.000 C 
ATOM     13  O   UNL     1      -1.327  10.364  23.301  0.00  0.00    +0.000 OA
BRANCH  12  14
ATOM     14  O   UNL     1       0.832   9.707  23.332  0.00  0.00    +0.000 OA
ATOM     15  H   UNL     1       1.366   9.131  22.747  0.00  0.00    +0.000 HD
ENDBRANCH  12  14
ENDBRANCH  11  12
ENDBRANCH   3   5
BRANCH   2  16
ATOM     16  C   UNL     1       2.091   6.750  19.838  0.00  0.00    +0.000 A 
ATOM     17  C   UNL     1       1.417   5.963  20.776  0.00  0.00    +0.000 A 
ATOM     18  C   UNL     1       1.813   4.634  20.980  0.00  0.00    +0.000 A 
ATOM     19  C   UNL     1       2.886   4.091  20.266  0.00  0.00    +0.000 A 
ATOM     20  C   UNL     1       3.591   4.881  19.354  0.00  0.00    +0.000 A 
ATOM     21  C   UNL     1       3.178   6.198  19.123  0.00  0.00    +0.000 A 
BRANCH  20  22
ATOM     22  S   UNL     1       4.834   4.129  18.307  0.00  0.00    +0.000 S 
ATOM     23  O   UNL     1       6.023   4.005  19.124  0.00  0.00    +0.000 OA
ATOM     24  O   UNL     1       4.226   2.970  17.701  0.00  0.00    +0.000 OA
BRANCH  22  25
ATOM     25  N   UNL     1       5.182   5.233  17.086  0.00  0.00    +0.000 NA
ATOM     26  C   UNL     1       5.388   4.799  15.687  0.00  0.00    +0.000 C 
ATOM     27  C   UNL     1       6.882   4.778  15.342  0.00  0.00    +0.000 C 
ATOM     28  O   UNL     1       7.545   6.009  15.668  0.00  0.00    +0.000 OA
ATOM     29  C   UNL     1       7.349   6.400  17.035  0.00  0.00    +0.000 C 
ATOM     30  C   UNL     1       5.865   6.510  17.372  0.00  0.00    +0.000 C 
ENDBRANCH  22  25
ENDBRANCH  20  22
ENDBRANCH   2  16
TORSDOF 6
ENDMDL
MODEL 9
REMARK VINA RESULT:      -7.8      1.722      2.728
REMARK  Name = 
REMARK  6 active torsions:
REMARK  status: ('A' for Active; 'I' for Inactive)
REMARK    1  A    between atoms: C_2  and  C_14
REMARK    2  A    between atoms: N_3  and  C_4
REMARK    3  A    between atoms: C_10  and  C_11
REMARK    4  A    between atoms: C_11  and  O_13
REMARK    5  A    between atoms: C_18  and  S_19
REMARK    6  A    between atoms: S_19  and  N_22
REMARK                            x       y       z     vdW  Elec       q    Type
REMARK                         _______ _______ _______ _____ _____    ______ ____
ROOT
ATOM      1  O   UNL     1       2.291   9.290  18.172  0.00  0.00    +0.000 OA
ATOM      2  C   UNL     1       1.950   8.418  18.975  0.00  0.00    +0.000 C 
ATOM      3  N   UNL     1       1.013   8.585  19.991  0.00  0.00    +0.000 N 
ATOM      4  H   UNL     1       0.940   7.869  20.713  0.00  0.00    +0.000 HD
ENDROOT
BRANCH   3   5
ATOM      5  C   UNL     1       0.282   9.790  20.236  0.00  0.00    +0.000 A 
ATOM      6  C   UNL     1      -0.376  10.455  19.194  0.00  0.00    +0.000 A 
ATOM      7  C   UNL     1      -1.033  11.674  19.391  0.00  0.00    +0.000 A 
ATOM      8  C   UNL     1      -1.046  12.250  20.650  0.00  0.00    +0.000 A 
ATOM      9 CL   UNL     1      -1.824  13.766  20.885  0.00  0.00    +0.000 Cl
ATOM     10  C   UNL     1      -0.442  11.603  21.723  0.00  0.00    +0.000 A 
ATOM     11  C   UNL     1       0.188  10.355  21.533  0.00  0.00    +0.000 A 
BRANCH  11  12
ATOM     12  C   UNL     1       0.805   9.688  22.701  0.00  0.00    +0.000 C 
ATOM     13  O   UNL     1       0.252   9.598  23.781  0.00  0.00    +0.000 OA
BRANCH  12  14
ATOM     14  O   UNL     1       2.073   9.257  22.493  0.00  0.00    +0.000 OA
ATOM     15  H   UNL     1       2.182   8.530  21.846  0.00  0.00    +0.000 HD
ENDBRANCH  12  14
ENDBRANCH  11  12
ENDBRANCH   3   5
BRANCH   2  16
ATOM     16  C   UNL     1       2.638   7.103  18.824  0.00  0.00    +0.000 A 
ATOM     17  C   UNL     1       2.442   6.030  19.697  0.00  0.00    +0.000 A 
ATOM     18  C   UNL     1       3.152   4.838  19.503  0.00  0.00    +0.000 A 
ATOM     19  C   UNL     1       4.068   4.716  18.454  0.00  0.00    +0.000 A 
ATOM     20  C   UNL     1       4.301   5.797  17.599  0.00  0.00    +0.000 A 
ATOM     21  C   UNL     1       3.569   6.977  17.769  0.00  0.00    +0.000 A 
BRANCH  20  22
ATOM     22  S   UNL     1       5.327   5.574  16.147  0.00  0.00    +0.000 S 
ATOM     23  O   UNL     1       5.128   4.203  15.724  0.00  0.00    +0.000 OA
ATOM     24  O   UNL     1       5.039   6.673  15.258  0.00  0.00    +0.000 OA
BRANCH  22  25
ATOM     25  N   UNL     1       6.926   5.714  16.648  0.00  0.00    +0.000 NA
ATOM     26  C   UNL     1       7.495   4.818  17.678  0.00  0.00    +0.000 C 
ATOM     27  C   UNL     1       7.582   5.536  19.031  0.00  0.00    +0.000 C 
ATOM     28  O   UNL     1       8.241   6.809  18.944  0.00  0.00    +0.000 OA
ATOM     29  C   UNL     1       7.660   7.669  17.953  0.00  0.00    +0.000 C 
ATOM     30  C   UNL     1       7.645   7.002  16.580  0.00  0.00    +0.000 C 
ENDBRANCH  22  25
ENDBRANCH  20  22
ENDBRANCH   2  16
TORSDOF 6
ENDMDL
