MODEL 1
REMARK VINA RESULT:      -6.1      0.000      0.000
REMARK  Name = 
REMARK  7 active torsions:
REMARK  status: ('A' for Active; 'I' for Inactive)
REMARK    1  A    between atoms: C_1  and  C_2
REMARK    2  A    between atoms: C_5  and  C_6
REMARK    3  A    between atoms: C_7  and  C_8
REMARK    4  A    between atoms: N_10  and  C_11
REMARK    5  A    between atoms: C_13  and  C_14
REMARK    6  A    between atoms: C_15  and  C_16
REMARK    7  A    between atoms: C_17  and  C_18
REMARK                            x       y       z     vdW  Elec       q    Type
REMARK                         _______ _______ _______ _____ _____    ______ ____
ROOT
ATOM      1  C   UNL     1       5.389   4.845  17.415  0.00  0.00    +0.000 C 
ATOM      2  O   UNL     1       5.708   4.213  18.421  0.00  0.00    +0.000 OA
ATOM      3  N   UNL     1       4.055   5.046  17.052  0.00  0.00    +0.000 N 
ATOM      4  H   UNL     1       3.849   5.155  16.072  0.00  0.00    +0.000 HD
ENDROOT
BRANCH   1  11
ATOM      5  C   UNL     1       6.124   3.740  14.473  0.00  0.00    +0.000 C 
ATOM      6  C   UNL     1       6.740   4.869  15.215  0.00  0.00    +0.000 A 
ATOM      7  N   UNL     1       7.746   5.547  14.652  0.00  0.00    +0.000 NA
ATOM      8  O   UNL     1       8.110   6.501  15.567  0.00  0.00    +0.000 OA
ATOM      9  C   UNL     1       7.329   6.406  16.677  0.00  0.00    +0.000 A 
ATOM     10  C   UNL     1       7.663   7.392  17.724  0.00  0.00    +0.000 C 
ATOM     11  C   UNL     1       6.419   5.375  16.521  0.00  0.00    +0.000 A 
ENDBRANCH   1  11
BRANCH   3  12
ATOM     12  C   UNL     1       3.061   4.483  17.842  0.00  0.00    +0.000 A 
ATOM     13  S   UNL     1       2.552   2.921  17.401  0.00  0.00    +0.000 S 
ATOM     14  C   UNL     1       1.506   2.800  18.763  0.00  0.00    +0.000 A 
ATOM     15  C   UNL     1       0.757   1.537  19.051  0.00  0.00    +0.000 C 
ATOM     16  C   UNL     1       1.447   3.994  19.471  0.00  0.00    +0.000 A 
ATOM     17  C   UNL     1       0.549   4.258  20.643  0.00  0.00    +0.000 C 
ATOM     18  C   UNL     1       2.359   4.966  18.923  0.00  0.00    +0.000 A 
BRANCH  18  19
ATOM     19  C   UNL     1       2.437   6.325  19.387  0.00  0.00    +0.000 C 
ATOM     20  N   UNL     1       2.457   7.442  19.675  0.00  0.00    +0.000 NA
ENDBRANCH  18  19
ENDBRANCH   3  12
TORSDOF 3
ENDMDL
MODEL 2
REMARK VINA RESULT:      -6.0      1.713      2.536
REMARK  Name = 
REMARK  7 active torsions:
REMARK  status: ('A' for Active; 'I' for Inactive)
REMARK    1  A    between atoms: C_1  and  C_2
REMARK    2  A    between atoms: C_5  and  C_6
REMARK    3  A    between atoms: C_7  and  C_8
REMARK    4  A    between atoms: N_10  and  C_11
REMARK    5  A    between atoms: C_13  and  C_14
REMARK    6  A    between atoms: C_15  and  C_16
REMARK    7  A    between atoms: C_17  and  C_18
REMARK                            x       y       z     vdW  Elec       q    Type
REMARK                         _______ _______ _______ _____ _____    ______ ____
ROOT
ATOM      1  C   UNL     1       4.819   4.410  16.477  0.00  0.00    +0.000 C 
ATOM      2  O   UNL     1       3.715   4.012  16.109  0.00  0.00    +0.000 OA
ATOM      3  N   UNL     1       5.105   4.682  17.816  0.00  0.00    +0.000 N 
ATOM      4  H   UNL     1       5.801   5.384  18.012  0.00  0.00    +0.000 HD
ENDROOT
BRANCH   1  11
ATOM      5  C   UNL     1       7.449   6.227  16.920  0.00  0.00    +0.000 C 
ATOM      6  C   UNL     1       7.038   5.481  15.705  0.00  0.00    +0.000 A 
ATOM      7  N   UNL     1       7.806   5.543  14.612  0.00  0.00    +0.000 NA
ATOM      8  O   UNL     1       7.170   4.780  13.666  0.00  0.00    +0.000 OA
ATOM      9  C   UNL     1       6.025   4.256  14.181  0.00  0.00    +0.000 A 
ATOM     10  C   UNL     1       5.266   3.429  13.223  0.00  0.00    +0.000 C 
ATOM     11  C   UNL     1       5.873   4.665  15.496  0.00  0.00    +0.000 A 
ENDBRANCH   1  11
BRANCH   3  12
ATOM     12  C   UNL     1       4.094   4.525  18.755  0.00  0.00    +0.000 A 
ATOM     13  S   UNL     1       4.005   3.004  19.510  0.00  0.00    +0.000 S 
ATOM     14  C   UNL     1       2.734   3.515  20.552  0.00  0.00    +0.000 A 
ATOM     15  C   UNL     1       2.201   2.612  21.621  0.00  0.00    +0.000 C 
ATOM     16  C   UNL     1       2.293   4.792  20.233  0.00  0.00    +0.000 A 
ATOM     17  C   UNL     1       1.130   5.489  20.875  0.00  0.00    +0.000 C 
ATOM     18  C   UNL     1       3.095   5.370  19.184  0.00  0.00    +0.000 A 
BRANCH  18  19
ATOM     19  C   UNL     1       2.804   6.641  18.576  0.00  0.00    +0.000 C 
ATOM     20  N   UNL     1       2.620   7.702  18.163  0.00  0.00    +0.000 NA
ENDBRANCH  18  19
ENDBRANCH   3  12
TORSDOF 3
ENDMDL
MODEL 3
REMARK VINA RESULT:      -5.9      1.461      1.461
REMARK  Name = 
REMARK  7 active torsions:
REMARK  status: ('A' for Active; 'I' for Inactive)
REMARK    1  A    between atoms: C_1  and  C_2
REMARK    2  A    between atoms: C_5  and  C_6
REMARK    3  A    between atoms: C_7  and  C_8
REMARK    4  A    between atoms: N_10  and  C_11
REMARK    5  A    between atoms: C_13  and  C_14
REMARK    6  A    between atoms: C_15  and  C_16
REMARK    7  A    between atoms: C_17  and  C_18
REMARK                            x       y       z     vdW  Elec       q    Type
REMARK                         _______ _______ _______ _____ _____    ______ ____
ROOT
ATOM      1  C   UNL     1       5.071   4.739  16.855  0.00  0.00    +0.000 C 
ATOM      2  O   UNL     1       4.059   4.306  16.305  0.00  0.00    +0.000 OA
ATOM      3  N   UNL     1       5.168   4.870  18.242  0.00  0.00    +0.000 N 
ATOM      4  H   UNL     1       5.770   5.593  18.602  0.00  0.00    +0.000 HD
ENDROOT
BRANCH   1  11
ATOM      5  C   UNL     1       5.869   3.693  13.907  0.00  0.00    +0.000 C 
ATOM      6  C   UNL     1       6.555   4.711  14.743  0.00  0.00    +0.000 A 
ATOM      7  N   UNL     1       7.664   5.296  14.276  0.00  0.00    +0.000 NA
ATOM      8  O   UNL     1       8.071   6.160  15.260  0.00  0.00    +0.000 OA
ATOM      9  C   UNL     1       7.214   6.104  16.315  0.00  0.00    +0.000 A 
ATOM     10  C   UNL     1       7.585   6.997  17.430  0.00  0.00    +0.000 C 
ATOM     11  C   UNL     1       6.208   5.189  16.052  0.00  0.00    +0.000 A 
ENDBRANCH   1  11
BRANCH   3  12
ATOM     12  C   UNL     1       4.070   4.525  19.019  0.00  0.00    +0.000 A 
ATOM     13  S   UNL     1       4.106   2.974  19.715  0.00  0.00    +0.000 S 
ATOM     14  C   UNL     1       2.638   3.247  20.573  0.00  0.00    +0.000 A 
ATOM     15  C   UNL     1       2.102   2.228  21.530  0.00  0.00    +0.000 C 
ATOM     16  C   UNL     1       2.060   4.460  20.223  0.00  0.00    +0.000 A 
ATOM     17  C   UNL     1       0.726   4.950  20.705  0.00  0.00    +0.000 C 
ATOM     18  C   UNL     1       2.905   5.195  19.317  0.00  0.00    +0.000 A 
BRANCH  18  19
ATOM     19  C   UNL     1       2.516   6.437  18.704  0.00  0.00    +0.000 C 
ATOM     20  N   UNL     1       2.281   7.423  18.155  0.00  0.00    +0.000 NA
ENDBRANCH  18  19
ENDBRANCH   3  12
TORSDOF 3
ENDMDL
MODEL 4
REMARK VINA RESULT:      -5.9      2.006      2.566
REMARK  Name = 
REMARK  7 active torsions:
REMARK  status: ('A' for Active; 'I' for Inactive)
REMARK    1  A    between atoms: C_1  and  C_2
REMARK    2  A    between atoms: C_5  and  C_6
REMARK    3  A    between atoms: C_7  and  C_8
REMARK    4  A    between atoms: N_10  and  C_11
REMARK    5  A    between atoms: C_13  and  C_14
REMARK    6  A    between atoms: C_15  and  C_16
REMARK    7  A    between atoms: C_17  and  C_18
REMARK                            x       y       z     vdW  Elec       q    Type
REMARK                         _______ _______ _______ _____ _____    ______ ____
ROOT
ATOM      1  C   UNL     1       4.921   4.795  17.119  0.00  0.00    +0.000 C 
ATOM      2  O   UNL     1       3.898   4.400  16.562  0.00  0.00    +0.000 OA
ATOM      3  N   UNL     1       5.011   4.926  18.506  0.00  0.00    +0.000 N 
ATOM      4  H   UNL     1       5.637   5.627  18.870  0.00  0.00    +0.000 HD
ENDROOT
BRANCH   1  11
ATOM      5  C   UNL     1       5.686   3.733  14.168  0.00  0.00    +0.000 C 
ATOM      6  C   UNL     1       6.414   4.712  15.014  0.00  0.00    +0.000 A 
ATOM      7  N   UNL     1       7.552   5.248  14.558  0.00  0.00    +0.000 NA
ATOM      8  O   UNL     1       7.992   6.086  15.550  0.00  0.00    +0.000 OA
ATOM      9  C   UNL     1       7.128   6.062  16.600  0.00  0.00    +0.000 A 
ATOM     10  C   UNL     1       7.535   6.929  17.724  0.00  0.00    +0.000 C 
ATOM     11  C   UNL     1       6.082   5.197  16.326  0.00  0.00    +0.000 A 
ENDBRANCH   1  11
BRANCH   3  12
ATOM     12  C   UNL     1       3.893   4.627  19.274  0.00  0.00    +0.000 A 
ATOM     13  S   UNL     1       2.735   5.865  19.420  0.00  0.00    +0.000 S 
ATOM     14  C   UNL     1       1.660   4.853  20.305  0.00  0.00    +0.000 A 
ATOM     15  C   UNL     1       0.299   5.332  20.703  0.00  0.00    +0.000 C 
ATOM     16  C   UNL     1       2.239   3.625  20.600  0.00  0.00    +0.000 A 
ATOM     17  C   UNL     1       1.613   2.558  21.448  0.00  0.00    +0.000 C 
ATOM     18  C   UNL     1       3.541   3.507  19.992  0.00  0.00    +0.000 A 
BRANCH  18  19
ATOM     19  C   UNL     1       4.417   2.388  20.213  0.00  0.00    +0.000 C 
ATOM     20  N   UNL     1       5.190   1.555  20.413  0.00  0.00    +0.000 NA
ENDBRANCH  18  19
ENDBRANCH   3  12
TORSDOF 3
ENDMDL
MODEL 5
REMARK VINA RESULT:      -5.8      2.092      3.204
REMARK  Name = 
REMARK  7 active torsions:
REMARK  status: ('A' for Active; 'I' for Inactive)
REMARK    1  A    between atoms: C_1  and  C_2
REMARK    2  A    between atoms: C_5  and  C_6
REMARK    3  A    between atoms: C_7  and  C_8
REMARK    4  A    between atoms: N_10  and  C_11
REMARK    5  A    between atoms: C_13  and  C_14
REMARK    6  A    between atoms: C_15  and  C_16
REMARK    7  A    between atoms: C_17  and  C_18
REMARK                            x       y       z     vdW  Elec       q    Type
REMARK                         _______ _______ _______ _____ _____    ______ ____
ROOT
ATOM      1  C   UNL     1       4.890   4.585  16.921  0.00  0.00    +0.000 C 
ATOM      2  O   UNL     1       3.862   4.065  16.488  0.00  0.00    +0.000 OA
ATOM      3  N   UNL     1       5.030   4.956  18.260  0.00  0.00    +0.000 N 
ATOM      4  H   UNL     1       5.642   5.729  18.469  0.00  0.00    +0.000 HD
ENDROOT
BRANCH   1  11
ATOM      5  C   UNL     1       7.448   6.439  17.578  0.00  0.00    +0.000 C 
ATOM      6  C   UNL     1       7.131   5.716  16.321  0.00  0.00    +0.000 A 
ATOM      7  N   UNL     1       7.968   5.820  15.282  0.00  0.00    +0.000 NA
ATOM      8  O   UNL     1       7.409   5.069  14.279  0.00  0.00    +0.000 OA
ATOM      9  C   UNL     1       6.244   4.511  14.706  0.00  0.00    +0.000 A 
ATOM     10  C   UNL     1       5.566   3.694  13.681  0.00  0.00    +0.000 C 
ATOM     11  C   UNL     1       6.000   4.884  16.017  0.00  0.00    +0.000 A 
ENDBRANCH   1  11
BRANCH   3  12
ATOM     12  C   UNL     1       3.958   4.755  19.119  0.00  0.00    +0.000 A 
ATOM     13  S   UNL     1       2.907   6.077  19.323  0.00  0.00    +0.000 S 
ATOM     14  C   UNL     1       1.835   5.165  20.314  0.00  0.00    +0.000 A 
ATOM     15  C   UNL     1       0.548   5.751  20.803  0.00  0.00    +0.000 C 
ATOM     16  C   UNL     1       2.346   3.904  20.594  0.00  0.00    +0.000 A 
ATOM     17  C   UNL     1       1.714   2.903  21.516  0.00  0.00    +0.000 C 
ATOM     18  C   UNL     1       3.584   3.679  19.891  0.00  0.00    +0.000 A 
BRANCH  18  19
ATOM     19  C   UNL     1       4.393   2.503  20.073  0.00  0.00    +0.000 C 
ATOM     20  N   UNL     1       5.065   1.595  20.306  0.00  0.00    +0.000 NA
ENDBRANCH  18  19
ENDBRANCH   3  12
TORSDOF 3
ENDMDL
MODEL 6
REMARK VINA RESULT:      -5.7      3.406      5.706
REMARK  Name = 
REMARK  7 active torsions:
REMARK  status: ('A' for Active; 'I' for Inactive)
REMARK    1  A    between atoms: C_1  and  C_2
REMARK    2  A    between atoms: C_5  and  C_6
REMARK    3  A    between atoms: C_7  and  C_8
REMARK    4  A    between atoms: N_10  and  C_11
REMARK    5  A    between atoms: C_13  and  C_14
REMARK    6  A    between atoms: C_15  and  C_16
REMARK    7  A    between atoms: C_17  and  C_18
REMARK                            x       y       z     vdW  Elec       q    Type
REMARK                         _______ _______ _______ _____ _____    ______ ____
ROOT
ATOM      1  C   UNL     1       2.469   5.216  19.645  0.00  0.00    +0.000 C 
ATOM      2  O   UNL     1       1.516   5.160  18.870  0.00  0.00    +0.000 OA
ATOM      3  N   UNL     1       2.798   6.382  20.339  0.00  0.00    +0.000 N 
ATOM      4  H   UNL     1       3.766   6.522  20.585  0.00  0.00    +0.000 HD
ENDROOT
BRANCH   1  11
ATOM      5  C   UNL     1       1.891   2.682  21.559  0.00  0.00    +0.000 C 
ATOM      6  C   UNL     1       3.068   2.932  20.691  0.00  0.00    +0.000 A 
ATOM      7  N   UNL     1       4.062   2.036  20.666  0.00  0.00    +0.000 NA
ATOM      8  O   UNL     1       4.998   2.543  19.802  0.00  0.00    +0.000 OA
ATOM      9  C   UNL     1       4.576   3.736  19.302  0.00  0.00    +0.000 A 
ATOM     10  C   UNL     1       5.534   4.362  18.370  0.00  0.00    +0.000 C 
ATOM     11  C   UNL     1       3.336   4.052  19.831  0.00  0.00    +0.000 A 
ENDBRANCH   1  11
BRANCH   3  12
ATOM     12  C   UNL     1       2.038   7.523  20.116  0.00  0.00    +0.000 A 
ATOM     13  S   UNL     1       0.904   7.911  21.323  0.00  0.00    +0.000 S 
ATOM     14  C   UNL     1       0.458   9.375  20.533  0.00  0.00    +0.000 A 
ATOM     15  C   UNL     1      -0.514  10.325  21.160  0.00  0.00    +0.000 C 
ATOM     16  C   UNL     1       1.074   9.495  19.294  0.00  0.00    +0.000 A 
ATOM     17  C   UNL     1       0.818  10.596  18.308  0.00  0.00    +0.000 C 
ATOM     18  C   UNL     1       1.993   8.409  19.064  0.00  0.00    +0.000 A 
BRANCH  18  19
ATOM     19  C   UNL     1       2.693   8.216  17.823  0.00  0.00    +0.000 C 
ATOM     20  N   UNL     1       3.232   7.967  16.834  0.00  0.00    +0.000 NA
ENDBRANCH  18  19
ENDBRANCH   3  12
TORSDOF 3
ENDMDL
MODEL 7
REMARK VINA RESULT:      -5.6      0.484      1.867
REMARK  Name = 
REMARK  7 active torsions:
REMARK  status: ('A' for Active; 'I' for Inactive)
REMARK    1  A    between atoms: C_1  and  C_2
REMARK    2  A    between atoms: C_5  and  C_6
REMARK    3  A    between atoms: C_7  and  C_8
REMARK    4  A    between atoms: N_10  and  C_11
REMARK    5  A    between atoms: C_13  and  C_14
REMARK    6  A    between atoms: C_15  and  C_16
REMARK    7  A    between atoms: C_17  and  C_18
REMARK                            x       y       z     vdW  Elec       q    Type
REMARK                         _______ _______ _______ _____ _____    ______ ____
ROOT
ATOM      1  C   UNL     1       5.374   4.710  17.262  0.00  0.00    +0.000 C 
ATOM      2  O   UNL     1       5.712   4.107  18.280  0.00  0.00    +0.000 OA
ATOM      3  N   UNL     1       4.034   4.926  16.934  0.00  0.00    +0.000 N 
ATOM      4  H   UNL     1       3.799   5.004  15.957  0.00  0.00    +0.000 HD
ENDROOT
BRANCH   1  11
ATOM      5  C   UNL     1       7.509   7.076  17.774  0.00  0.00    +0.000 C 
ATOM      6  C   UNL     1       7.327   6.245  16.558  0.00  0.00    +0.000 A 
ATOM      7  N   UNL     1       8.109   6.466  15.495  0.00  0.00    +0.000 NA
ATOM      8  O   UNL     1       7.700   5.571  14.540  0.00  0.00    +0.000 OA
ATOM      9  C   UNL     1       6.681   4.808  15.019  0.00  0.00    +0.000 A 
ATOM     10  C   UNL     1       6.168   3.822  14.048  0.00  0.00    +0.000 C 
ATOM     11  C   UNL     1       6.386   5.186  16.319  0.00  0.00    +0.000 A 
ENDBRANCH   1  11
BRANCH   3  12
ATOM     12  C   UNL     1       3.055   4.412  17.774  0.00  0.00    +0.000 A 
ATOM     13  S   UNL     1       2.523   2.835  17.423  0.00  0.00    +0.000 S 
ATOM     14  C   UNL     1       1.508   2.791  18.813  0.00  0.00    +0.000 A 
ATOM     15  C   UNL     1       0.755   1.551  19.181  0.00  0.00    +0.000 C 
ATOM     16  C   UNL     1       1.476   4.019  19.462  0.00  0.00    +0.000 A 
ATOM     17  C   UNL     1       0.608   4.349  20.640  0.00  0.00    +0.000 C 
ATOM     18  C   UNL     1       2.383   4.954  18.845  0.00  0.00    +0.000 A 
BRANCH  18  19
ATOM     19  C   UNL     1       2.482   6.334  19.239  0.00  0.00    +0.000 C 
ATOM     20  N   UNL     1       2.470   7.435  19.585  0.00  0.00    +0.000 NA
ENDBRANCH  18  19
ENDBRANCH   3  12
TORSDOF 3
ENDMDL
MODEL 8
REMARK VINA RESULT:      -5.6      3.590      5.834
REMARK  Name = 
REMARK  7 active torsions:
REMARK  status: ('A' for Active; 'I' for Inactive)
REMARK    1  A    between atoms: C_1  and  C_2
REMARK    2  A    between atoms: C_5  and  C_6
REMARK    3  A    between atoms: C_7  and  C_8
REMARK    4  A    between atoms: N_10  and  C_11
REMARK    5  A    between atoms: C_13  and  C_14
REMARK    6  A    between atoms: C_15  and  C_16
REMARK    7  A    between atoms: C_17  and  C_18
REMARK                            x       y       z     vdW  Elec       q    Type
REMARK                         _______ _______ _______ _____ _____    ______ ____
ROOT
ATOM      1  C   UNL     1       2.340   5.304  19.701  0.00  0.00    +0.000 C 
ATOM      2  O   UNL     1       1.486   5.290  18.816  0.00  0.00    +0.000 OA
ATOM      3  N   UNL     1       2.622   6.451  20.447  0.00  0.00    +0.000 N 
ATOM      4  H   UNL     1       3.556   6.554  20.810  0.00  0.00    +0.000 HD
ENDROOT
BRANCH   1  11
ATOM      5  C   UNL     1       5.232   4.609  18.448  0.00  0.00    +0.000 C 
ATOM      6  C   UNL     1       4.424   3.809  19.402  0.00  0.00    +0.000 A 
ATOM      7  N   UNL     1       4.893   2.629  19.823  0.00  0.00    +0.000 NA
ATOM      8  O   UNL     1       3.935   2.128  20.667  0.00  0.00    +0.000 OA
ATOM      9  C   UNL     1       2.893   2.998  20.761  0.00  0.00    +0.000 A 
ATOM     10  C   UNL     1       1.805   2.529  21.643  0.00  0.00    +0.000 C 
ATOM     11  C   UNL     1       3.139   4.109  19.972  0.00  0.00    +0.000 A 
ENDBRANCH   1  11
BRANCH   3  12
ATOM     12  C   UNL     1       1.932   7.619  20.152  0.00  0.00    +0.000 A 
ATOM     13  S   UNL     1       0.766   8.105  21.290  0.00  0.00    +0.000 S 
ATOM     14  C   UNL     1       0.432   9.561  20.434  0.00  0.00    +0.000 A 
ATOM     15  C   UNL     1      -0.517  10.580  20.982  0.00  0.00    +0.000 C 
ATOM     16  C   UNL     1       1.109   9.608  19.222  0.00  0.00    +0.000 A 
ATOM     17  C   UNL     1       0.956  10.685  18.189  0.00  0.00    +0.000 C 
ATOM     18  C   UNL     1       1.980   8.469  19.071  0.00  0.00    +0.000 A 
BRANCH  18  19
ATOM     19  C   UNL     1       2.725   8.199  17.870  0.00  0.00    +0.000 C 
ATOM     20  N   UNL     1       3.354   7.899  16.950  0.00  0.00    +0.000 NA
ENDBRANCH  18  19
ENDBRANCH   3  12
TORSDOF 3
ENDMDL
MODEL 9
REMARK VINA RESULT:      -5.6      3.846      6.538
REMARK  Name = 
REMARK  7 active torsions:
REMARK  status: ('A' for Active; 'I' for Inactive)
REMARK    1  A    between atoms: C_1  and  C_2
REMARK    2  A    between atoms: C_5  and  C_6
REMARK    3  A    between atoms: C_7  and  C_8
REMARK    4  A    between atoms: N_10  and  C_11
REMARK    5  A    between atoms: C_13  and  C_14
REMARK    6  A    between atoms: C_15  and  C_16
REMARK    7  A    between atoms: C_17  and  C_18
REMARK                            x       y       z     vdW  Elec       q    Type
REMARK                         _______ _______ _______ _____ _____    ______ ____
ROOT
ATOM      1  C   UNL     1       1.700   8.447  18.739  0.00  0.00    +0.000 C 
ATOM      2  O   UNL     1       1.430   8.354  17.543  0.00  0.00    +0.000 OA
ATOM      3  N   UNL     1       2.494   7.506  19.399  0.00  0.00    +0.000 N 
ATOM      4  H   UNL     1       2.330   7.365  20.384  0.00  0.00    +0.000 HD
ENDROOT
BRANCH   1  11
ATOM      5  C   UNL     1       2.130  11.604  18.223  0.00  0.00    +0.000 C 
ATOM      6  C   UNL     1       1.349  10.943  19.298  0.00  0.00    +0.000 A 
ATOM      7  N   UNL     1       0.731  11.699  20.213  0.00  0.00    +0.000 NA
ATOM      8  O   UNL     1       0.117  10.820  21.068  0.00  0.00    +0.000 OA
ATOM      9  C   UNL     1       0.356   9.540  20.675  0.00  0.00    +0.000 A 
ATOM     10  C   UNL     1      -0.259   8.524  21.551  0.00  0.00    +0.000 C 
ATOM     11  C   UNL     1       1.144   9.540  19.536  0.00  0.00    +0.000 A 
ENDBRANCH   1  11
BRANCH   3  12
ATOM     12  C   UNL     1       2.965   6.415  18.681  0.00  0.00    +0.000 A 
ATOM     13  S   UNL     1       4.095   6.759  17.458  0.00  0.00    +0.000 S 
ATOM     14  C   UNL     1       4.329   5.090  17.106  0.00  0.00    +0.000 A 
ATOM     15  C   UNL     1       5.349   4.648  16.102  0.00  0.00    +0.000 C 
ATOM     16  C   UNL     1       3.453   4.288  17.824  0.00  0.00    +0.000 A 
ATOM     17  C   UNL     1       3.321   2.801  17.671  0.00  0.00    +0.000 C 
ATOM     18  C   UNL     1       2.663   5.074  18.739  0.00  0.00    +0.000 A 
BRANCH  18  19
ATOM     19  C   UNL     1       1.599   4.525  19.536  0.00  0.00    +0.000 C 
ATOM     20  N   UNL     1       0.813   4.059  20.241  0.00  0.00    +0.000 NA
ENDBRANCH  18  19
ENDBRANCH   3  12
TORSDOF 3
ENDMDL
