MODEL 1
REMARK VINA RESULT:      -6.3      0.000      0.000
REMARK  Name = 
REMARK  7 active torsions:
REMARK  status: ('A' for Active; 'I' for Inactive)
REMARK    1  A    between atoms: C_1  and  N_2
REMARK    2  A    between atoms: N_2  and  C_3
REMARK    3  A    between atoms: N_2  and  C_4
REMARK    4  A    between atoms: C_4  and  C_5
REMARK    5  A    between atoms: C_4  and  C_15
REMARK    6  A    between atoms: C_5  and  N_6
REMARK    7  A    between atoms: C_7  and  C_9
REMARK                            x       y       z     vdW  Elec       q    Type
REMARK                         _______ _______ _______ _____ _____    ______ ____
ROOT
ATOM      1  C   UNL     1       2.433   7.341  18.680  0.00  0.00    +0.000 C 
ENDROOT
BRANCH   1   2
ATOM      2  N   UNL     1       1.852   8.060  19.799  0.00  0.00    +0.000 N 
ATOM      3  C   UNL     1       1.150   9.230  19.650  0.00  0.00    +0.000 C 
ATOM      4  O   UNL     1       0.997   9.787  18.573  0.00  0.00    +0.000 OA
ATOM      5  H   UNL     1       1.935   7.626  20.707  0.00  0.00    +0.000 HD
BRANCH   3   6
ATOM      6  C   UNL     1       0.527   9.777  20.888  0.00  0.00    +0.000 A 
ATOM      7  C   UNL     1      -0.093  11.030  20.933  0.00  0.00    +0.000 A 
ATOM      8  C   UNL     1      -0.608  11.456  22.145  0.00  0.00    +0.000 A 
ATOM      9  N   UNL     1      -0.550  10.729  23.279  0.00  0.00    +0.000 NA
ATOM     10  C   UNL     1       0.036   9.515  23.202  0.00  0.00    +0.000 A 
ATOM     11  C   UNL     1       0.583   8.999  22.042  0.00  0.00    +0.000 A 
ENDBRANCH   3   6
ENDBRANCH   1   2
BRANCH   1  12
ATOM     12  C   UNL     1       3.249   6.073  19.100  0.00  0.00    +0.000 C 
BRANCH  12  13
ATOM     13  C   UNL     1       2.350   4.842  19.320  0.00  0.00    +0.000 A 
ATOM     14  C   UNL     1       1.742   4.466  20.573  0.00  0.00    +0.000 A 
ATOM     15  C   UNL     1       1.017   3.297  20.498  0.00  0.00    +0.000 A 
ATOM     16  S   UNL     1       0.990   2.664  18.917  0.00  0.00    +0.000 S 
ATOM     17  C   UNL     1       1.958   3.947  18.333  0.00  0.00    +0.000 A 
ENDBRANCH  12  13
BRANCH  12  19
ATOM     18  C   UNL     1       4.876   6.754  17.312  0.00  0.00    +0.000 C 
ATOM     19  N   UNL     1       4.417   5.723  18.239  0.00  0.00    +0.000 NA
ATOM     20  C   UNL     1       5.551   5.236  19.028  0.00  0.00    +0.000 C 
ENDBRANCH  12  19
ENDBRANCH   1  12
TORSDOF 5
ENDMDL
MODEL 2
REMARK VINA RESULT:      -6.3      4.895      6.541
REMARK  Name = 
REMARK  7 active torsions:
REMARK  status: ('A' for Active; 'I' for Inactive)
REMARK    1  A    between atoms: C_1  and  N_2
REMARK    2  A    between atoms: N_2  and  C_3
REMARK    3  A    between atoms: N_2  and  C_4
REMARK    4  A    between atoms: C_4  and  C_5
REMARK    5  A    between atoms: C_4  and  C_15
REMARK    6  A    between atoms: C_5  and  N_6
REMARK    7  A    between atoms: C_7  and  C_9
REMARK                            x       y       z     vdW  Elec       q    Type
REMARK                         _______ _______ _______ _____ _____    ______ ____
ROOT
ATOM      1  C   UNL     1       4.907   5.677  16.349  0.00  0.00    +0.000 C 
ENDROOT
BRANCH   1   2
ATOM      2  N   UNL     1       3.927   4.955  17.140  0.00  0.00    +0.000 N 
ATOM      3  C   UNL     1       3.899   4.996  18.511  0.00  0.00    +0.000 C 
ATOM      4  O   UNL     1       4.723   5.603  19.180  0.00  0.00    +0.000 OA
ATOM      5  H   UNL     1       3.213   4.456  16.628  0.00  0.00    +0.000 HD
BRANCH   3   6
ATOM      6  C   UNL     1       2.760   4.287  19.159  0.00  0.00    +0.000 A 
ATOM      7  C   UNL     1       2.464   4.418  20.520  0.00  0.00    +0.000 A 
ATOM      8  C   UNL     1       1.404   3.687  21.027  0.00  0.00    +0.000 A 
ATOM      9  N   UNL     1       0.640   2.863  20.282  0.00  0.00    +0.000 NA
ATOM     10  C   UNL     1       0.936   2.771  18.967  0.00  0.00    +0.000 A 
ATOM     11  C   UNL     1       1.974   3.456  18.365  0.00  0.00    +0.000 A 
ENDBRANCH   3   6
ENDBRANCH   1   2
BRANCH   1  12
ATOM     12  C   UNL     1       6.248   4.897  16.141  0.00  0.00    +0.000 C 
BRANCH  12  13
ATOM     13  C   UNL     1       6.547   4.627  14.654  0.00  0.00    +0.000 A 
ATOM     14  C   UNL     1       7.567   5.285  13.876  0.00  0.00    +0.000 A 
ATOM     15  C   UNL     1       7.594   4.881  12.560  0.00  0.00    +0.000 A 
ATOM     16  S   UNL     1       6.452   3.657  12.245  0.00  0.00    +0.000 S 
ATOM     17  C   UNL     1       5.912   3.676  13.867  0.00  0.00    +0.000 A 
ENDBRANCH  12  13
BRANCH  12  19
ATOM     18  C   UNL     1       7.371   6.850  17.252  0.00  0.00    +0.000 C 
ATOM     19  N   UNL     1       7.452   5.456  16.825  0.00  0.00    +0.000 NA
ATOM     20  C   UNL     1       7.874   4.624  17.954  0.00  0.00    +0.000 C 
ENDBRANCH  12  19
ENDBRANCH   1  12
TORSDOF 5
ENDMDL
MODEL 3
REMARK VINA RESULT:      -6.2      5.029      6.510
REMARK  Name = 
REMARK  7 active torsions:
REMARK  status: ('A' for Active; 'I' for Inactive)
REMARK    1  A    between atoms: C_1  and  N_2
REMARK    2  A    between atoms: N_2  and  C_3
REMARK    3  A    between atoms: N_2  and  C_4
REMARK    4  A    between atoms: C_4  and  C_5
REMARK    5  A    between atoms: C_4  and  C_15
REMARK    6  A    between atoms: C_5  and  N_6
REMARK    7  A    between atoms: C_7  and  C_9
REMARK                            x       y       z     vdW  Elec       q    Type
REMARK                         _______ _______ _______ _____ _____    ______ ____
ROOT
ATOM      1  C   UNL     1       4.837   5.575  16.357  0.00  0.00    +0.000 C 
ENDROOT
BRANCH   1   2
ATOM      2  N   UNL     1       3.893   4.839  17.178  0.00  0.00    +0.000 N 
ATOM      3  C   UNL     1       3.900   4.891  18.549  0.00  0.00    +0.000 C 
ATOM      4  O   UNL     1       4.727   5.520  19.192  0.00  0.00    +0.000 OA
ATOM      5  H   UNL     1       3.176   4.322  16.689  0.00  0.00    +0.000 HD
BRANCH   3   6
ATOM      6  C   UNL     1       2.792   4.165  19.232  0.00  0.00    +0.000 A 
ATOM      7  C   UNL     1       1.897   3.335  18.548  0.00  0.00    +0.000 A 
ATOM      8  C   UNL     1       0.882   2.737  19.274  0.00  0.00    +0.000 A 
ATOM      9  N   UNL     1       0.714   2.904  20.602  0.00  0.00    +0.000 NA
ATOM     10  C   UNL     1       1.604   3.695  21.240  0.00  0.00    +0.000 A 
ATOM     11  C   UNL     1       2.649   4.339  20.606  0.00  0.00    +0.000 A 
ENDBRANCH   3   6
ENDBRANCH   1   2
BRANCH   1  12
ATOM     12  C   UNL     1       6.179   4.810  16.101  0.00  0.00    +0.000 C 
BRANCH  12  13
ATOM     13  C   UNL     1       6.424   4.537  14.604  0.00  0.00    +0.000 A 
ATOM     14  C   UNL     1       5.629   3.668  13.773  0.00  0.00    +0.000 A 
ATOM     15  C   UNL     1       6.092   3.576  12.480  0.00  0.00    +0.000 A 
ATOM     16  S   UNL     1       7.442   4.581  12.213  0.00  0.00    +0.000 S 
ATOM     17  C   UNL     1       7.415   5.130  13.832  0.00  0.00    +0.000 A 
ENDBRANCH  12  13
BRANCH  12  19
ATOM     18  C   UNL     1       7.324   6.784  17.150  0.00  0.00    +0.000 C 
ATOM     19  N   UNL     1       7.401   5.385  16.736  0.00  0.00    +0.000 NA
ATOM     20  C   UNL     1       7.869   4.570  17.859  0.00  0.00    +0.000 C 
ENDBRANCH  12  19
ENDBRANCH   1  12
TORSDOF 5
ENDMDL
MODEL 4
REMARK VINA RESULT:      -6.2      5.086      6.591
REMARK  Name = 
REMARK  7 active torsions:
REMARK  status: ('A' for Active; 'I' for Inactive)
REMARK    1  A    between atoms: C_1  and  N_2
REMARK    2  A    between atoms: N_2  and  C_3
REMARK    3  A    between atoms: N_2  and  C_4
REMARK    4  A    between atoms: C_4  and  C_5
REMARK    5  A    between atoms: C_4  and  C_15
REMARK    6  A    between atoms: C_5  and  N_6
REMARK    7  A    between atoms: C_7  and  C_9
REMARK                            x       y       z     vdW  Elec       q    Type
REMARK                         _______ _______ _______ _____ _____    ______ ____
ROOT
ATOM      1  C   UNL     1       4.790   5.563  16.576  0.00  0.00    +0.000 C 
ENDROOT
BRANCH   1   2
ATOM      2  N   UNL     1       4.135   5.136  17.799  0.00  0.00    +0.000 N 
ATOM      3  C   UNL     1       3.320   4.033  17.861  0.00  0.00    +0.000 C 
ATOM      4  O   UNL     1       3.040   3.351  16.887  0.00  0.00    +0.000 OA
ATOM      5  H   UNL     1       4.354   5.658  18.635  0.00  0.00    +0.000 HD
BRANCH   3   6
ATOM      6  C   UNL     1       2.818   3.672  19.217  0.00  0.00    +0.000 A 
ATOM      7  C   UNL     1       3.530   2.843  20.090  0.00  0.00    +0.000 A 
ATOM      8  C   UNL     1       2.956   2.542  21.313  0.00  0.00    +0.000 A 
ATOM      9  N   UNL     1       1.754   3.010  21.709  0.00  0.00    +0.000 NA
ATOM     10  C   UNL     1       1.098   3.824  20.855  0.00  0.00    +0.000 A 
ATOM     11  C   UNL     1       1.584   4.182  19.612  0.00  0.00    +0.000 A 
ENDBRANCH   3   6
ENDBRANCH   1   2
BRANCH   1  12
ATOM     12  C   UNL     1       6.128   4.805  16.280  0.00  0.00    +0.000 C 
BRANCH  12  13
ATOM     13  C   UNL     1       6.320   4.516  14.779  0.00  0.00    +0.000 A 
ATOM     14  C   UNL     1       5.433   3.726  13.961  0.00  0.00    +0.000 A 
ATOM     15  C   UNL     1       5.862   3.595  12.660  0.00  0.00    +0.000 A 
ATOM     16  S   UNL     1       7.294   4.471  12.370  0.00  0.00    +0.000 S 
ATOM     17  C   UNL     1       7.347   5.016  13.990  0.00  0.00    +0.000 A 
ENDBRANCH  12  13
BRANCH  12  19
ATOM     18  C   UNL     1       7.299   6.807  17.245  0.00  0.00    +0.000 C 
ATOM     19  N   UNL     1       7.367   5.399  16.862  0.00  0.00    +0.000 NA
ATOM     20  C   UNL     1       7.874   4.611  17.989  0.00  0.00    +0.000 C 
ENDBRANCH  12  19
ENDBRANCH   1  12
TORSDOF 5
ENDMDL
MODEL 5
REMARK VINA RESULT:      -6.2      4.746      6.400
REMARK  Name = 
REMARK  7 active torsions:
REMARK  status: ('A' for Active; 'I' for Inactive)
REMARK    1  A    between atoms: C_1  and  N_2
REMARK    2  A    between atoms: N_2  and  C_3
REMARK    3  A    between atoms: N_2  and  C_4
REMARK    4  A    between atoms: C_4  and  C_5
REMARK    5  A    between atoms: C_4  and  C_15
REMARK    6  A    between atoms: C_5  and  N_6
REMARK    7  A    between atoms: C_7  and  C_9
REMARK                            x       y       z     vdW  Elec       q    Type
REMARK                         _______ _______ _______ _____ _____    ______ ____
ROOT
ATOM      1  C   UNL     1       4.875   5.368  16.306  0.00  0.00    +0.000 C 
ENDROOT
BRANCH   1   2
ATOM      2  N   UNL     1       4.110   4.704  17.346  0.00  0.00    +0.000 N 
ATOM      3  C   UNL     1       3.202   5.362  18.137  0.00  0.00    +0.000 C 
ATOM      4  O   UNL     1       2.998   6.565  18.065  0.00  0.00    +0.000 OA
ATOM      5  H   UNL     1       4.231   3.705  17.428  0.00  0.00    +0.000 HD
BRANCH   3   6
ATOM      6  C   UNL     1       2.424   4.509  19.079  0.00  0.00    +0.000 A 
ATOM      7  C   UNL     1       1.463   3.589  18.648  0.00  0.00    +0.000 A 
ATOM      8  C   UNL     1       0.772   2.873  19.609  0.00  0.00    +0.000 A 
ATOM      9  N   UNL     1       0.979   3.009  20.935  0.00  0.00    +0.000 NA
ATOM     10  C   UNL     1       1.926   3.890  21.323  0.00  0.00    +0.000 A 
ATOM     11  C   UNL     1       2.668   4.655  20.443  0.00  0.00    +0.000 A 
ENDBRANCH   3   6
ENDBRANCH   1   2
BRANCH   1  12
ATOM     12  C   UNL     1       6.294   4.748  16.074  0.00  0.00    +0.000 C 
BRANCH  12  13
ATOM     13  C   UNL     1       6.620   4.567  14.580  0.00  0.00    +0.000 A 
ATOM     14  C   UNL     1       7.600   5.325  13.842  0.00  0.00    +0.000 A 
ATOM     15  C   UNL     1       7.663   4.984  12.509  0.00  0.00    +0.000 A 
ATOM     16  S   UNL     1       6.605   3.704  12.128  0.00  0.00    +0.000 S 
ATOM     17  C   UNL     1       6.054   3.614  13.744  0.00  0.00    +0.000 A 
ENDBRANCH  12  13
BRANCH  12  19
ATOM     18  C   UNL     1       7.224   6.801  17.184  0.00  0.00    +0.000 C 
ATOM     19  N   UNL     1       7.428   5.412  16.782  0.00  0.00    +0.000 NA
ATOM     20  C   UNL     1       7.884   4.633  17.935  0.00  0.00    +0.000 C 
ENDBRANCH  12  19
ENDBRANCH   1  12
TORSDOF 5
ENDMDL
MODEL 6
REMARK VINA RESULT:      -6.1      0.209      1.101
REMARK  Name = 
REMARK  7 active torsions:
REMARK  status: ('A' for Active; 'I' for Inactive)
REMARK    1  A    between atoms: C_1  and  N_2
REMARK    2  A    between atoms: N_2  and  C_3
REMARK    3  A    between atoms: N_2  and  C_4
REMARK    4  A    between atoms: C_4  and  C_5
REMARK    5  A    between atoms: C_4  and  C_15
REMARK    6  A    between atoms: C_5  and  N_6
REMARK    7  A    between atoms: C_7  and  C_9
REMARK                            x       y       z     vdW  Elec       q    Type
REMARK                         _______ _______ _______ _____ _____    ______ ____
ROOT
ATOM      1  C   UNL     1       2.530   7.454  18.539  0.00  0.00    +0.000 C 
ENDROOT
BRANCH   1   2
ATOM      2  N   UNL     1       1.974   8.145  19.688  0.00  0.00    +0.000 N 
ATOM      3  C   UNL     1       1.202   9.274  19.576  0.00  0.00    +0.000 C 
ATOM      4  O   UNL     1       0.959   9.816  18.508  0.00  0.00    +0.000 OA
ATOM      5  H   UNL     1       2.132   7.720  20.590  0.00  0.00    +0.000 HD
BRANCH   3   6
ATOM      6  C   UNL     1       0.620   9.791  20.846  0.00  0.00    +0.000 A 
ATOM      7  C   UNL     1       0.626   9.055  22.036  0.00  0.00    +0.000 A 
ATOM      8  C   UNL     1       0.027   9.616  23.150  0.00  0.00    +0.000 A 
ATOM      9  N   UNL     1      -0.556  10.832  23.152  0.00  0.00    +0.000 NA
ATOM     10  C   UNL     1      -0.530  11.529  21.996  0.00  0.00    +0.000 A 
ATOM     11  C   UNL     1       0.040  11.057  20.829  0.00  0.00    +0.000 A 
ENDBRANCH   3   6
ENDBRANCH   1   2
BRANCH   1  12
ATOM     12  C   UNL     1       3.349   6.172  18.909  0.00  0.00    +0.000 C 
BRANCH  12  13
ATOM     13  C   UNL     1       2.449   4.943  19.135  0.00  0.00    +0.000 A 
ATOM     14  C   UNL     1       1.782   4.613  20.370  0.00  0.00    +0.000 A 
ATOM     15  C   UNL     1       1.070   3.436  20.308  0.00  0.00    +0.000 A 
ATOM     16  S   UNL     1       1.124   2.740  18.754  0.00  0.00    +0.000 S 
ATOM     17  C   UNL     1       2.112   4.007  18.167  0.00  0.00    +0.000 A 
ENDBRANCH  12  13
BRANCH  12  19
ATOM     18  C   UNL     1       4.866   6.841  17.022  0.00  0.00    +0.000 C 
ATOM     19  N   UNL     1       4.487   5.830  18.006  0.00  0.00    +0.000 NA
ATOM     20  C   UNL     1       5.674   5.411  18.755  0.00  0.00    +0.000 C 
ENDBRANCH  12  19
ENDBRANCH   1  12
TORSDOF 5
ENDMDL
MODEL 7
REMARK VINA RESULT:      -6.0      0.841      1.336
REMARK  Name = 
REMARK  7 active torsions:
REMARK  status: ('A' for Active; 'I' for Inactive)
REMARK    1  A    between atoms: C_1  and  N_2
REMARK    2  A    between atoms: N_2  and  C_3
REMARK    3  A    between atoms: N_2  and  C_4
REMARK    4  A    between atoms: C_4  and  C_5
REMARK    5  A    between atoms: C_4  and  C_15
REMARK    6  A    between atoms: C_5  and  N_6
REMARK    7  A    between atoms: C_7  and  C_9
REMARK                            x       y       z     vdW  Elec       q    Type
REMARK                         _______ _______ _______ _____ _____    ______ ____
ROOT
ATOM      1  C   UNL     1       2.510   7.085  18.992  0.00  0.00    +0.000 C 
ENDROOT
BRANCH   1   2
ATOM      2  N   UNL     1       1.889   7.874  20.040  0.00  0.00    +0.000 N 
ATOM      3  C   UNL     1       1.263   9.072  19.799  0.00  0.00    +0.000 C 
ATOM      4  O   UNL     1       1.218   9.594  18.695  0.00  0.00    +0.000 OA
ATOM      5  H   UNL     1       1.883   7.471  20.966  0.00  0.00    +0.000 HD
BRANCH   3   6
ATOM      6  C   UNL     1       0.582   9.696  20.968  0.00  0.00    +0.000 A 
ATOM      7  C   UNL     1      -0.020  10.957  20.908  0.00  0.00    +0.000 A 
ATOM      8  C   UNL     1      -0.594  11.458  22.063  0.00  0.00    +0.000 A 
ATOM      9  N   UNL     1      -0.610  10.796  23.238  0.00  0.00    +0.000 NA
ATOM     10  C   UNL     1      -0.039   9.572  23.262  0.00  0.00    +0.000 A 
ATOM     11  C   UNL     1       0.562   8.985  22.165  0.00  0.00    +0.000 A 
ENDBRANCH   3   6
ENDBRANCH   1   2
BRANCH   1  12
ATOM     12  C   UNL     1       3.358   5.883  19.527  0.00  0.00    +0.000 C 
BRANCH  12  13
ATOM     13  C   UNL     1       2.484   4.681  19.934  0.00  0.00    +0.000 A 
ATOM     14  C   UNL     1       1.569   3.983  19.064  0.00  0.00    +0.000 A 
ATOM     15  C   UNL     1       0.884   2.968  19.695  0.00  0.00    +0.000 A 
ATOM     16  S   UNL     1       1.373   2.781  21.316  0.00  0.00    +0.000 S 
ATOM     17  C   UNL     1       2.492   4.067  21.179  0.00  0.00    +0.000 A 
ENDBRANCH  12  13
BRANCH  12  19
ATOM     18  C   UNL     1       5.074   4.134  18.973  0.00  0.00    +0.000 C 
ATOM     19  N   UNL     1       4.493   5.438  18.666  0.00  0.00    +0.000 NA
ATOM     20  C   UNL     1       4.154   5.497  17.242  0.00  0.00    +0.000 C 
ENDBRANCH  12  19
ENDBRANCH   1  12
TORSDOF 5
ENDMDL
MODEL 8
REMARK VINA RESULT:      -6.0      4.886      6.419
REMARK  Name = 
REMARK  7 active torsions:
REMARK  status: ('A' for Active; 'I' for Inactive)
REMARK    1  A    between atoms: C_1  and  N_2
REMARK    2  A    between atoms: N_2  and  C_3
REMARK    3  A    between atoms: N_2  and  C_4
REMARK    4  A    between atoms: C_4  and  C_5
REMARK    5  A    between atoms: C_4  and  C_15
REMARK    6  A    between atoms: C_5  and  N_6
REMARK    7  A    between atoms: C_7  and  C_9
REMARK                            x       y       z     vdW  Elec       q    Type
REMARK                         _______ _______ _______ _____ _____    ______ ____
ROOT
ATOM      1  C   UNL     1       4.898   5.986  16.356  0.00  0.00    +0.000 C 
ENDROOT
BRANCH   1   2
ATOM      2  N   UNL     1       4.026   5.598  17.450  0.00  0.00    +0.000 N 
ATOM      3  C   UNL     1       3.363   4.397  17.484  0.00  0.00    +0.000 C 
ATOM      4  O   UNL     1       3.413   3.578  16.579  0.00  0.00    +0.000 OA
ATOM      5  H   UNL     1       3.971   6.236  18.232  0.00  0.00    +0.000 HD
BRANCH   3   6
ATOM      6  C   UNL     1       2.599   4.112  18.731  0.00  0.00    +0.000 A 
ATOM      7  C   UNL     1       1.483   3.269  18.759  0.00  0.00    +0.000 A 
ATOM      8  C   UNL     1       0.825   3.102  19.965  0.00  0.00    +0.000 A 
ATOM      9  N   UNL     1       1.204   3.701  21.112  0.00  0.00    +0.000 NA
ATOM     10  C   UNL     1       2.296   4.493  21.061  0.00  0.00    +0.000 A 
ATOM     11  C   UNL     1       3.020   4.727  19.908  0.00  0.00    +0.000 A 
ENDBRANCH   3   6
ENDBRANCH   1   2
BRANCH   1  12
ATOM     12  C   UNL     1       6.147   5.058  16.186  0.00  0.00    +0.000 C 
BRANCH  12  13
ATOM     13  C   UNL     1       6.405   4.682  14.715  0.00  0.00    +0.000 A 
ATOM     14  C   UNL     1       5.611   3.763  13.937  0.00  0.00    +0.000 A 
ATOM     15  C   UNL     1       6.086   3.579  12.658  0.00  0.00    +0.000 A 
ATOM     16  S   UNL     1       7.448   4.552  12.338  0.00  0.00    +0.000 S 
ATOM     17  C   UNL     1       7.408   5.212  13.915  0.00  0.00    +0.000 A 
ENDBRANCH  12  13
BRANCH  12  19
ATOM     18  C   UNL     1       7.427   6.900  17.317  0.00  0.00    +0.000 C 
ATOM     19  N   UNL     1       7.408   5.520  16.838  0.00  0.00    +0.000 NA
ATOM     20  C   UNL     1       7.826   4.624  17.919  0.00  0.00    +0.000 C 
ENDBRANCH  12  19
ENDBRANCH   1  12
TORSDOF 5
ENDMDL
MODEL 9
REMARK VINA RESULT:      -6.0      4.804      6.469
REMARK  Name = 
REMARK  7 active torsions:
REMARK  status: ('A' for Active; 'I' for Inactive)
REMARK    1  A    between atoms: C_1  and  N_2
REMARK    2  A    between atoms: N_2  and  C_3
REMARK    3  A    between atoms: N_2  and  C_4
REMARK    4  A    between atoms: C_4  and  C_5
REMARK    5  A    between atoms: C_4  and  C_15
REMARK    6  A    between atoms: C_5  and  N_6
REMARK    7  A    between atoms: C_7  and  C_9
REMARK                            x       y       z     vdW  Elec       q    Type
REMARK                         _______ _______ _______ _____ _____    ______ ____
ROOT
ATOM      1  C   UNL     1       4.820   5.615  16.395  0.00  0.00    +0.000 C 
ENDROOT
BRANCH   1   2
ATOM      2  N   UNL     1       4.187   5.305  17.664  0.00  0.00    +0.000 N 
ATOM      3  C   UNL     1       3.399   4.197  17.853  0.00  0.00    +0.000 C 
ATOM      4  O   UNL     1       3.127   3.408  16.960  0.00  0.00    +0.000 OA
ATOM      5  H   UNL     1       4.402   5.917  18.438  0.00  0.00    +0.000 HD
BRANCH   3   6
ATOM      6  C   UNL     1       2.920   3.970  19.246  0.00  0.00    +0.000 A 
ATOM      7  C   UNL     1       2.447   5.004  20.060  0.00  0.00    +0.000 A 
ATOM      8  C   UNL     1       2.059   4.689  21.351  0.00  0.00    +0.000 A 
ATOM      9  N   UNL     1       2.108   3.441  21.862  0.00  0.00    +0.000 NA
ATOM     10  C   UNL     1       2.550   2.459  21.047  0.00  0.00    +0.000 A 
ATOM     11  C   UNL     1       2.962   2.671  19.745  0.00  0.00    +0.000 A 
ENDBRANCH   3   6
ENDBRANCH   1   2
BRANCH   1  12
ATOM     12  C   UNL     1       6.147   4.824  16.143  0.00  0.00    +0.000 C 
BRANCH  12  13
ATOM     13  C   UNL     1       6.378   4.523  14.650  0.00  0.00    +0.000 A 
ATOM     14  C   UNL     1       5.554   3.664  13.835  0.00  0.00    +0.000 A 
ATOM     15  C   UNL     1       6.008   3.539  12.542  0.00  0.00    +0.000 A 
ATOM     16  S   UNL     1       7.385   4.501  12.254  0.00  0.00    +0.000 S 
ATOM     17  C   UNL     1       7.381   5.075  13.865  0.00  0.00    +0.000 A 
ENDBRANCH  12  13
BRANCH  12  19
ATOM     18  C   UNL     1       7.330   6.798  17.150  0.00  0.00    +0.000 C 
ATOM     19  N   UNL     1       7.382   5.391  16.760  0.00  0.00    +0.000 NA
ATOM     20  C   UNL     1       7.846   4.588  17.893  0.00  0.00    +0.000 C 
ENDBRANCH  12  19
ENDBRANCH   1  12
TORSDOF 5
ENDMDL
