MODEL 1
REMARK VINA RESULT:      -7.0      0.000      0.000
REMARK  Name = 
REMARK  6 active torsions:
REMARK  status: ('A' for Active; 'I' for Inactive)
REMARK    1  A    between atoms: C_2  and  C_3
REMARK    2  A    between atoms: C_3  and  O_4
REMARK    3  A    between atoms: O_4  and  C_5
REMARK    4  A    between atoms: C_10  and  N_11
REMARK    5  A    between atoms: N_14  and  C_15
REMARK    6  A    between atoms: C_15  and  C_16
REMARK                            x       y       z     vdW  Elec       q    Type
REMARK                         _______ _______ _______ _____ _____    ______ ____
ROOT
ATOM      1  C   UNL     1       3.730   6.762  17.697  0.00  0.00    +0.000 C 
ENDROOT
BRANCH   1   3
ATOM      2  O   UNL     1       1.982   6.452  19.328  0.00  0.00    +0.000 OA
ATOM      3  C   UNL     1       2.581   6.003  18.358  0.00  0.00    +0.000 C 
ATOM      4  N   UNL     1       2.270   4.802  17.765  0.00  0.00    +0.000 N 
ATOM      5  H   UNL     1       2.852   4.441  17.020  0.00  0.00    +0.000 HD
BRANCH   4   6
ATOM      6  C   UNL     1       1.226   3.938  18.273  0.00  0.00    +0.000 C 
BRANCH   6   7
ATOM      7  C   UNL     1       1.688   3.358  19.572  0.00  0.00    +0.000 A 
ATOM      8  C   UNL     1       0.990   3.263  20.761  0.00  0.00    +0.000 A 
ATOM      9  C   UNL     1       1.762   2.666  21.798  0.00  0.00    +0.000 A 
ATOM     10  C   UNL     1       3.017   2.304  21.363  0.00  0.00    +0.000 A 
ATOM     11  S   UNL     1       3.259   2.690  19.716  0.00  0.00    +0.000 S 
ENDBRANCH   6   7
ENDBRANCH   4   6
ENDBRANCH   1   3
BRANCH   1  12
ATOM     12  O   UNL     1       4.965   6.098  17.938  0.00  0.00    +0.000 OA
BRANCH  12  13
ATOM     13  C   UNL     1       5.626   5.582  16.854  0.00  0.00    +0.000 A 
ATOM     14  C   UNL     1       5.070   4.641  15.981  0.00  0.00    +0.000 A 
ATOM     15  C   UNL     1       5.773   4.226  14.850  0.00  0.00    +0.000 A 
ATOM     16  C   UNL     1       7.022   4.765  14.610  0.00  0.00    +0.000 A 
ATOM     17  N   UNL     1       7.612   5.659  15.425  0.00  0.00    +0.000 NA
ATOM     18  C   UNL     1       6.909   6.056  16.537  0.00  0.00    +0.000 A 
BRANCH  18  19
ATOM     19  N   UNL     1       7.523   6.993  17.489  0.00  0.00    +0.000 N 
ATOM     20  O   UNL     1       8.006   6.514  18.530  0.00  0.00    +0.000 OA
ATOM     21  O   UNL     1       7.551   8.192  17.169  0.00  0.00    +0.000 OA
ENDBRANCH  18  19
ENDBRANCH  12  13
ENDBRANCH   1  12
TORSDOF 6
ENDMDL
MODEL 2
REMARK VINA RESULT:      -6.9      1.866      2.557
REMARK  Name = 
REMARK  6 active torsions:
REMARK  status: ('A' for Active; 'I' for Inactive)
REMARK    1  A    between atoms: C_2  and  C_3
REMARK    2  A    between atoms: C_3  and  O_4
REMARK    3  A    between atoms: O_4  and  C_5
REMARK    4  A    between atoms: C_10  and  N_11
REMARK    5  A    between atoms: N_14  and  C_15
REMARK    6  A    between atoms: C_15  and  C_16
REMARK                            x       y       z     vdW  Elec       q    Type
REMARK                         _______ _______ _______ _____ _____    ______ ____
ROOT
ATOM      1  C   UNL     1       4.636   4.352  16.315  0.00  0.00    +0.000 C 
ENDROOT
BRANCH   1   3
ATOM      2  O   UNL     1       4.754   5.049  18.619  0.00  0.00    +0.000 OA
ATOM      3  C   UNL     1       4.628   4.125  17.825  0.00  0.00    +0.000 C 
ATOM      4  N   UNL     1       4.448   2.816  18.207  0.00  0.00    +0.000 N 
ATOM      5  H   UNL     1       4.435   2.083  17.509  0.00  0.00    +0.000 HD
BRANCH   4   6
ATOM      6  C   UNL     1       4.439   2.412  19.597  0.00  0.00    +0.000 C 
BRANCH   6   7
ATOM      7  C   UNL     1       3.059   2.621  20.136  0.00  0.00    +0.000 A 
ATOM      8  C   UNL     1       2.683   2.889  21.438  0.00  0.00    +0.000 A 
ATOM      9  C   UNL     1       1.272   3.009  21.583  0.00  0.00    +0.000 A 
ATOM     10  C   UNL     1       0.616   2.850  20.383  0.00  0.00    +0.000 A 
ATOM     11  S   UNL     1       1.700   2.553  19.095  0.00  0.00    +0.000 S 
ENDBRANCH   6   7
ENDBRANCH   4   6
ENDBRANCH   1   3
BRANCH   1  12
ATOM     12  O   UNL     1       5.564   3.474  15.687  0.00  0.00    +0.000 OA
BRANCH  12  13
ATOM     13  C   UNL     1       6.280   3.967  14.627  0.00  0.00    +0.000 A 
ATOM     14  C   UNL     1       6.024   3.630  13.293  0.00  0.00    +0.000 A 
ATOM     15  C   UNL     1       6.740   4.239  12.263  0.00  0.00    +0.000 A 
ATOM     16  C   UNL     1       7.700   5.178  12.586  0.00  0.00    +0.000 A 
ATOM     17  N   UNL     1       7.999   5.527  13.851  0.00  0.00    +0.000 NA
ATOM     18  C   UNL     1       7.288   4.917  14.856  0.00  0.00    +0.000 A 
BRANCH  18  19
ATOM     19  N   UNL     1       7.605   5.222  16.259  0.00  0.00    +0.000 N 
ATOM     20  O   UNL     1       8.051   4.293  16.957  0.00  0.00    +0.000 OA
ATOM     21  O   UNL     1       7.442   6.392  16.638  0.00  0.00    +0.000 OA
ENDBRANCH  18  19
ENDBRANCH  12  13
ENDBRANCH   1  12
TORSDOF 6
ENDMDL
MODEL 3
REMARK VINA RESULT:      -6.9      2.419      3.615
REMARK  Name = 
REMARK  6 active torsions:
REMARK  status: ('A' for Active; 'I' for Inactive)
REMARK    1  A    between atoms: C_2  and  C_3
REMARK    2  A    between atoms: C_3  and  O_4
REMARK    3  A    between atoms: O_4  and  C_5
REMARK    4  A    between atoms: C_10  and  N_11
REMARK    5  A    between atoms: N_14  and  C_15
REMARK    6  A    between atoms: C_15  and  C_16
REMARK                            x       y       z     vdW  Elec       q    Type
REMARK                         _______ _______ _______ _____ _____    ______ ____
ROOT
ATOM      1  C   UNL     1       3.560   3.602  17.183  0.00  0.00    +0.000 C 
ENDROOT
BRANCH   1   3
ATOM      2  O   UNL     1       1.517   3.990  18.402  0.00  0.00    +0.000 OA
ATOM      3  C   UNL     1       2.686   4.306  18.218  0.00  0.00    +0.000 C 
ATOM      4  N   UNL     1       3.325   5.295  18.931  0.00  0.00    +0.000 N 
ATOM      5  H   UNL     1       4.265   5.571  18.679  0.00  0.00    +0.000 HD
BRANCH   4   6
ATOM      6  C   UNL     1       2.644   6.083  19.936  0.00  0.00    +0.000 C 
BRANCH   6   7
ATOM      7  C   UNL     1       2.248   7.387  19.319  0.00  0.00    +0.000 A 
ATOM      8  C   UNL     1       2.502   7.838  18.039  0.00  0.00    +0.000 A 
ATOM      9  C   UNL     1       1.984   9.144  17.810  0.00  0.00    +0.000 A 
ATOM     10  C   UNL     1       1.331   9.641  18.915  0.00  0.00    +0.000 A 
ATOM     11  S   UNL     1       1.352   8.537  20.220  0.00  0.00    +0.000 S 
ENDBRANCH   6   7
ENDBRANCH   4   6
ENDBRANCH   1   3
BRANCH   1  12
ATOM     12  O   UNL     1       4.927   3.951  17.368  0.00  0.00    +0.000 OA
BRANCH  12  13
ATOM     13  C   UNL     1       5.672   4.199  16.245  0.00  0.00    +0.000 A 
ATOM     14  C   UNL     1       5.296   3.796  14.959  0.00  0.00    +0.000 A 
ATOM     15  C   UNL     1       6.066   4.160  13.854  0.00  0.00    +0.000 A 
ATOM     16  C   UNL     1       7.198   4.925  14.055  0.00  0.00    +0.000 A 
ATOM     17  N   UNL     1       7.615   5.325  15.271  0.00  0.00    +0.000 NA
ATOM     18  C   UNL     1       6.850   4.957  16.351  0.00  0.00    +0.000 A 
BRANCH  18  19
ATOM     19  N   UNL     1       7.283   5.323  17.707  0.00  0.00    +0.000 N 
ATOM     20  O   UNL     1       7.917   4.469  18.353  0.00  0.00    +0.000 OA
ATOM     21  O   UNL     1       7.019   6.470  18.098  0.00  0.00    +0.000 OA
ENDBRANCH  18  19
ENDBRANCH  12  13
ENDBRANCH   1  12
TORSDOF 6
ENDMDL
MODEL 4
REMARK VINA RESULT:      -6.8      2.715      3.919
REMARK  Name = 
REMARK  6 active torsions:
REMARK  status: ('A' for Active; 'I' for Inactive)
REMARK    1  A    between atoms: C_2  and  C_3
REMARK    2  A    between atoms: C_3  and  O_4
REMARK    3  A    between atoms: O_4  and  C_5
REMARK    4  A    between atoms: C_10  and  N_11
REMARK    5  A    between atoms: N_14  and  C_15
REMARK    6  A    between atoms: C_15  and  C_16
REMARK                            x       y       z     vdW  Elec       q    Type
REMARK                         _______ _______ _______ _____ _____    ______ ____
ROOT
ATOM      1  C   UNL     1       3.778   4.415  17.568  0.00  0.00    +0.000 C 
ENDROOT
BRANCH   1   3
ATOM      2  O   UNL     1       4.592   5.529  19.545  0.00  0.00    +0.000 OA
ATOM      3  C   UNL     1       3.656   5.339  18.777  0.00  0.00    +0.000 C 
ATOM      4  N   UNL     1       2.429   5.946  18.914  0.00  0.00    +0.000 N 
ATOM      5  H   UNL     1       1.666   5.687  18.301  0.00  0.00    +0.000 HD
BRANCH   4   6
ATOM      6  C   UNL     1       2.126   6.834  20.016  0.00  0.00    +0.000 C 
BRANCH   6   7
ATOM      7  C   UNL     1       1.774   8.175  19.454  0.00  0.00    +0.000 A 
ATOM      8  C   UNL     1       2.054   8.673  18.196  0.00  0.00    +0.000 A 
ATOM      9  C   UNL     1       1.578  10.003  18.020  0.00  0.00    +0.000 A 
ATOM     10  C   UNL     1       0.930  10.472  19.141  0.00  0.00    +0.000 A 
ATOM     11  S   UNL     1       0.905   9.312  20.396  0.00  0.00    +0.000 S 
ENDBRANCH   6   7
ENDBRANCH   4   6
ENDBRANCH   1   3
BRANCH   1  12
ATOM     12  O   UNL     1       5.109   3.925  17.452  0.00  0.00    +0.000 OA
BRANCH  12  13
ATOM     13  C   UNL     1       5.771   4.169  16.277  0.00  0.00    +0.000 A 
ATOM     14  C   UNL     1       5.304   3.760  15.023  0.00  0.00    +0.000 A 
ATOM     15  C   UNL     1       5.991   4.120  13.864  0.00  0.00    +0.000 A 
ATOM     16  C   UNL     1       7.133   4.887  13.980  0.00  0.00    +0.000 A 
ATOM     17  N   UNL     1       7.636   5.293  15.160  0.00  0.00    +0.000 NA
ATOM     18  C   UNL     1       6.952   4.928  16.294  0.00  0.00    +0.000 A 
BRANCH  18  19
ATOM     19  N   UNL     1       7.482   5.300  17.614  0.00  0.00    +0.000 N 
ATOM     20  O   UNL     1       8.041   4.408  18.277  0.00  0.00    +0.000 OA
ATOM     21  O   UNL     1       7.367   6.487  17.959  0.00  0.00    +0.000 OA
ENDBRANCH  18  19
ENDBRANCH  12  13
ENDBRANCH   1  12
TORSDOF 6
ENDMDL
MODEL 5
REMARK VINA RESULT:      -6.7      1.060      1.209
REMARK  Name = 
REMARK  6 active torsions:
REMARK  status: ('A' for Active; 'I' for Inactive)
REMARK    1  A    between atoms: C_2  and  C_3
REMARK    2  A    between atoms: C_3  and  O_4
REMARK    3  A    between atoms: O_4  and  C_5
REMARK    4  A    between atoms: C_10  and  N_11
REMARK    5  A    between atoms: N_14  and  C_15
REMARK    6  A    between atoms: C_15  and  C_16
REMARK                            x       y       z     vdW  Elec       q    Type
REMARK                         _______ _______ _______ _____ _____    ______ ____
ROOT
ATOM      1  C   UNL     1       3.654   7.360  17.529  0.00  0.00    +0.000 C 
ENDROOT
BRANCH   1   3
ATOM      2  O   UNL     1       2.340   6.838  19.481  0.00  0.00    +0.000 OA
ATOM      3  C   UNL     1       2.718   6.493  18.368  0.00  0.00    +0.000 C 
ATOM      4  N   UNL     1       2.325   5.321  17.763  0.00  0.00    +0.000 N 
ATOM      5  H   UNL     1       2.735   5.048  16.879  0.00  0.00    +0.000 HD
BRANCH   4   6
ATOM      6  C   UNL     1       1.459   4.367  18.421  0.00  0.00    +0.000 C 
BRANCH   6   7
ATOM      7  C   UNL     1       2.278   3.589  19.402  0.00  0.00    +0.000 A 
ATOM      8  C   UNL     1       1.976   3.286  20.715  0.00  0.00    +0.000 A 
ATOM      9  C   UNL     1       3.008   2.540  21.352  0.00  0.00    +0.000 A 
ATOM     10  C   UNL     1       4.056   2.278  20.500  0.00  0.00    +0.000 A 
ATOM     11  S   UNL     1       3.794   2.936  18.943  0.00  0.00    +0.000 S 
ENDBRANCH   6   7
ENDBRANCH   4   6
ENDBRANCH   1   3
BRANCH   1  12
ATOM     12  O   UNL     1       5.012   7.039  17.812  0.00  0.00    +0.000 OA
BRANCH  12  13
ATOM     13  C   UNL     1       5.639   6.155  16.973  0.00  0.00    +0.000 A 
ATOM     14  C   UNL     1       5.202   5.875  15.674  0.00  0.00    +0.000 A 
ATOM     15  C   UNL     1       5.942   5.027  14.849  0.00  0.00    +0.000 A 
ATOM     16  C   UNL     1       7.110   4.477  15.340  0.00  0.00    +0.000 A 
ATOM     17  N   UNL     1       7.566   4.698  16.586  0.00  0.00    +0.000 NA
ATOM     18  C   UNL     1       6.826   5.532  17.389  0.00  0.00    +0.000 A 
BRANCH  18  19
ATOM     19  N   UNL     1       7.250   5.771  18.776  0.00  0.00    +0.000 N 
ATOM     20  O   UNL     1       6.699   5.097  19.665  0.00  0.00    +0.000 OA
ATOM     21  O   UNL     1       8.154   6.600  18.960  0.00  0.00    +0.000 OA
ENDBRANCH  18  19
ENDBRANCH  12  13
ENDBRANCH   1  12
TORSDOF 6
ENDMDL
MODEL 6
REMARK VINA RESULT:      -6.7      4.176      5.851
REMARK  Name = 
REMARK  6 active torsions:
REMARK  status: ('A' for Active; 'I' for Inactive)
REMARK    1  A    between atoms: C_2  and  C_3
REMARK    2  A    between atoms: C_3  and  O_4
REMARK    3  A    between atoms: O_4  and  C_5
REMARK    4  A    between atoms: C_10  and  N_11
REMARK    5  A    between atoms: N_14  and  C_15
REMARK    6  A    between atoms: C_15  and  C_16
REMARK                            x       y       z     vdW  Elec       q    Type
REMARK                         _______ _______ _______ _____ _____    ______ ____
ROOT
ATOM      1  C   UNL     1       2.565   6.929  18.158  0.00  0.00    +0.000 C 
ENDROOT
BRANCH   1   3
ATOM      2  O   UNL     1       2.255   9.173  17.334  0.00  0.00    +0.000 OA
ATOM      3  C   UNL     1       2.096   8.379  18.253  0.00  0.00    +0.000 C 
ATOM      4  N   UNL     1       1.471   8.704  19.435  0.00  0.00    +0.000 N 
ATOM      5  H   UNL     1       1.444   8.033  20.192  0.00  0.00    +0.000 HD
BRANCH   4   6
ATOM      6  C   UNL     1       0.984  10.039  19.709  0.00  0.00    +0.000 C 
BRANCH   6   7
ATOM      7  C   UNL     1       0.380  10.046  21.077  0.00  0.00    +0.000 A 
ATOM      8  C   UNL     1       0.605   9.162  22.114  0.00  0.00    +0.000 A 
ATOM      9  C   UNL     1      -0.165   9.472  23.270  0.00  0.00    +0.000 A 
ATOM     10  C   UNL     1      -0.937  10.598  23.089  0.00  0.00    +0.000 A 
ATOM     11  S   UNL     1      -0.734  11.267  21.529  0.00  0.00    +0.000 S 
ENDBRANCH   6   7
ENDBRANCH   4   6
ENDBRANCH   1   3
BRANCH   1  12
ATOM     12  O   UNL     1       3.194   6.532  19.371  0.00  0.00    +0.000 OA
BRANCH  12  13
ATOM     13  C   UNL     1       2.882   5.292  19.866  0.00  0.00    +0.000 A 
ATOM     14  C   UNL     1       1.684   4.999  20.528  0.00  0.00    +0.000 A 
ATOM     15  C   UNL     1       1.401   3.693  20.928  0.00  0.00    +0.000 A 
ATOM     16  C   UNL     1       2.322   2.701  20.656  0.00  0.00    +0.000 A 
ATOM     17  N   UNL     1       3.496   2.929  20.038  0.00  0.00    +0.000 NA
ATOM     18  C   UNL     1       3.764   4.221  19.653  0.00  0.00    +0.000 A 
BRANCH  18  19
ATOM     19  N   UNL     1       5.052   4.539  19.019  0.00  0.00    +0.000 N 
ATOM     20  O   UNL     1       5.118   4.441  17.780  0.00  0.00    +0.000 OA
ATOM     21  O   UNL     1       5.971   4.919  19.760  0.00  0.00    +0.000 OA
ENDBRANCH  18  19
ENDBRANCH  12  13
ENDBRANCH   1  12
TORSDOF 6
ENDMDL
MODEL 7
REMARK VINA RESULT:      -6.7      1.454      1.825
REMARK  Name = 
REMARK  6 active torsions:
REMARK  status: ('A' for Active; 'I' for Inactive)
REMARK    1  A    between atoms: C_2  and  C_3
REMARK    2  A    between atoms: C_3  and  O_4
REMARK    3  A    between atoms: O_4  and  C_5
REMARK    4  A    between atoms: C_10  and  N_11
REMARK    5  A    between atoms: N_14  and  C_15
REMARK    6  A    between atoms: C_15  and  C_16
REMARK                            x       y       z     vdW  Elec       q    Type
REMARK                         _______ _______ _______ _____ _____    ______ ____
ROOT
ATOM      1  C   UNL     1       3.671   7.397  17.536  0.00  0.00    +0.000 C 
ENDROOT
BRANCH   1   3
ATOM      2  O   UNL     1       2.982   6.539  19.680  0.00  0.00    +0.000 OA
ATOM      3  C   UNL     1       2.966   6.409  18.462  0.00  0.00    +0.000 C 
ATOM      4  N   UNL     1       2.304   5.390  17.818  0.00  0.00    +0.000 N 
ATOM      5  H   UNL     1       2.395   5.283  16.815  0.00  0.00    +0.000 HD
BRANCH   4   6
ATOM      6  C   UNL     1       1.602   4.349  18.538  0.00  0.00    +0.000 C 
BRANCH   6   7
ATOM      7  C   UNL     1       2.534   3.193  18.719  0.00  0.00    +0.000 A 
ATOM      8  C   UNL     1       2.842   2.195  17.815  0.00  0.00    +0.000 A 
ATOM      9  C   UNL     1       3.761   1.246  18.344  0.00  0.00    +0.000 A 
ATOM     10  C   UNL     1       4.144   1.561  19.629  0.00  0.00    +0.000 A 
ATOM     11  S   UNL     1       3.391   2.989  20.189  0.00  0.00    +0.000 S 
ENDBRANCH   6   7
ENDBRANCH   4   6
ENDBRANCH   1   3
BRANCH   1  12
ATOM     12  O   UNL     1       5.082   7.238  17.624  0.00  0.00    +0.000 OA
BRANCH  12  13
ATOM     13  C   UNL     1       5.656   6.258  16.857  0.00  0.00    +0.000 A 
ATOM     14  C   UNL     1       5.208   5.913  15.577  0.00  0.00    +0.000 A 
ATOM     15  C   UNL     1       5.896   4.963  14.822  0.00  0.00    +0.000 A 
ATOM     16  C   UNL     1       7.025   4.377  15.361  0.00  0.00    +0.000 A 
ATOM     17  N   UNL     1       7.489   4.659  16.592  0.00  0.00    +0.000 NA
ATOM     18  C   UNL     1       6.800   5.593  17.326  0.00  0.00    +0.000 A 
BRANCH  18  19
ATOM     19  N   UNL     1       7.232   5.905  18.697  0.00  0.00    +0.000 N 
ATOM     20  O   UNL     1       8.114   6.772  18.833  0.00  0.00    +0.000 OA
ATOM     21  O   UNL     1       6.660   5.309  19.623  0.00  0.00    +0.000 OA
ENDBRANCH  18  19
ENDBRANCH  12  13
ENDBRANCH   1  12
TORSDOF 6
ENDMDL
MODEL 8
REMARK VINA RESULT:      -6.7      1.839      2.443
REMARK  Name = 
REMARK  6 active torsions:
REMARK  status: ('A' for Active; 'I' for Inactive)
REMARK    1  A    between atoms: C_2  and  C_3
REMARK    2  A    between atoms: C_3  and  O_4
REMARK    3  A    between atoms: O_4  and  C_5
REMARK    4  A    between atoms: C_10  and  N_11
REMARK    5  A    between atoms: N_14  and  C_15
REMARK    6  A    between atoms: C_15  and  C_16
REMARK                            x       y       z     vdW  Elec       q    Type
REMARK                         _______ _______ _______ _____ _____    ______ ____
ROOT
ATOM      1  C   UNL     1       4.417   4.462  16.170  0.00  0.00    +0.000 C 
ENDROOT
BRANCH   1   3
ATOM      2  O   UNL     1       5.214   4.012  18.400  0.00  0.00    +0.000 OA
ATOM      3  C   UNL     1       4.404   4.597  17.691  0.00  0.00    +0.000 C 
ATOM      4  N   UNL     1       3.432   5.436  18.184  0.00  0.00    +0.000 N 
ATOM      5  H   UNL     1       2.737   5.825  17.560  0.00  0.00    +0.000 HD
BRANCH   4   6
ATOM      6  C   UNL     1       3.257   5.664  19.603  0.00  0.00    +0.000 C 
BRANCH   6   7
ATOM      7  C   UNL     1       2.454   4.533  20.163  0.00  0.00    +0.000 A 
ATOM      8  C   UNL     1       2.474   4.027  21.448  0.00  0.00    +0.000 A 
ATOM      9  C   UNL     1       1.583   2.929  21.614  0.00  0.00    +0.000 A 
ATOM     10  C   UNL     1       0.893   2.646  20.457  0.00  0.00    +0.000 A 
ATOM     11  S   UNL     1       1.328   3.697  19.180  0.00  0.00    +0.000 S 
ENDBRANCH   6   7
ENDBRANCH   4   6
ENDBRANCH   1   3
BRANCH   1  12
ATOM     12  O   UNL     1       5.485   3.617  15.757  0.00  0.00    +0.000 OA
BRANCH  12  13
ATOM     13  C   UNL     1       6.216   4.012  14.667  0.00  0.00    +0.000 A 
ATOM     14  C   UNL     1       5.946   3.596  13.358  0.00  0.00    +0.000 A 
ATOM     15  C   UNL     1       6.681   4.108  12.289  0.00  0.00    +0.000 A 
ATOM     16  C   UNL     1       7.674   5.033  12.549  0.00  0.00    +0.000 A 
ATOM     17  N   UNL     1       7.987   5.455  13.788  0.00  0.00    +0.000 NA
ATOM     18  C   UNL     1       7.257   4.940  14.831  0.00  0.00    +0.000 A 
BRANCH  18  19
ATOM     19  N   UNL     1       7.587   5.327  16.211  0.00  0.00    +0.000 N 
ATOM     20  O   UNL     1       8.058   4.446  16.953  0.00  0.00    +0.000 OA
ATOM     21  O   UNL     1       7.409   6.513  16.527  0.00  0.00    +0.000 OA
ENDBRANCH  18  19
ENDBRANCH  12  13
ENDBRANCH   1  12
TORSDOF 6
ENDMDL
MODEL 9
REMARK VINA RESULT:      -6.7      1.472      1.754
REMARK  Name = 
REMARK  6 active torsions:
REMARK  status: ('A' for Active; 'I' for Inactive)
REMARK    1  A    between atoms: C_2  and  C_3
REMARK    2  A    between atoms: C_3  and  O_4
REMARK    3  A    between atoms: O_4  and  C_5
REMARK    4  A    between atoms: C_10  and  N_11
REMARK    5  A    between atoms: N_14  and  C_15
REMARK    6  A    between atoms: C_15  and  C_16
REMARK                            x       y       z     vdW  Elec       q    Type
REMARK                         _______ _______ _______ _____ _____    ______ ____
ROOT
ATOM      1  C   UNL     1       3.882   7.628  17.368  0.00  0.00    +0.000 C 
ENDROOT
BRANCH   1   3
ATOM      2  O   UNL     1       1.753   6.817  18.155  0.00  0.00    +0.000 OA
ATOM      3  C   UNL     1       2.971   6.813  18.283  0.00  0.00    +0.000 C 
ATOM      4  N   UNL     1       3.631   6.069  19.234  0.00  0.00    +0.000 N 
ATOM      5  H   UNL     1       4.631   6.169  19.349  0.00  0.00    +0.000 HD
BRANCH   4   6
ATOM      6  C   UNL     1       2.926   5.255  20.202  0.00  0.00    +0.000 C 
BRANCH   6   7
ATOM      7  C   UNL     1       2.711   3.900  19.607  0.00  0.00    +0.000 A 
ATOM      8  C   UNL     1       1.578   3.112  19.666  0.00  0.00    +0.000 A 
ATOM      9  C   UNL     1       1.746   1.867  18.996  0.00  0.00    +0.000 A 
ATOM     10  C   UNL     1       2.994   1.752  18.427  0.00  0.00    +0.000 A 
ATOM     11  S   UNL     1       3.955   3.137  18.709  0.00  0.00    +0.000 S 
ENDBRANCH   6   7
ENDBRANCH   4   6
ENDBRANCH   1   3
BRANCH   1  12
ATOM     12  O   UNL     1       5.245   7.294  17.601  0.00  0.00    +0.000 OA
BRANCH  12  13
ATOM     13  C   UNL     1       5.775   6.264  16.869  0.00  0.00    +0.000 A 
ATOM     14  C   UNL     1       5.333   5.913  15.588  0.00  0.00    +0.000 A 
ATOM     15  C   UNL     1       5.978   4.906  14.870  0.00  0.00    +0.000 A 
ATOM     16  C   UNL     1       7.060   4.270  15.446  0.00  0.00    +0.000 A 
ATOM     17  N   UNL     1       7.517   4.554  16.679  0.00  0.00    +0.000 NA
ATOM     18  C   UNL     1       6.869   5.545  17.377  0.00  0.00    +0.000 A 
BRANCH  18  19
ATOM     19  N   UNL     1       7.292   5.865  18.748  0.00  0.00    +0.000 N 
ATOM     20  O   UNL     1       6.715   5.271  19.677  0.00  0.00    +0.000 OA
ATOM     21  O   UNL     1       8.222   6.676  18.882  0.00  0.00    +0.000 OA
ENDBRANCH  18  19
ENDBRANCH  12  13
ENDBRANCH   1  12
TORSDOF 6
ENDMDL
