MODEL 1
REMARK VINA RESULT:      -6.9      0.000      0.000
REMARK  Name = 
REMARK  12 active torsions:
REMARK  status: ('A' for Active; 'I' for Inactive)
REMARK    1  A    between atoms: C_2  and  C_3
REMARK    2  A    between atoms: C_8  and  O_9
REMARK    3  A    between atoms: O_9  and  C_10
REMARK    4  A    between atoms: C_10  and  C_11
REMARK    5  A    between atoms: C_11  and  O_12
REMARK    6  A    between atoms: C_11  and  C_13
REMARK    7  A    between atoms: C_13  and  N_14
REMARK    8  A    between atoms: N_14  and  C_15
REMARK    9  A    between atoms: C_15  and  C_16
REMARK   10  A    between atoms: C_16  and  N_17
REMARK   11  A    between atoms: N_17  and  S_18
REMARK   12  A    between atoms: S_18  and  C_21
REMARK                            x       y       z     vdW  Elec       q    Type
REMARK                         _______ _______ _______ _____ _____    ______ ____
ROOT
ATOM      1  N   UNL     1       5.703   3.499  18.932  0.00  0.00    +0.000 NA
ATOM      2  H   UNL     1       5.508   3.541  17.930  0.00  0.00    +0.000 HD
ENDROOT
BRANCH   1   3
ATOM      3  C   UNL     1       4.576   2.865  19.623  0.00  0.00    +0.000 C 
BRANCH   3   4
ATOM      4  C   UNL     1       3.541   2.263  18.650  0.00  0.00    +0.000 C 
BRANCH   4   5
ATOM      5  O   UNL     1       4.212   1.933  17.425  0.00  0.00    +0.000 OA
ATOM      6  H   UNL     1       3.588   2.069  16.691  0.00  0.00    +0.000 HD
ENDBRANCH   4   5
BRANCH   4   7
ATOM      7  C   UNL     1       2.411   3.279  18.404  0.00  0.00    +0.000 C 
BRANCH   7   8
ATOM      8  O   UNL     1       2.928   4.589  18.186  0.00  0.00    +0.000 OA
BRANCH   8  14
ATOM      9  C   UNL     1       2.033   5.618  20.307  0.00  0.00    +0.000 A 
ATOM     10  C   UNL     1       1.596   6.821  20.895  0.00  0.00    +0.000 A 
ATOM     11  C   UNL     1       1.580   8.011  20.173  0.00  0.00    +0.000 A 
ATOM     12  C   UNL     1       1.999   8.015  18.850  0.00  0.00    +0.000 A 
ATOM     13  C   UNL     1       2.433   6.829  18.255  0.00  0.00    +0.000 A 
ATOM     14  C   UNL     1       2.461   5.617  18.966  0.00  0.00    +0.000 A 
BRANCH   9  16
ATOM     15  N   UNL     1       1.998   3.549  21.874  0.00  0.00    +0.000 NA
ATOM     16  C   UNL     1       2.005   4.470  21.167  0.00  0.00    +0.000 C 
ENDBRANCH   9  16
ENDBRANCH   8  14
ENDBRANCH   7   8
ENDBRANCH   4   7
ENDBRANCH   3   4
ENDBRANCH   1   3
BRANCH   1  17
ATOM     17  C   UNL     1       6.009   4.849  19.424  0.00  0.00    +0.000 C 
BRANCH  17  18
ATOM     18  C   UNL     1       5.853   5.949  18.357  0.00  0.00    +0.000 C 
BRANCH  18  19
ATOM     19  N   UNL     1       5.821   5.384  17.001  0.00  0.00    +0.000 NA
ATOM     20  H   UNL     1       5.118   5.734  16.352  0.00  0.00    +0.000 HD
BRANCH  19  21
ATOM     21  S   UNL     1       7.319   5.247  16.229  0.00  0.00    +0.000 S 
ATOM     22  O   UNL     1       7.823   6.597  16.095  0.00  0.00    +0.000 OA
ATOM     23  O   UNL     1       8.081   4.218  16.900  0.00  0.00    +0.000 OA
BRANCH  21  24
ATOM     24  C   UNL     1       6.862   4.680  14.616  0.00  0.00    +0.000 A 
ATOM     25  C   UNL     1       7.675   5.013  13.528  0.00  0.00    +0.000 A 
ATOM     26  C   UNL     1       7.333   4.563  12.255  0.00  0.00    +0.000 A 
ATOM     27  C   UNL     1       6.190   3.782  12.075  0.00  0.00    +0.000 A 
ATOM     28  C   UNL     1       5.387   3.445  13.166  0.00  0.00    +0.000 A 
ATOM     29  C   UNL     1       5.720   3.894  14.445  0.00  0.00    +0.000 A 
ENDBRANCH  21  24
ENDBRANCH  19  21
ENDBRANCH  18  19
ENDBRANCH  17  18
ENDBRANCH   1  17
TORSDOF 12
ENDMDL
MODEL 2
REMARK VINA RESULT:      -6.9      2.286      6.412
REMARK  Name = 
REMARK  12 active torsions:
REMARK  status: ('A' for Active; 'I' for Inactive)
REMARK    1  A    between atoms: C_2  and  C_3
REMARK    2  A    between atoms: C_8  and  O_9
REMARK    3  A    between atoms: O_9  and  C_10
REMARK    4  A    between atoms: C_10  and  C_11
REMARK    5  A    between atoms: C_11  and  O_12
REMARK    6  A    between atoms: C_11  and  C_13
REMARK    7  A    between atoms: C_13  and  N_14
REMARK    8  A    between atoms: N_14  and  C_15
REMARK    9  A    between atoms: C_15  and  C_16
REMARK   10  A    between atoms: C_16  and  N_17
REMARK   11  A    between atoms: N_17  and  S_18
REMARK   12  A    between atoms: S_18  and  C_21
REMARK                            x       y       z     vdW  Elec       q    Type
REMARK                         _______ _______ _______ _____ _____    ______ ____
ROOT
ATOM      1  N   UNL     1       2.228   2.633  20.432  0.00  0.00    +0.000 NA
ATOM      2  H   UNL     1       3.042   2.043  20.249  0.00  0.00    +0.000 HD
ENDROOT
BRANCH   1   3
ATOM      3  C   UNL     1       1.480   2.833  19.187  0.00  0.00    +0.000 C 
BRANCH   3   4
ATOM      4  C   UNL     1       2.174   2.198  17.964  0.00  0.00    +0.000 C 
BRANCH   4   5
ATOM      5  O   UNL     1       3.091   1.199  18.435  0.00  0.00    +0.000 OA
ATOM      6  H   UNL     1       3.865   1.196  17.846  0.00  0.00    +0.000 HD
ENDBRANCH   4   5
BRANCH   4   7
ATOM      7  C   UNL     1       2.908   3.287  17.162  0.00  0.00    +0.000 C 
BRANCH   7   8
ATOM      8  O   UNL     1       4.087   3.721  17.833  0.00  0.00    +0.000 OA
BRANCH   8  14
ATOM      9  C   UNL     1       6.346   4.781  17.472  0.00  0.00    +0.000 A 
ATOM     10  C   UNL     1       7.305   5.119  16.497  0.00  0.00    +0.000 A 
ATOM     11  C   UNL     1       7.094   4.834  15.150  0.00  0.00    +0.000 A 
ATOM     12  C   UNL     1       5.919   4.209  14.759  0.00  0.00    +0.000 A 
ATOM     13  C   UNL     1       4.959   3.871  15.715  0.00  0.00    +0.000 A 
ATOM     14  C   UNL     1       5.153   4.146  17.079  0.00  0.00    +0.000 A 
BRANCH   9  16
ATOM     15  N   UNL     1       6.973   5.425  19.907  0.00  0.00    +0.000 NA
ATOM     16  C   UNL     1       6.696   5.126  18.819  0.00  0.00    +0.000 C 
ENDBRANCH   9  16
ENDBRANCH   8  14
ENDBRANCH   7   8
ENDBRANCH   4   7
ENDBRANCH   3   4
ENDBRANCH   1   3
BRANCH   1  17
ATOM     17  C   UNL     1       2.669   3.886  21.060  0.00  0.00    +0.000 C 
BRANCH  17  18
ATOM     18  C   UNL     1       2.027   5.147  20.451  0.00  0.00    +0.000 C 
BRANCH  18  19
ATOM     19  N   UNL     1       3.043   6.066  19.920  0.00  0.00    +0.000 NA
ATOM     20  H   UNL     1       4.008   5.746  19.885  0.00  0.00    +0.000 HD
BRANCH  19  21
ATOM     21  S   UNL     1       2.632   6.860  18.483  0.00  0.00    +0.000 S 
ATOM     22  O   UNL     1       3.883   7.262  17.879  0.00  0.00    +0.000 OA
ATOM     23  O   UNL     1       1.677   6.040  17.772  0.00  0.00    +0.000 OA
BRANCH  21  24
ATOM     24  C   UNL     1       1.825   8.319  19.076  0.00  0.00    +0.000 A 
ATOM     25  C   UNL     1       1.520   8.415  20.437  0.00  0.00    +0.000 A 
ATOM     26  C   UNL     1       0.896   9.564  20.919  0.00  0.00    +0.000 A 
ATOM     27  C   UNL     1       0.586  10.608  20.046  0.00  0.00    +0.000 A 
ATOM     28  C   UNL     1       0.900  10.509  18.690  0.00  0.00    +0.000 A 
ATOM     29  C   UNL     1       1.523   9.361  18.197  0.00  0.00    +0.000 A 
ENDBRANCH  21  24
ENDBRANCH  19  21
ENDBRANCH  18  19
ENDBRANCH  17  18
ENDBRANCH   1  17
TORSDOF 12
ENDMDL
MODEL 3
REMARK VINA RESULT:      -6.7      1.688      2.691
REMARK  Name = 
REMARK  12 active torsions:
REMARK  status: ('A' for Active; 'I' for Inactive)
REMARK    1  A    between atoms: C_2  and  C_3
REMARK    2  A    between atoms: C_8  and  O_9
REMARK    3  A    between atoms: O_9  and  C_10
REMARK    4  A    between atoms: C_10  and  C_11
REMARK    5  A    between atoms: C_11  and  O_12
REMARK    6  A    between atoms: C_11  and  C_13
REMARK    7  A    between atoms: C_13  and  N_14
REMARK    8  A    between atoms: N_14  and  C_15
REMARK    9  A    between atoms: C_15  and  C_16
REMARK   10  A    between atoms: C_16  and  N_17
REMARK   11  A    between atoms: N_17  and  S_18
REMARK   12  A    between atoms: S_18  and  C_21
REMARK                            x       y       z     vdW  Elec       q    Type
REMARK                         _______ _______ _______ _____ _____    ______ ____
ROOT
ATOM      1  N   UNL     1       2.537   3.565  17.995  0.00  0.00    +0.000 NA
ATOM      2  H   UNL     1       2.467   4.552  18.251  0.00  0.00    +0.000 HD
ENDROOT
BRANCH   1   3
ATOM      3  C   UNL     1       2.211   2.734  19.158  0.00  0.00    +0.000 C 
BRANCH   3   4
ATOM      4  C   UNL     1       2.402   3.478  20.496  0.00  0.00    +0.000 C 
BRANCH   4   5
ATOM      5  O   UNL     1       1.924   2.633  21.554  0.00  0.00    +0.000 OA
ATOM      6  H   UNL     1       0.953   2.609  21.507  0.00  0.00    +0.000 HD
ENDBRANCH   4   5
BRANCH   4   7
ATOM      7  C   UNL     1       1.631   4.810  20.462  0.00  0.00    +0.000 C 
BRANCH   7   8
ATOM      8  O   UNL     1       2.507   5.913  20.254  0.00  0.00    +0.000 OA
BRANCH   8  14
ATOM      9  C   UNL     1       2.126   8.053  18.977  0.00  0.00    +0.000 A 
ATOM     10  C   UNL     1       1.444   9.285  18.993  0.00  0.00    +0.000 A 
ATOM     11  C   UNL     1       0.607   9.631  20.051  0.00  0.00    +0.000 A 
ATOM     12  C   UNL     1       0.443   8.750  21.110  0.00  0.00    +0.000 A 
ATOM     13  C   UNL     1       1.115   7.526  21.107  0.00  0.00    +0.000 A 
ATOM     14  C   UNL     1       1.961   7.156  20.049  0.00  0.00    +0.000 A 
BRANCH   9  16
ATOM     15  N   UNL     1       3.596   7.638  16.879  0.00  0.00    +0.000 NA
ATOM     16  C   UNL     1       2.948   7.824  17.824  0.00  0.00    +0.000 C 
ENDBRANCH   9  16
ENDBRANCH   8  14
ENDBRANCH   7   8
ENDBRANCH   4   7
ENDBRANCH   3   4
ENDBRANCH   1   3
BRANCH   1  17
ATOM     17  C   UNL     1       3.872   3.302  17.441  0.00  0.00    +0.000 C 
BRANCH  17  18
ATOM     18  C   UNL     1       4.956   4.276  17.939  0.00  0.00    +0.000 C 
BRANCH  18  19
ATOM     19  N   UNL     1       5.288   5.280  16.917  0.00  0.00    +0.000 NA
ATOM     20  H   UNL     1       4.889   6.212  17.013  0.00  0.00    +0.000 HD
BRANCH  19  21
ATOM     21  S   UNL     1       6.922   5.379  16.493  0.00  0.00    +0.000 S 
ATOM     22  O   UNL     1       7.269   6.782  16.570  0.00  0.00    +0.000 OA
ATOM     23  O   UNL     1       7.646   4.379  17.246  0.00  0.00    +0.000 OA
BRANCH  21  24
ATOM     24  C   UNL     1       6.896   4.922  14.784  0.00  0.00    +0.000 A 
ATOM     25  C   UNL     1       7.836   5.491  13.919  0.00  0.00    +0.000 A 
ATOM     26  C   UNL     1       7.835   5.131  12.573  0.00  0.00    +0.000 A 
ATOM     27  C   UNL     1       6.904   4.205  12.100  0.00  0.00    +0.000 A 
ATOM     28  C   UNL     1       5.973   3.633  12.970  0.00  0.00    +0.000 A 
ATOM     29  C   UNL     1       5.965   3.990  14.319  0.00  0.00    +0.000 A 
ENDBRANCH  21  24
ENDBRANCH  19  21
ENDBRANCH  18  19
ENDBRANCH  17  18
ENDBRANCH   1  17
TORSDOF 12
ENDMDL
MODEL 4
REMARK VINA RESULT:      -6.6      1.774      2.437
REMARK  Name = 
REMARK  12 active torsions:
REMARK  status: ('A' for Active; 'I' for Inactive)
REMARK    1  A    between atoms: C_2  and  C_3
REMARK    2  A    between atoms: C_8  and  O_9
REMARK    3  A    between atoms: O_9  and  C_10
REMARK    4  A    between atoms: C_10  and  C_11
REMARK    5  A    between atoms: C_11  and  O_12
REMARK    6  A    between atoms: C_11  and  C_13
REMARK    7  A    between atoms: C_13  and  N_14
REMARK    8  A    between atoms: N_14  and  C_15
REMARK    9  A    between atoms: C_15  and  C_16
REMARK   10  A    between atoms: C_16  and  N_17
REMARK   11  A    between atoms: N_17  and  S_18
REMARK   12  A    between atoms: S_18  and  C_21
REMARK                            x       y       z     vdW  Elec       q    Type
REMARK                         _______ _______ _______ _____ _____    ______ ____
ROOT
ATOM      1  N   UNL     1       4.793   2.962  18.440  0.00  0.00    +0.000 NA
ATOM      2  H   UNL     1       4.020   3.367  17.909  0.00  0.00    +0.000 HD
ENDROOT
BRANCH   1   3
ATOM      3  C   UNL     1       4.274   1.945  19.360  0.00  0.00    +0.000 C 
BRANCH   3   4
ATOM      4  C   UNL     1       4.215   2.436  20.821  0.00  0.00    +0.000 C 
BRANCH   4   5
ATOM      5  O   UNL     1       5.042   1.576  21.620  0.00  0.00    +0.000 OA
ATOM      6  H   UNL     1       4.916   0.662  21.310  0.00  0.00    +0.000 HD
ENDBRANCH   4   5
BRANCH   4   7
ATOM      7  C   UNL     1       2.758   2.415  21.316  0.00  0.00    +0.000 C 
BRANCH   7   8
ATOM      8  O   UNL     1       2.216   3.730  21.393  0.00  0.00    +0.000 OA
BRANCH   8  14
ATOM      9  C   UNL     1       1.558   4.169  18.998  0.00  0.00    +0.000 A 
ATOM     10  C   UNL     1       1.603   5.119  17.959  0.00  0.00    +0.000 A 
ATOM     11  C   UNL     1       2.211   6.358  18.141  0.00  0.00    +0.000 A 
ATOM     12  C   UNL     1       2.786   6.665  19.367  0.00  0.00    +0.000 A 
ATOM     13  C   UNL     1       2.749   5.731  20.405  0.00  0.00    +0.000 A 
ATOM     14  C   UNL     1       2.138   4.477  20.243  0.00  0.00    +0.000 A 
BRANCH   9  16
ATOM     15  N   UNL     1       0.341   1.954  18.408  0.00  0.00    +0.000 NA
ATOM     16  C   UNL     1       0.896   2.939  18.676  0.00  0.00    +0.000 C 
ENDBRANCH   9  16
ENDBRANCH   8  14
ENDBRANCH   7   8
ENDBRANCH   4   7
ENDBRANCH   3   4
ENDBRANCH   1   3
BRANCH   1  17
ATOM     17  C   UNL     1       5.536   4.037  19.112  0.00  0.00    +0.000 C 
BRANCH  17  18
ATOM     18  C   UNL     1       6.784   4.506  18.342  0.00  0.00    +0.000 C 
BRANCH  18  19
ATOM     19  N   UNL     1       6.669   4.219  16.905  0.00  0.00    +0.000 NA
ATOM     20  H   UNL     1       6.058   3.458  16.615  0.00  0.00    +0.000 HD
BRANCH  19  21
ATOM     21  S   UNL     1       6.451   5.565  15.904  0.00  0.00    +0.000 S 
ATOM     22  O   UNL     1       5.064   5.949  16.050  0.00  0.00    +0.000 OA
ATOM     23  O   UNL     1       7.526   6.498  16.161  0.00  0.00    +0.000 OA
BRANCH  21  24
ATOM     24  C   UNL     1       6.652   4.871  14.289  0.00  0.00    +0.000 A 
ATOM     25  C   UNL     1       5.797   3.840  13.886  0.00  0.00    +0.000 A 
ATOM     26  C   UNL     1       5.936   3.292  12.613  0.00  0.00    +0.000 A 
ATOM     27  C   UNL     1       6.919   3.777  11.749  0.00  0.00    +0.000 A 
ATOM     28  C   UNL     1       7.765   4.812  12.153  0.00  0.00    +0.000 A 
ATOM     29  C   UNL     1       7.635   5.365  13.428  0.00  0.00    +0.000 A 
ENDBRANCH  21  24
ENDBRANCH  19  21
ENDBRANCH  18  19
ENDBRANCH  17  18
ENDBRANCH   1  17
TORSDOF 12
ENDMDL
MODEL 5
REMARK VINA RESULT:      -6.6      4.782      7.800
REMARK  Name = 
REMARK  12 active torsions:
REMARK  status: ('A' for Active; 'I' for Inactive)
REMARK    1  A    between atoms: C_2  and  C_3
REMARK    2  A    between atoms: C_8  and  O_9
REMARK    3  A    between atoms: O_9  and  C_10
REMARK    4  A    between atoms: C_10  and  C_11
REMARK    5  A    between atoms: C_11  and  O_12
REMARK    6  A    between atoms: C_11  and  C_13
REMARK    7  A    between atoms: C_13  and  N_14
REMARK    8  A    between atoms: N_14  and  C_15
REMARK    9  A    between atoms: C_15  and  C_16
REMARK   10  A    between atoms: C_16  and  N_17
REMARK   11  A    between atoms: N_17  and  S_18
REMARK   12  A    between atoms: S_18  and  C_21
REMARK                            x       y       z     vdW  Elec       q    Type
REMARK                         _______ _______ _______ _____ _____    ______ ____
ROOT
ATOM      1  N   UNL     1       6.328   6.842  16.247  0.00  0.00    +0.000 NA
ATOM      2  H   UNL     1       7.004   7.245  15.595  0.00  0.00    +0.000 HD
ENDROOT
BRANCH   1   3
ATOM      3  C   UNL     1       6.596   7.341  17.600  0.00  0.00    +0.000 C 
BRANCH   3   4
ATOM      4  C   UNL     1       8.074   7.727  17.812  0.00  0.00    +0.000 C 
BRANCH   4   5
ATOM      5  O   UNL     1       8.527   7.122  19.032  0.00  0.00    +0.000 OA
ATOM      6  H   UNL     1       8.564   7.811  19.718  0.00  0.00    +0.000 HD
ENDBRANCH   4   5
BRANCH   4   7
ATOM      7  C   UNL     1       8.205   9.259  17.874  0.00  0.00    +0.000 C 
BRANCH   7   8
ATOM      8  O   UNL     1       8.693   9.688  19.141  0.00  0.00    +0.000 OA
BRANCH   8  14
ATOM      9  C   UNL     1       9.655  11.751  20.228  0.00  0.00    +0.000 A 
ATOM     10  C   UNL     1      10.541  12.829  20.043  0.00  0.00    +0.000 A 
ATOM     11  C   UNL     1      11.252  12.982  18.856  0.00  0.00    +0.000 A 
ATOM     12  C   UNL     1      11.085  12.057  17.834  0.00  0.00    +0.000 A 
ATOM     13  C   UNL     1      10.208  10.984  18.004  0.00  0.00    +0.000 A 
ATOM     14  C   UNL     1       9.483  10.810  19.195  0.00  0.00    +0.000 A 
BRANCH   9  16
ATOM     15  N   UNL     1       8.442  11.671  22.521  0.00  0.00    +0.000 NA
ATOM     16  C   UNL     1       8.994  11.712  21.500  0.00  0.00    +0.000 C 
ENDBRANCH   9  16
ENDBRANCH   8  14
ENDBRANCH   7   8
ENDBRANCH   4   7
ENDBRANCH   3   4
ENDBRANCH   1   3
BRANCH   1  17
ATOM     17  C   UNL     1       6.367   5.377  16.143  0.00  0.00    +0.000 C 
BRANCH  17  18
ATOM     18  C   UNL     1       5.700   4.651  17.327  0.00  0.00    +0.000 C 
BRANCH  18  19
ATOM     19  N   UNL     1       4.255   4.914  17.375  0.00  0.00    +0.000 NA
ATOM     20  H   UNL     1       3.625   4.194  17.025  0.00  0.00    +0.000 HD
BRANCH  19  21
ATOM     21  S   UNL     1       3.673   5.548  18.831  0.00  0.00    +0.000 S 
ATOM     22  O   UNL     1       4.770   5.456  19.771  0.00  0.00    +0.000 OA
ATOM     23  O   UNL     1       3.023   6.808  18.547  0.00  0.00    +0.000 OA
BRANCH  21  24
ATOM     24  C   UNL     1       2.456   4.353  19.303  0.00  0.00    +0.000 A 
ATOM     25  C   UNL     1       1.779   3.649  18.304  0.00  0.00    +0.000 A 
ATOM     26  C   UNL     1       0.826   2.698  18.661  0.00  0.00    +0.000 A 
ATOM     27  C   UNL     1       0.560   2.450  20.009  0.00  0.00    +0.000 A 
ATOM     28  C   UNL     1       1.246   3.150  21.003  0.00  0.00    +0.000 A 
ATOM     29  C   UNL     1       2.200   4.108  20.654  0.00  0.00    +0.000 A 
ENDBRANCH  21  24
ENDBRANCH  19  21
ENDBRANCH  18  19
ENDBRANCH  17  18
ENDBRANCH   1  17
TORSDOF 12
ENDMDL
MODEL 6
REMARK VINA RESULT:      -6.6      5.155      7.376
REMARK  Name = 
REMARK  12 active torsions:
REMARK  status: ('A' for Active; 'I' for Inactive)
REMARK    1  A    between atoms: C_2  and  C_3
REMARK    2  A    between atoms: C_8  and  O_9
REMARK    3  A    between atoms: O_9  and  C_10
REMARK    4  A    between atoms: C_10  and  C_11
REMARK    5  A    between atoms: C_11  and  O_12
REMARK    6  A    between atoms: C_11  and  C_13
REMARK    7  A    between atoms: C_13  and  N_14
REMARK    8  A    between atoms: N_14  and  C_15
REMARK    9  A    between atoms: C_15  and  C_16
REMARK   10  A    between atoms: C_16  and  N_17
REMARK   11  A    between atoms: N_17  and  S_18
REMARK   12  A    between atoms: S_18  and  C_21
REMARK                            x       y       z     vdW  Elec       q    Type
REMARK                         _______ _______ _______ _____ _____    ______ ____
ROOT
ATOM      1  N   UNL     1       7.732   7.203  16.884  0.00  0.00    +0.000 NA
ATOM      2  H   UNL     1       7.312   7.855  16.218  0.00  0.00    +0.000 HD
ENDROOT
BRANCH   1   3
ATOM      3  C   UNL     1       6.779   6.131  17.186  0.00  0.00    +0.000 C 
BRANCH   3   4
ATOM      4  C   UNL     1       7.000   4.874  16.319  0.00  0.00    +0.000 C 
BRANCH   4   5
ATOM      5  O   UNL     1       7.421   5.296  15.013  0.00  0.00    +0.000 OA
ATOM      6  H   UNL     1       7.529   6.263  15.027  0.00  0.00    +0.000 HD
ENDBRANCH   4   5
BRANCH   4   7
ATOM      7  C   UNL     1       5.695   4.062  16.242  0.00  0.00    +0.000 C 
BRANCH   7   8
ATOM      8  O   UNL     1       4.557   4.883  16.485  0.00  0.00    +0.000 OA
BRANCH   8  14
ATOM      9  C   UNL     1       2.621   5.060  18.091  0.00  0.00    +0.000 A 
ATOM     10  C   UNL     1       1.659   4.319  18.804  0.00  0.00    +0.000 A 
ATOM     11  C   UNL     1       1.605   2.931  18.711  0.00  0.00    +0.000 A 
ATOM     12  C   UNL     1       2.516   2.264  17.904  0.00  0.00    +0.000 A 
ATOM     13  C   UNL     1       3.475   2.987  17.193  0.00  0.00    +0.000 A 
ATOM     14  C   UNL     1       3.545   4.388  17.270  0.00  0.00    +0.000 A 
BRANCH   9  16
ATOM     15  N   UNL     1       2.488   7.633  18.409  0.00  0.00    +0.000 NA
ATOM     16  C   UNL     1       2.557   6.482  18.274  0.00  0.00    +0.000 C 
ENDBRANCH   9  16
ENDBRANCH   8  14
ENDBRANCH   7   8
ENDBRANCH   4   7
ENDBRANCH   3   4
ENDBRANCH   1   3
BRANCH   1  17
ATOM     17  C   UNL     1       8.177   7.944  18.072  0.00  0.00    +0.000 C 
BRANCH  17  18
ATOM     18  C   UNL     1       8.087   9.475  17.921  0.00  0.00    +0.000 C 
BRANCH  18  19
ATOM     19  N   UNL     1       9.183  10.152  18.628  0.00  0.00    +0.000 NA
ATOM     20  H   UNL     1      10.065   9.653  18.736  0.00  0.00    +0.000 HD
BRANCH  19  21
ATOM     21  S   UNL     1       9.465  11.757  18.176  0.00  0.00    +0.000 S 
ATOM     22  O   UNL     1      10.808  11.789  17.639  0.00  0.00    +0.000 OA
ATOM     23  O   UNL     1       8.330  12.215  17.406  0.00  0.00    +0.000 OA
BRANCH  21  24
ATOM     24  C   UNL     1       9.489  12.589  19.738  0.00  0.00    +0.000 A 
ATOM     25  C   UNL     1       9.165  11.869  20.891  0.00  0.00    +0.000 A 
ATOM     26  C   UNL     1       9.191  12.509  22.129  0.00  0.00    +0.000 A 
ATOM     27  C   UNL     1       9.545  13.857  22.209  0.00  0.00    +0.000 A 
ATOM     28  C   UNL     1       9.876  14.569  21.055  0.00  0.00    +0.000 A 
ATOM     29  C   UNL     1       9.849  13.937  19.811  0.00  0.00    +0.000 A 
ENDBRANCH  21  24
ENDBRANCH  19  21
ENDBRANCH  18  19
ENDBRANCH  17  18
ENDBRANCH   1  17
TORSDOF 12
ENDMDL
MODEL 7
REMARK VINA RESULT:      -6.6      4.034      7.381
REMARK  Name = 
REMARK  12 active torsions:
REMARK  status: ('A' for Active; 'I' for Inactive)
REMARK    1  A    between atoms: C_2  and  C_3
REMARK    2  A    between atoms: C_8  and  O_9
REMARK    3  A    between atoms: O_9  and  C_10
REMARK    4  A    between atoms: C_10  and  C_11
REMARK    5  A    between atoms: C_11  and  O_12
REMARK    6  A    between atoms: C_11  and  C_13
REMARK    7  A    between atoms: C_13  and  N_14
REMARK    8  A    between atoms: N_14  and  C_15
REMARK    9  A    between atoms: C_15  and  C_16
REMARK   10  A    between atoms: C_16  and  N_17
REMARK   11  A    between atoms: N_17  and  S_18
REMARK   12  A    between atoms: S_18  and  C_21
REMARK                            x       y       z     vdW  Elec       q    Type
REMARK                         _______ _______ _______ _____ _____    ______ ____
ROOT
ATOM      1  N   UNL     1       3.821   6.560  18.472  0.00  0.00    +0.000 NA
ATOM      2  H   UNL     1       4.475   6.911  19.174  0.00  0.00    +0.000 HD
ENDROOT
BRANCH   1   3
ATOM      3  C   UNL     1       4.415   6.694  17.139  0.00  0.00    +0.000 C 
BRANCH   3   4
ATOM      4  C   UNL     1       5.487   5.623  16.852  0.00  0.00    +0.000 C 
BRANCH   4   5
ATOM      5  O   UNL     1       5.253   5.089  15.541  0.00  0.00    +0.000 OA
ATOM      6  H   UNL     1       5.436   4.133  15.565  0.00  0.00    +0.000 HD
ENDBRANCH   4   5
BRANCH   4   7
ATOM      7  C   UNL     1       5.412   4.517  17.920  0.00  0.00    +0.000 C 
BRANCH   7   8
ATOM      8  O   UNL     1       4.557   3.454  17.509  0.00  0.00    +0.000 OA
BRANCH   8  14
ATOM      9  C   UNL     1       3.287   2.582  19.504  0.00  0.00    +0.000 A 
ATOM     10  C   UNL     1       2.002   2.435  20.064  0.00  0.00    +0.000 A 
ATOM     11  C   UNL     1       0.869   2.888  19.394  0.00  0.00    +0.000 A 
ATOM     12  C   UNL     1       1.004   3.493  18.153  0.00  0.00    +0.000 A 
ATOM     13  C   UNL     1       2.271   3.644  17.587  0.00  0.00    +0.000 A 
ATOM     14  C   UNL     1       3.428   3.196  18.246  0.00  0.00    +0.000 A 
BRANCH   9  16
ATOM     15  N   UNL     1       5.228   1.678  20.970  0.00  0.00    +0.000 NA
ATOM     16  C   UNL     1       4.365   2.077  20.305  0.00  0.00    +0.000 C 
ENDBRANCH   9  16
ENDBRANCH   8  14
ENDBRANCH   7   8
ENDBRANCH   4   7
ENDBRANCH   3   4
ENDBRANCH   1   3
BRANCH   1  17
ATOM     17  C   UNL     1       2.536   7.257  18.616  0.00  0.00    +0.000 C 
BRANCH  17  18
ATOM     18  C   UNL     1       2.475   8.608  17.878  0.00  0.00    +0.000 C 
BRANCH  18  19
ATOM     19  N   UNL     1       1.092   9.082  17.735  0.00  0.00    +0.000 NA
ATOM     20  H   UNL     1       0.357   8.388  17.614  0.00  0.00    +0.000 HD
BRANCH  19  21
ATOM     21  S   UNL     1       0.606  10.268  18.839  0.00  0.00    +0.000 S 
ATOM     22  O   UNL     1       0.573   9.619  20.131  0.00  0.00    +0.000 OA
ATOM     23  O   UNL     1       1.402  11.453  18.608  0.00  0.00    +0.000 OA
BRANCH  21  24
ATOM     24  C   UNL     1      -1.065  10.580  18.348  0.00  0.00    +0.000 A 
ATOM     25  C   UNL     1      -1.595   9.866  17.269  0.00  0.00    +0.000 A 
ATOM     26  C   UNL     1      -2.913  10.092  16.879  0.00  0.00    +0.000 A 
ATOM     27  C   UNL     1      -3.694  11.022  17.568  0.00  0.00    +0.000 A 
ATOM     28  C   UNL     1      -3.162  11.726  18.650  0.00  0.00    +0.000 A 
ATOM     29  C   UNL     1      -1.841  11.508  19.046  0.00  0.00    +0.000 A 
ENDBRANCH  21  24
ENDBRANCH  19  21
ENDBRANCH  18  19
ENDBRANCH  17  18
ENDBRANCH   1  17
TORSDOF 12
ENDMDL
MODEL 8
REMARK VINA RESULT:      -6.6      1.994      2.929
REMARK  Name = 
REMARK  12 active torsions:
REMARK  status: ('A' for Active; 'I' for Inactive)
REMARK    1  A    between atoms: C_2  and  C_3
REMARK    2  A    between atoms: C_8  and  O_9
REMARK    3  A    between atoms: O_9  and  C_10
REMARK    4  A    between atoms: C_10  and  C_11
REMARK    5  A    between atoms: C_11  and  O_12
REMARK    6  A    between atoms: C_11  and  C_13
REMARK    7  A    between atoms: C_13  and  N_14
REMARK    8  A    between atoms: N_14  and  C_15
REMARK    9  A    between atoms: C_15  and  C_16
REMARK   10  A    between atoms: C_16  and  N_17
REMARK   11  A    between atoms: N_17  and  S_18
REMARK   12  A    between atoms: S_18  and  C_21
REMARK                            x       y       z     vdW  Elec       q    Type
REMARK                         _______ _______ _______ _____ _____    ______ ____
ROOT
ATOM      1  N   UNL     1       1.910   2.959  17.836  0.00  0.00    +0.000 NA
ATOM      2  H   UNL     1       1.273   2.829  17.048  0.00  0.00    +0.000 HD
ENDROOT
BRANCH   1   3
ATOM      3  C   UNL     1       1.604   4.226  18.507  0.00  0.00    +0.000 C 
BRANCH   3   4
ATOM      4  C   UNL     1       1.506   4.081  20.040  0.00  0.00    +0.000 C 
BRANCH   4   5
ATOM      5  O   UNL     1       0.410   3.205  20.341  0.00  0.00    +0.000 OA
ATOM      6  H   UNL     1      -0.411   3.631  20.038  0.00  0.00    +0.000 HD
ENDBRANCH   4   5
BRANCH   4   7
ATOM      7  C   UNL     1       1.297   5.466  20.678  0.00  0.00    +0.000 C 
BRANCH   7   8
ATOM      8  O   UNL     1       2.354   6.359  20.342  0.00  0.00    +0.000 OA
BRANCH   8  14
ATOM      9  C   UNL     1       1.335   8.661  20.188  0.00  0.00    +0.000 A 
ATOM     10  C   UNL     1       1.146   9.771  19.342  0.00  0.00    +0.000 A 
ATOM     11  C   UNL     1       1.649   9.779  18.043  0.00  0.00    +0.000 A 
ATOM     12  C   UNL     1       2.345   8.676  17.571  0.00  0.00    +0.000 A 
ATOM     13  C   UNL     1       2.537   7.568  18.400  0.00  0.00    +0.000 A 
ATOM     14  C   UNL     1       2.042   7.540  19.714  0.00  0.00    +0.000 A 
BRANCH   9  16
ATOM     15  N   UNL     1       0.320   8.872  22.568  0.00  0.00    +0.000 NA
ATOM     16  C   UNL     1       0.772   8.789  21.501  0.00  0.00    +0.000 C 
ENDBRANCH   9  16
ENDBRANCH   8  14
ENDBRANCH   7   8
ENDBRANCH   4   7
ENDBRANCH   3   4
ENDBRANCH   1   3
BRANCH   1  17
ATOM     17  C   UNL     1       3.297   2.867  17.359  0.00  0.00    +0.000 C 
BRANCH  17  18
ATOM     18  C   UNL     1       4.145   4.115  17.669  0.00  0.00    +0.000 C 
BRANCH  18  19
ATOM     19  N   UNL     1       4.515   4.834  16.442  0.00  0.00    +0.000 NA
ATOM     20  H   UNL     1       3.940   5.625  16.158  0.00  0.00    +0.000 HD
BRANCH  19  21
ATOM     21  S   UNL     1       6.156   5.209  16.279  0.00  0.00    +0.000 S 
ATOM     22  O   UNL     1       6.246   6.650  16.371  0.00  0.00    +0.000 OA
ATOM     23  O   UNL     1       6.907   4.346  17.165  0.00  0.00    +0.000 OA
BRANCH  21  24
ATOM     24  C   UNL     1       6.483   4.753  14.601  0.00  0.00    +0.000 A 
ATOM     25  C   UNL     1       5.650   3.815  13.983  0.00  0.00    +0.000 A 
ATOM     26  C   UNL     1       5.889   3.456  12.658  0.00  0.00    +0.000 A 
ATOM     27  C   UNL     1       6.948   4.037  11.958  0.00  0.00    +0.000 A 
ATOM     28  C   UNL     1       7.770   4.979  12.577  0.00  0.00    +0.000 A 
ATOM     29  C   UNL     1       7.541   5.342  13.905  0.00  0.00    +0.000 A 
ENDBRANCH  21  24
ENDBRANCH  19  21
ENDBRANCH  18  19
ENDBRANCH  17  18
ENDBRANCH   1  17
TORSDOF 12
ENDMDL
MODEL 9
REMARK VINA RESULT:      -6.5      4.279      7.941
REMARK  Name = 
REMARK  12 active torsions:
REMARK  status: ('A' for Active; 'I' for Inactive)
REMARK    1  A    between atoms: C_2  and  C_3
REMARK    2  A    between atoms: C_8  and  O_9
REMARK    3  A    between atoms: O_9  and  C_10
REMARK    4  A    between atoms: C_10  and  C_11
REMARK    5  A    between atoms: C_11  and  O_12
REMARK    6  A    between atoms: C_11  and  C_13
REMARK    7  A    between atoms: C_13  and  N_14
REMARK    8  A    between atoms: N_14  and  C_15
REMARK    9  A    between atoms: C_15  and  C_16
REMARK   10  A    between atoms: C_16  and  N_17
REMARK   11  A    between atoms: N_17  and  S_18
REMARK   12  A    between atoms: S_18  and  C_21
REMARK                            x       y       z     vdW  Elec       q    Type
REMARK                         _______ _______ _______ _____ _____    ______ ____
ROOT
ATOM      1  N   UNL     1       3.370   6.923  18.203  0.00  0.00    +0.000 NA
ATOM      2  H   UNL     1       3.594   6.230  17.487  0.00  0.00    +0.000 HD
ENDROOT
BRANCH   1   3
ATOM      3  C   UNL     1       2.595   6.288  19.274  0.00  0.00    +0.000 C 
BRANCH   3   4
ATOM      4  C   UNL     1       2.531   4.753  19.134  0.00  0.00    +0.000 C 
BRANCH   4   5
ATOM      5  O   UNL     1       3.512   4.178  20.010  0.00  0.00    +0.000 OA
ATOM      6  H   UNL     1       3.903   3.407  19.563  0.00  0.00    +0.000 HD
ENDBRANCH   4   5
BRANCH   4   7
ATOM      7  C   UNL     1       2.797   4.356  17.671  0.00  0.00    +0.000 C 
BRANCH   7   8
ATOM      8  O   UNL     1       3.973   3.562  17.553  0.00  0.00    +0.000 OA
BRANCH   8  14
ATOM      9  C   UNL     1       6.184   4.750  17.313  0.00  0.00    +0.000 A 
ATOM     10  C   UNL     1       7.158   5.172  16.387  0.00  0.00    +0.000 A 
ATOM     11  C   UNL     1       7.010   4.927  15.025  0.00  0.00    +0.000 A 
ATOM     12  C   UNL     1       5.883   4.257  14.568  0.00  0.00    +0.000 A 
ATOM     13  C   UNL     1       4.910   3.835  15.476  0.00  0.00    +0.000 A 
ATOM     14  C   UNL     1       5.041   4.069  16.855  0.00  0.00    +0.000 A 
BRANCH   9  16
ATOM     15  N   UNL     1       6.677   5.324  19.796  0.00  0.00    +0.000 NA
ATOM     16  C   UNL     1       6.467   5.062  18.684  0.00  0.00    +0.000 C 
ENDBRANCH   9  16
ENDBRANCH   8  14
ENDBRANCH   7   8
ENDBRANCH   4   7
ENDBRANCH   3   4
ENDBRANCH   1   3
BRANCH   1  17
ATOM     17  C   UNL     1       2.682   8.061  17.577  0.00  0.00    +0.000 C 
BRANCH  17  18
ATOM     18  C   UNL     1       1.805   8.870  18.550  0.00  0.00    +0.000 C 
BRANCH  18  19
ATOM     19  N   UNL     1       1.200  10.035  17.889  0.00  0.00    +0.000 NA
ATOM     20  H   UNL     1       0.685   9.882  17.024  0.00  0.00    +0.000 HD
BRANCH  19  21
ATOM     21  S   UNL     1       0.352  11.093  18.901  0.00  0.00    +0.000 S 
ATOM     22  O   UNL     1       0.435  10.525  20.229  0.00  0.00    +0.000 OA
ATOM     23  O   UNL     1       0.801  12.439  18.625  0.00  0.00    +0.000 OA
BRANCH  21  24
ATOM     24  C   UNL     1      -1.314  10.902  18.335  0.00  0.00    +0.000 A 
ATOM     25  C   UNL     1      -2.306  11.729  18.868  0.00  0.00    +0.000 A 
ATOM     26  C   UNL     1      -3.620  11.598  18.423  0.00  0.00    +0.000 A 
ATOM     27  C   UNL     1      -3.934  10.650  17.448  0.00  0.00    +0.000 A 
ATOM     28  C   UNL     1      -2.937   9.832  16.912  0.00  0.00    +0.000 A 
ATOM     29  C   UNL     1      -1.619   9.954  17.355  0.00  0.00    +0.000 A 
ENDBRANCH  21  24
ENDBRANCH  19  21
ENDBRANCH  18  19
ENDBRANCH  17  18
ENDBRANCH   1  17
TORSDOF 12
ENDMDL
