MODEL 1
REMARK VINA RESULT:      -8.2      0.000      0.000
REMARK  Name = 
REMARK  5 active torsions:
REMARK  status: ('A' for Active; 'I' for Inactive)
REMARK    1  A    between atoms: C_5  and  N_6
REMARK    2  A    between atoms: C_8  and  C_9
REMARK    3  A    between atoms: C_14  and  N_15
REMARK    4  A    between atoms: N_15  and  C_16
REMARK    5  A    between atoms: C_16  and  C_17
REMARK                            x       y       z     vdW  Elec       q    Type
REMARK                         _______ _______ _______ _____ _____    ______ ____
ROOT
ATOM      1  C   UNL     1       4.719   5.678  17.529  0.00  0.00    +0.000 A 
ATOM      2  C   UNL     1       5.880   6.461  17.366  0.00  0.00    +0.000 A 
ATOM      3  C   UNL     1       6.945   6.030  16.579  0.00  0.00    +0.000 A 
ATOM      4  C   UNL     1       6.881   4.788  15.967  0.00  0.00    +0.000 A 
ATOM      5  C   UNL     1       5.747   3.989  16.133  0.00  0.00    +0.000 A 
ATOM      6  C   UNL     1       4.617   4.429  16.855  0.00  0.00    +0.000 A 
ENDROOT
BRANCH   1   9
ATOM      7  N   UNL     1       2.157   7.633  19.112  0.00  0.00    +0.000 N 
ATOM      8  C   UNL     1       2.815   7.307  17.949  0.00  0.00    +0.000 A 
ATOM      9  C   UNL     1       3.642   6.268  18.306  0.00  0.00    +0.000 A 
ATOM     10  N   UNL     1       3.313   5.852  19.568  0.00  0.00    +0.000 NA
ATOM     11  N   UNL     1       2.384   6.672  20.040  0.00  0.00    +0.000 NA
BRANCH   7  16
ATOM     12 CL   UNL     1      -1.103  12.447  20.285  0.00  0.00    +0.000 Cl
ATOM     13  C   UNL     1      -0.116  11.076  19.959  0.00  0.00    +0.000 A 
ATOM     14  C   UNL     1       0.139  10.153  20.971  0.00  0.00    +0.000 A 
ATOM     15  C   UNL     1       0.920   9.025  20.707  0.00  0.00    +0.000 A 
ATOM     16  C   UNL     1       1.448   8.821  19.422  0.00  0.00    +0.000 A 
ATOM     17  C   UNL     1       1.196   9.764  18.413  0.00  0.00    +0.000 A 
ATOM     18  C   UNL     1       0.412  10.890  18.684  0.00  0.00    +0.000 A 
ENDBRANCH   7  16
ENDBRANCH   1   9
BRANCH   6  19
ATOM     19  N   UNL     1       3.474   3.586  16.964  0.00  0.00    +0.000 N 
ATOM     20  H   UNL     1       3.173   3.276  16.043  0.00  0.00    +0.000 HD
BRANCH  19  21
ATOM     21  C   UNL     1       3.628   2.417  17.832  0.00  0.00    +0.000 C 
BRANCH  21  22
ATOM     22  C   UNL     1       2.788   2.541  19.079  0.00  0.00    +0.000 A 
ATOM     23  C   UNL     1       3.374   2.440  20.346  0.00  0.00    +0.000 A 
ATOM     24  C   UNL     1       2.595   2.703  21.463  0.00  0.00    +0.000 A 
ATOM     25  N   UNL     1       1.291   3.045  21.407  0.00  0.00    +0.000 NA
ATOM     26  C   UNL     1       0.738   3.122  20.177  0.00  0.00    +0.000 A 
ATOM     27  C   UNL     1       1.432   2.875  19.002  0.00  0.00    +0.000 A 
ENDBRANCH  21  22
ENDBRANCH  19  21
ENDBRANCH   6  19
TORSDOF 5
ENDMDL
MODEL 2
REMARK VINA RESULT:      -8.2      1.895      4.749
REMARK  Name = 
REMARK  5 active torsions:
REMARK  status: ('A' for Active; 'I' for Inactive)
REMARK    1  A    between atoms: C_5  and  N_6
REMARK    2  A    between atoms: C_8  and  C_9
REMARK    3  A    between atoms: C_14  and  N_15
REMARK    4  A    between atoms: N_15  and  C_16
REMARK    5  A    between atoms: C_16  and  C_17
REMARK                            x       y       z     vdW  Elec       q    Type
REMARK                         _______ _______ _______ _____ _____    ______ ____
ROOT
ATOM      1  C   UNL     1       2.111   5.285  20.129  0.00  0.00    +0.000 A 
ATOM      2  C   UNL     1       1.033   4.422  20.417  0.00  0.00    +0.000 A 
ATOM      3  C   UNL     1       1.194   3.039  20.440  0.00  0.00    +0.000 A 
ATOM      4  C   UNL     1       2.431   2.492  20.138  0.00  0.00    +0.000 A 
ATOM      5  C   UNL     1       3.505   3.330  19.831  0.00  0.00    +0.000 A 
ATOM      6  C   UNL     1       3.399   4.737  19.879  0.00  0.00    +0.000 A 
ENDROOT
BRANCH   1   9
ATOM      7  N   UNL     1       1.022   8.650  20.752  0.00  0.00    +0.000 N 
ATOM      8  C   UNL     1       1.285   7.401  21.267  0.00  0.00    +0.000 A 
ATOM      9  C   UNL     1       1.841   6.710  20.216  0.00  0.00    +0.000 A 
ATOM     10  N   UNL     1       2.104   7.587  19.198  0.00  0.00    +0.000 NA
ATOM     11  N   UNL     1       1.628   8.774  19.546  0.00  0.00    +0.000 NA
BRANCH   7  16
ATOM     12 CL   UNL     1      -2.301  12.998  23.039  0.00  0.00    +0.000 Cl
ATOM     13  C   UNL     1      -1.379  11.714  22.359  0.00  0.00    +0.000 A 
ATOM     14  C   UNL     1      -0.950  11.798  21.037  0.00  0.00    +0.000 A 
ATOM     15  C   UNL     1      -0.181  10.770  20.486  0.00  0.00    +0.000 A 
ATOM     16  C   UNL     1       0.159   9.652  21.264  0.00  0.00    +0.000 A 
ATOM     17  C   UNL     1      -0.290   9.571  22.591  0.00  0.00    +0.000 A 
ATOM     18  C   UNL     1      -1.058  10.604  23.137  0.00  0.00    +0.000 A 
ENDBRANCH   7  16
ENDBRANCH   1   9
BRANCH   6  19
ATOM     19  N   UNL     1       4.537   5.543  19.588  0.00  0.00    +0.000 N 
ATOM     20  H   UNL     1       4.812   6.077  20.410  0.00  0.00    +0.000 HD
BRANCH  19  21
ATOM     21  C   UNL     1       5.705   4.829  19.070  0.00  0.00    +0.000 C 
BRANCH  21  22
ATOM     22  C   UNL     1       5.859   5.030  17.582  0.00  0.00    +0.000 A 
ATOM     23  C   UNL     1       4.999   5.887  16.887  0.00  0.00    +0.000 A 
ATOM     24  C   UNL     1       5.263   6.155  15.552  0.00  0.00    +0.000 A 
ATOM     25  N   UNL     1       6.302   5.631  14.871  0.00  0.00    +0.000 NA
ATOM     26  C   UNL     1       7.113   4.794  15.554  0.00  0.00    +0.000 A 
ATOM     27  C   UNL     1       6.932   4.461  16.888  0.00  0.00    +0.000 A 
ENDBRANCH  21  22
ENDBRANCH  19  21
ENDBRANCH   6  19
TORSDOF 5
ENDMDL
MODEL 3
REMARK VINA RESULT:      -8.2      0.919      1.344
REMARK  Name = 
REMARK  5 active torsions:
REMARK  status: ('A' for Active; 'I' for Inactive)
REMARK    1  A    between atoms: C_5  and  N_6
REMARK    2  A    between atoms: C_8  and  C_9
REMARK    3  A    between atoms: C_14  and  N_15
REMARK    4  A    between atoms: N_15  and  C_16
REMARK    5  A    between atoms: C_16  and  C_17
REMARK                            x       y       z     vdW  Elec       q    Type
REMARK                         _______ _______ _______ _____ _____    ______ ____
ROOT
ATOM      1  C   UNL     1       4.632   5.412  17.080  0.00  0.00    +0.000 A 
ATOM      2  C   UNL     1       4.909   6.320  16.037  0.00  0.00    +0.000 A 
ATOM      3  C   UNL     1       5.656   5.943  14.923  0.00  0.00    +0.000 A 
ATOM      4  C   UNL     1       6.169   4.657  14.851  0.00  0.00    +0.000 A 
ATOM      5  C   UNL     1       5.922   3.751  15.884  0.00  0.00    +0.000 A 
ATOM      6  C   UNL     1       5.102   4.073  16.987  0.00  0.00    +0.000 A 
ENDROOT
BRANCH   1   9
ATOM      7  N   UNL     1       2.412   7.082  19.356  0.00  0.00    +0.000 N 
ATOM      8  C   UNL     1       2.710   6.760  18.052  0.00  0.00    +0.000 A 
ATOM      9  C   UNL     1       3.775   5.896  18.149  0.00  0.00    +0.000 A 
ATOM     10  N   UNL     1       3.943   5.546  19.462  0.00  0.00    +0.000 NA
ATOM     11  N   UNL     1       3.087   6.252  20.187  0.00  0.00    +0.000 NA
BRANCH   7  16
ATOM     12 CL   UNL     1      -0.495  11.777  21.520  0.00  0.00    +0.000 Cl
ATOM     13  C   UNL     1       0.304  10.395  20.879  0.00  0.00    +0.000 A 
ATOM     14  C   UNL     1       0.674  10.372  19.536  0.00  0.00    +0.000 A 
ATOM     15  C   UNL     1       1.344   9.262  19.015  0.00  0.00    +0.000 A 
ATOM     16  C   UNL     1       1.645   8.170  19.843  0.00  0.00    +0.000 A 
ATOM     17  C   UNL     1       1.256   8.197  21.192  0.00  0.00    +0.000 A 
ATOM     18  C   UNL     1       0.587   9.311  21.708  0.00  0.00    +0.000 A 
ENDBRANCH   7  16
ENDBRANCH   1   9
BRANCH   6  19
ATOM     19  N   UNL     1       4.856   3.098  17.996  0.00  0.00    +0.000 N 
ATOM     20  H   UNL     1       4.889   3.527  18.918  0.00  0.00    +0.000 HD
BRANCH  19  21
ATOM     21  C   UNL     1       3.606   2.349  17.862  0.00  0.00    +0.000 C 
BRANCH  21  22
ATOM     22  C   UNL     1       2.727   2.520  19.077  0.00  0.00    +0.000 A 
ATOM     23  C   UNL     1       3.252   2.357  20.364  0.00  0.00    +0.000 A 
ATOM     24  C   UNL     1       2.451   2.663  21.453  0.00  0.00    +0.000 A 
ATOM     25  N   UNL     1       1.181   3.106  21.352  0.00  0.00    +0.000 NA
ATOM     26  C   UNL     1       0.686   3.243  20.103  0.00  0.00    +0.000 A 
ATOM     27  C   UNL     1       1.406   2.960  18.952  0.00  0.00    +0.000 A 
ENDBRANCH  21  22
ENDBRANCH  19  21
ENDBRANCH   6  19
TORSDOF 5
ENDMDL
MODEL 4
REMARK VINA RESULT:      -8.1      1.834      4.354
REMARK  Name = 
REMARK  5 active torsions:
REMARK  status: ('A' for Active; 'I' for Inactive)
REMARK    1  A    between atoms: C_5  and  N_6
REMARK    2  A    between atoms: C_8  and  C_9
REMARK    3  A    between atoms: C_14  and  N_15
REMARK    4  A    between atoms: N_15  and  C_16
REMARK    5  A    between atoms: C_16  and  C_17
REMARK                            x       y       z     vdW  Elec       q    Type
REMARK                         _______ _______ _______ _____ _____    ______ ____
ROOT
ATOM      1  C   UNL     1       2.390   4.634  18.979  0.00  0.00    +0.000 A 
ATOM      2  C   UNL     1       1.703   3.748  19.835  0.00  0.00    +0.000 A 
ATOM      3  C   UNL     1       1.828   2.367  19.706  0.00  0.00    +0.000 A 
ATOM      4  C   UNL     1       2.618   1.847  18.693  0.00  0.00    +0.000 A 
ATOM      5  C   UNL     1       3.291   2.708  17.823  0.00  0.00    +0.000 A 
ATOM      6  C   UNL     1       3.251   4.111  17.975  0.00  0.00    +0.000 A 
ENDROOT
BRANCH   1   9
ATOM      7  N   UNL     1       1.650   7.959  20.117  0.00  0.00    +0.000 N 
ATOM      8  C   UNL     1       1.874   6.642  20.448  0.00  0.00    +0.000 A 
ATOM      9  C   UNL     1       2.245   6.052  19.263  0.00  0.00    +0.000 A 
ATOM     10  N   UNL     1       2.455   7.029  18.328  0.00  0.00    +0.000 NA
ATOM     11  N   UNL     1       2.119   8.192  18.867  0.00  0.00    +0.000 NA
BRANCH   7  16
ATOM     12 CL   UNL     1      -1.637  11.889  23.103  0.00  0.00    +0.000 Cl
ATOM     13  C   UNL     1      -0.644  10.779  22.243  0.00  0.00    +0.000 A 
ATOM     14  C   UNL     1       0.032   9.778  22.937  0.00  0.00    +0.000 A 
ATOM     15  C   UNL     1       0.823   8.859  22.242  0.00  0.00    +0.000 A 
ATOM     16  C   UNL     1       0.936   8.943  20.845  0.00  0.00    +0.000 A 
ATOM     17  C   UNL     1       0.261   9.963  20.158  0.00  0.00    +0.000 A 
ATOM     18  C   UNL     1      -0.530  10.879  20.859  0.00  0.00    +0.000 A 
ENDBRANCH   7  16
ENDBRANCH   1   9
BRANCH   6  19
ATOM     19  N   UNL     1       3.984   4.941  17.079  0.00  0.00    +0.000 N 
ATOM     20  H   UNL     1       4.048   5.888  17.446  0.00  0.00    +0.000 HD
BRANCH  19  21
ATOM     21  C   UNL     1       5.326   4.472  16.733  0.00  0.00    +0.000 C 
BRANCH  21  22
ATOM     22  C   UNL     1       6.392   5.340  17.355  0.00  0.00    +0.000 A 
ATOM     23  C   UNL     1       6.659   6.615  16.845  0.00  0.00    +0.000 A 
ATOM     24  C   UNL     1       7.542   7.435  17.531  0.00  0.00    +0.000 A 
ATOM     25  N   UNL     1       8.173   7.076  18.667  0.00  0.00    +0.000 NA
ATOM     26  C   UNL     1       7.916   5.836  19.137  0.00  0.00    +0.000 A 
ATOM     27  C   UNL     1       7.052   4.942  18.522  0.00  0.00    +0.000 A 
ENDBRANCH  21  22
ENDBRANCH  19  21
ENDBRANCH   6  19
TORSDOF 5
ENDMDL
MODEL 5
REMARK VINA RESULT:      -8.1      0.327      1.357
REMARK  Name = 
REMARK  5 active torsions:
REMARK  status: ('A' for Active; 'I' for Inactive)
REMARK    1  A    between atoms: C_5  and  N_6
REMARK    2  A    between atoms: C_8  and  C_9
REMARK    3  A    between atoms: C_14  and  N_15
REMARK    4  A    between atoms: N_15  and  C_16
REMARK    5  A    between atoms: C_16  and  C_17
REMARK                            x       y       z     vdW  Elec       q    Type
REMARK                         _______ _______ _______ _____ _____    ______ ____
ROOT
ATOM      1  C   UNL     1       4.745   5.737  17.539  0.00  0.00    +0.000 A 
ATOM      2  C   UNL     1       5.941   6.477  17.428  0.00  0.00    +0.000 A 
ATOM      3  C   UNL     1       7.029   5.999  16.701  0.00  0.00    +0.000 A 
ATOM      4  C   UNL     1       6.951   4.752  16.101  0.00  0.00    +0.000 A 
ATOM      5  C   UNL     1       5.782   3.996  16.216  0.00  0.00    +0.000 A 
ATOM      6  C   UNL     1       4.633   4.484  16.874  0.00  0.00    +0.000 A 
ENDROOT
BRANCH   1   9
ATOM      7  N   UNL     1       2.185   7.805  18.975  0.00  0.00    +0.000 N 
ATOM      8  C   UNL     1       2.897   7.451  17.852  0.00  0.00    +0.000 A 
ATOM      9  C   UNL     1       3.652   6.375  18.252  0.00  0.00    +0.000 A 
ATOM     10  N   UNL     1       3.228   5.972  19.490  0.00  0.00    +0.000 NA
ATOM     11  N   UNL     1       2.312   6.832  19.910  0.00  0.00    +0.000 NA
BRANCH   7  16
ATOM     12 CL   UNL     1      -0.329  13.012  20.295  0.00  0.00    +0.000 Cl
ATOM     13  C   UNL     1       0.357  11.487  19.891  0.00  0.00    +0.000 A 
ATOM     14  C   UNL     1       0.980  11.316  18.657  0.00  0.00    +0.000 A 
ATOM     15  C   UNL     1       1.559  10.086  18.332  0.00  0.00    +0.000 A 
ATOM     16  C   UNL     1       1.515   9.024  19.248  0.00  0.00    +0.000 A 
ATOM     17  C   UNL     1       0.873   9.203  20.483  0.00  0.00    +0.000 A 
ATOM     18  C   UNL     1       0.296  10.436  20.803  0.00  0.00    +0.000 A 
ENDBRANCH   7  16
ENDBRANCH   1   9
BRANCH   6  19
ATOM     19  N   UNL     1       3.457   3.683  16.933  0.00  0.00    +0.000 N 
ATOM     20  H   UNL     1       3.181   3.390  15.999  0.00  0.00    +0.000 HD
BRANCH  19  21
ATOM     21  C   UNL     1       3.534   2.505  17.799  0.00  0.00    +0.000 C 
BRANCH  21  22
ATOM     22  C   UNL     1       2.794   2.725  19.096  0.00  0.00    +0.000 A 
ATOM     23  C   UNL     1       1.422   2.998  19.095  0.00  0.00    +0.000 A 
ATOM     24  C   UNL     1       0.753   3.050  20.309  0.00  0.00    +0.000 A 
ATOM     25  N   UNL     1       1.349   2.861  21.504  0.00  0.00    +0.000 NA
ATOM     26  C   UNL     1       2.677   2.614  21.487  0.00  0.00    +0.000 A 
ATOM     27  C   UNL     1       3.433   2.545  20.327  0.00  0.00    +0.000 A 
ENDBRANCH  21  22
ENDBRANCH  19  21
ENDBRANCH   6  19
TORSDOF 5
ENDMDL
MODEL 6
REMARK VINA RESULT:      -8.0      1.872      4.589
REMARK  Name = 
REMARK  5 active torsions:
REMARK  status: ('A' for Active; 'I' for Inactive)
REMARK    1  A    between atoms: C_5  and  N_6
REMARK    2  A    between atoms: C_8  and  C_9
REMARK    3  A    between atoms: C_14  and  N_15
REMARK    4  A    between atoms: N_15  and  C_16
REMARK    5  A    between atoms: C_16  and  C_17
REMARK                            x       y       z     vdW  Elec       q    Type
REMARK                         _______ _______ _______ _____ _____    ______ ____
ROOT
ATOM      1  C   UNL     1       2.053   5.425  20.081  0.00  0.00    +0.000 A 
ATOM      2  C   UNL     1       0.937   4.600  20.332  0.00  0.00    +0.000 A 
ATOM      3  C   UNL     1       1.051   3.212  20.371  0.00  0.00    +0.000 A 
ATOM      4  C   UNL     1       2.280   2.623  20.123  0.00  0.00    +0.000 A 
ATOM      5  C   UNL     1       3.393   3.423  19.853  0.00  0.00    +0.000 A 
ATOM      6  C   UNL     1       3.331   4.833  19.887  0.00  0.00    +0.000 A 
ENDROOT
BRANCH   1   9
ATOM      7  N   UNL     1       1.063   8.830  20.651  0.00  0.00    +0.000 N 
ATOM      8  C   UNL     1       1.284   7.581  21.184  0.00  0.00    +0.000 A 
ATOM      9  C   UNL     1       1.826   6.859  20.148  0.00  0.00    +0.000 A 
ATOM     10  N   UNL     1       2.125   7.714  19.121  0.00  0.00    +0.000 NA
ATOM     11  N   UNL     1       1.684   8.919  19.449  0.00  0.00    +0.000 NA
BRANCH   7  16
ATOM     12 CL   UNL     1      -2.713  12.951  22.633  0.00  0.00    +0.000 Cl
ATOM     13  C   UNL     1      -1.580  11.788  22.065  0.00  0.00    +0.000 A 
ATOM     14  C   UNL     1      -0.965  10.925  22.969  0.00  0.00    +0.000 A 
ATOM     15  C   UNL     1      -0.061   9.962  22.511  0.00  0.00    +0.000 A 
ATOM     16  C   UNL     1       0.228   9.865  21.141  0.00  0.00    +0.000 A 
ATOM     17  C   UNL     1      -0.387  10.748  20.240  0.00  0.00    +0.000 A 
ATOM     18  C   UNL     1      -1.292  11.708  20.705  0.00  0.00    +0.000 A 
ENDBRANCH   7  16
ENDBRANCH   1   9
BRANCH   6  19
ATOM     19  N   UNL     1       4.505   5.600  19.636  0.00  0.00    +0.000 N 
ATOM     20  H   UNL     1       4.798   6.085  20.481  0.00  0.00    +0.000 HD
BRANCH  19  21
ATOM     21  C   UNL     1       5.644   4.856  19.094  0.00  0.00    +0.000 C 
BRANCH  21  22
ATOM     22  C   UNL     1       5.907   5.223  17.654  0.00  0.00    +0.000 A 
ATOM     23  C   UNL     1       6.843   4.509  16.897  0.00  0.00    +0.000 A 
ATOM     24  C   UNL     1       6.951   4.783  15.542  0.00  0.00    +0.000 A 
ATOM     25  N   UNL     1       6.210   5.710  14.901  0.00  0.00    +0.000 NA
ATOM     26  C   UNL     1       5.324   6.400  15.650  0.00  0.00    +0.000 A 
ATOM     27  C   UNL     1       5.143   6.202  17.010  0.00  0.00    +0.000 A 
ENDBRANCH  21  22
ENDBRANCH  19  21
ENDBRANCH   6  19
TORSDOF 5
ENDMDL
MODEL 7
REMARK VINA RESULT:      -7.9      1.969      4.323
REMARK  Name = 
REMARK  5 active torsions:
REMARK  status: ('A' for Active; 'I' for Inactive)
REMARK    1  A    between atoms: C_5  and  N_6
REMARK    2  A    between atoms: C_8  and  C_9
REMARK    3  A    between atoms: C_14  and  N_15
REMARK    4  A    between atoms: N_15  and  C_16
REMARK    5  A    between atoms: C_16  and  C_17
REMARK                            x       y       z     vdW  Elec       q    Type
REMARK                         _______ _______ _______ _____ _____    ______ ____
ROOT
ATOM      1  C   UNL     1       2.797   5.091  18.740  0.00  0.00    +0.000 A 
ATOM      2  C   UNL     1       1.769   4.265  18.239  0.00  0.00    +0.000 A 
ATOM      3  C   UNL     1       1.979   2.910  17.995  0.00  0.00    +0.000 A 
ATOM      4  C   UNL     1       3.233   2.364  18.215  0.00  0.00    +0.000 A 
ATOM      5  C   UNL     1       4.269   3.171  18.692  0.00  0.00    +0.000 A 
ATOM      6  C   UNL     1       4.071   4.528  19.028  0.00  0.00    +0.000 A 
ENDROOT
BRANCH   1   9
ATOM      7  N   UNL     1       1.576   8.258  19.914  0.00  0.00    +0.000 N 
ATOM      8  C   UNL     1       2.023   6.996  20.233  0.00  0.00    +0.000 A 
ATOM      9  C   UNL     1       2.436   6.468  19.032  0.00  0.00    +0.000 A 
ATOM     10  N   UNL     1       2.445   7.462  18.091  0.00  0.00    +0.000 NA
ATOM     11  N   UNL     1       1.947   8.558  18.646  0.00  0.00    +0.000 NA
BRANCH   7  16
ATOM     12 CL   UNL     1      -1.622  12.042  23.173  0.00  0.00    +0.000 Cl
ATOM     13  C   UNL     1      -0.736  10.917  22.221  0.00  0.00    +0.000 A 
ATOM     14  C   UNL     1      -0.659  11.090  20.841  0.00  0.00    +0.000 A 
ATOM     15  C   UNL     1       0.078  10.193  20.064  0.00  0.00    +0.000 A 
ATOM     16  C   UNL     1       0.742   9.116  20.674  0.00  0.00    +0.000 A 
ATOM     17  C   UNL     1       0.647   8.943  22.063  0.00  0.00    +0.000 A 
ATOM     18  C   UNL     1      -0.091   9.846  22.835  0.00  0.00    +0.000 A 
ENDBRANCH   7  16
ENDBRANCH   1   9
BRANCH   6  19
ATOM     19  N   UNL     1       5.154   5.296  19.542  0.00  0.00    +0.000 N 
ATOM     20  H   UNL     1       5.250   5.147  20.544  0.00  0.00    +0.000 HD
BRANCH  19  21
ATOM     21  C   UNL     1       6.451   5.071  18.901  0.00  0.00    +0.000 C 
BRANCH  21  22
ATOM     22  C   UNL     1       6.384   5.323  17.415  0.00  0.00    +0.000 A 
ATOM     23  C   UNL     1       7.032   4.468  16.518  0.00  0.00    +0.000 A 
ATOM     24  C   UNL     1       6.828   4.650  15.158  0.00  0.00    +0.000 A 
ATOM     25  N   UNL     1       6.042   5.616  14.639  0.00  0.00    +0.000 NA
ATOM     26  C   UNL     1       5.437   6.442  15.520  0.00  0.00    +0.000 A 
ATOM     27  C   UNL     1       5.581   6.343  16.895  0.00  0.00    +0.000 A 
ENDBRANCH  21  22
ENDBRANCH  19  21
ENDBRANCH   6  19
TORSDOF 5
ENDMDL
MODEL 8
REMARK VINA RESULT:      -7.9      1.802      4.434
REMARK  Name = 
REMARK  5 active torsions:
REMARK  status: ('A' for Active; 'I' for Inactive)
REMARK    1  A    between atoms: C_5  and  N_6
REMARK    2  A    between atoms: C_8  and  C_9
REMARK    3  A    between atoms: C_14  and  N_15
REMARK    4  A    between atoms: N_15  and  C_16
REMARK    5  A    between atoms: C_16  and  C_17
REMARK                            x       y       z     vdW  Elec       q    Type
REMARK                         _______ _______ _______ _____ _____    ______ ____
ROOT
ATOM      1  C   UNL     1       2.204   4.845  19.630  0.00  0.00    +0.000 A 
ATOM      2  C   UNL     1       1.023   4.074  19.609  0.00  0.00    +0.000 A 
ATOM      3  C   UNL     1       1.061   2.688  19.479  0.00  0.00    +0.000 A 
ATOM      4  C   UNL     1       2.282   2.050  19.331  0.00  0.00    +0.000 A 
ATOM      5  C   UNL     1       3.462   2.799  19.330  0.00  0.00    +0.000 A 
ATOM      6  C   UNL     1       3.466   4.195  19.541  0.00  0.00    +0.000 A 
ENDROOT
BRANCH   1   9
ATOM      7  N   UNL     1       1.385   8.207  20.588  0.00  0.00    +0.000 N 
ATOM      8  C   UNL     1       1.572   6.902  20.980  0.00  0.00    +0.000 A 
ATOM      9  C   UNL     1       2.043   6.272  19.853  0.00  0.00    +0.000 A 
ATOM     10  N   UNL     1       2.339   7.217  18.908  0.00  0.00    +0.000 NA
ATOM     11  N   UNL     1       1.963   8.398  19.377  0.00  0.00    +0.000 NA
BRANCH   7  16
ATOM     12 CL   UNL     1      -2.132  12.261  23.111  0.00  0.00    +0.000 Cl
ATOM     13  C   UNL     1      -1.072  11.113  22.393  0.00  0.00    +0.000 A 
ATOM     14  C   UNL     1      -0.565  10.067  23.160  0.00  0.00    +0.000 A 
ATOM     15  C   UNL     1       0.278   9.117  22.577  0.00  0.00    +0.000 A 
ATOM     16  C   UNL     1       0.615   9.217  21.218  0.00  0.00    +0.000 A 
ATOM     17  C   UNL     1       0.109  10.283  20.457  0.00  0.00    +0.000 A 
ATOM     18  C   UNL     1      -0.735  11.229  21.046  0.00  0.00    +0.000 A 
ENDBRANCH   7  16
ENDBRANCH   1   9
BRANCH   6  19
ATOM     19  N   UNL     1       4.701   4.904  19.563  0.00  0.00    +0.000 N 
ATOM     20  H   UNL     1       5.052   4.975  20.515  0.00  0.00    +0.000 HD
BRANCH  19  21
ATOM     21  C   UNL     1       5.758   4.364  18.705  0.00  0.00    +0.000 C 
BRANCH  21  22
ATOM     22  C   UNL     1       5.611   4.842  17.281  0.00  0.00    +0.000 A 
ATOM     23  C   UNL     1       5.190   6.149  17.010  0.00  0.00    +0.000 A 
ATOM     24  C   UNL     1       5.207   6.594  15.696  0.00  0.00    +0.000 A 
ATOM     25  N   UNL     1       5.599   5.837  14.651  0.00  0.00    +0.000 NA
ATOM     26  C   UNL     1       5.986   4.573  14.930  0.00  0.00    +0.000 A 
ATOM     27  C   UNL     1       6.003   4.036  16.208  0.00  0.00    +0.000 A 
ENDBRANCH  21  22
ENDBRANCH  19  21
ENDBRANCH   6  19
TORSDOF 5
ENDMDL
MODEL 9
REMARK VINA RESULT:      -7.8      0.963      1.015
REMARK  Name = 
REMARK  5 active torsions:
REMARK  status: ('A' for Active; 'I' for Inactive)
REMARK    1  A    between atoms: C_5  and  N_6
REMARK    2  A    between atoms: C_8  and  C_9
REMARK    3  A    between atoms: C_14  and  N_15
REMARK    4  A    between atoms: N_15  and  C_16
REMARK    5  A    between atoms: C_16  and  C_17
REMARK                            x       y       z     vdW  Elec       q    Type
REMARK                         _______ _______ _______ _____ _____    ______ ____
ROOT
ATOM      1  C   UNL     1       4.737   5.676  17.474  0.00  0.00    +0.000 A 
ATOM      2  C   UNL     1       4.935   6.261  16.206  0.00  0.00    +0.000 A 
ATOM      3  C   UNL     1       5.863   5.746  15.303  0.00  0.00    +0.000 A 
ATOM      4  C   UNL     1       6.636   4.655  15.669  0.00  0.00    +0.000 A 
ATOM      5  C   UNL     1       6.467   4.074  16.928  0.00  0.00    +0.000 A 
ATOM      6  C   UNL     1       5.480   4.518  17.834  0.00  0.00    +0.000 A 
ENDROOT
BRANCH   1   9
ATOM      7  N   UNL     1       2.176   7.572  19.129  0.00  0.00    +0.000 N 
ATOM      8  C   UNL     1       2.767   7.210  17.940  0.00  0.00    +0.000 A 
ATOM      9  C   UNL     1       3.684   6.250  18.294  0.00  0.00    +0.000 A 
ATOM     10  N   UNL     1       3.477   5.899  19.601  0.00  0.00    +0.000 NA
ATOM     11  N   UNL     1       2.534   6.690  20.094  0.00  0.00    +0.000 NA
BRANCH   7  16
ATOM     12 CL   UNL     1      -1.296  12.249  20.245  0.00  0.00    +0.000 Cl
ATOM     13  C   UNL     1      -0.249  10.921  19.932  0.00  0.00    +0.000 A 
ATOM     14  C   UNL     1       0.112  10.067  20.972  0.00  0.00    +0.000 A 
ATOM     15  C   UNL     1       0.944   8.973  20.720  0.00  0.00    +0.000 A 
ATOM     16  C   UNL     1       1.416   8.733  19.420  0.00  0.00    +0.000 A 
ATOM     17  C   UNL     1       1.056   9.607  18.382  0.00  0.00    +0.000 A 
ATOM     18  C   UNL     1       0.223  10.699  18.641  0.00  0.00    +0.000 A 
ENDBRANCH   7  16
ENDBRANCH   1   9
BRANCH   6  19
ATOM     19  N   UNL     1       5.330   3.867  19.092  0.00  0.00    +0.000 N 
ATOM     20  H   UNL     1       4.811   4.459  19.737  0.00  0.00    +0.000 HD
BRANCH  19  21
ATOM     21  C   UNL     1       4.705   2.544  19.051  0.00  0.00    +0.000 C 
BRANCH  21  22
ATOM     22  C   UNL     1       3.243   2.613  19.417  0.00  0.00    +0.000 A 
ATOM     23  C   UNL     1       2.849   2.731  20.754  0.00  0.00    +0.000 A 
ATOM     24  C   UNL     1       1.507   2.936  21.037  0.00  0.00    +0.000 A 
ATOM     25  N   UNL     1       0.544   3.020  20.096  0.00  0.00    +0.000 NA
ATOM     26  C   UNL     1       0.941   2.888  18.811  0.00  0.00    +0.000 A 
ATOM     27  C   UNL     1       2.257   2.678  18.428  0.00  0.00    +0.000 A 
ENDBRANCH  21  22
ENDBRANCH  19  21
ENDBRANCH   6  19
TORSDOF 5
ENDMDL
