MODEL 1
REMARK VINA RESULT:      -7.6      0.000      0.000
REMARK  Name = 
REMARK  7 active torsions:
REMARK  status: ('A' for Active; 'I' for Inactive)
REMARK    1  A    between atoms: C_1  and  O_2
REMARK    2  A    between atoms: O_2  and  C_3
REMARK    3  A    between atoms: C_8  and  C_9
REMARK    4  A    between atoms: C_9  and  C_10
REMARK    5  A    between atoms: C_10  and  N_11
REMARK    6  A    between atoms: C_14  and  C_15
REMARK    7  A    between atoms: C_15  and  C_16
REMARK                            x       y       z     vdW  Elec       q    Type
REMARK                         _______ _______ _______ _____ _____    ______ ____
ROOT
ATOM      1  N   UNL     1       7.643   7.524  17.487  0.00  0.00    +0.000 NA
ATOM      2  C   UNL     1       7.950   6.666  18.653  0.00  0.00    +0.000 C 
ATOM      3  C   UNL     1       7.778   5.183  18.297  0.00  0.00    +0.000 C 
ATOM      4  C   UNL     1       6.347   4.901  17.801  0.00  0.00    +0.000 C 
ATOM      5  C   UNL     1       6.109   5.787  16.564  0.00  0.00    +0.000 C 
ATOM      6  C   UNL     1       6.305   7.280  16.898  0.00  0.00    +0.000 C 
ENDROOT
BRANCH   1   7
ATOM      7  C   UNL     1       7.863   8.961  17.742  0.00  0.00    +0.000 C 
BRANCH   7   8
ATOM      8  C   UNL     1       8.836   9.252  18.915  0.00  0.00    +0.000 C 
BRANCH   8  14
ATOM      9  C   UNL     1       9.605  11.384  20.131  0.00  0.00    +0.000 A 
ATOM     10  C   UNL     1      10.279  12.628  20.124  0.00  0.00    +0.000 A 
ATOM     11  C   UNL     1      10.878  13.111  18.964  0.00  0.00    +0.000 A 
ATOM     12  C   UNL     1      10.814  12.376  17.793  0.00  0.00    +0.000 A 
ATOM     13  C   UNL     1      10.153  11.158  17.771  0.00  0.00    +0.000 A 
ATOM     14  C   UNL     1       9.531  10.628  18.927  0.00  0.00    +0.000 A 
BRANCH   9  16
ATOM     15  C   UNL     1       8.448  11.724  22.246  0.00  0.00    +0.000 C 
ATOM     16  O   UNL     1       9.020  10.921  21.271  0.00  0.00    +0.000 OA
ENDBRANCH   9  16
ENDBRANCH   8  14
ENDBRANCH   7   8
ENDBRANCH   1   7
BRANCH   4  17
ATOM     17  C   UNL     1       5.260   5.155  18.886  0.00  0.00    +0.000 C 
BRANCH  17  18
ATOM     18  C   UNL     1       3.981   4.380  18.662  0.00  0.00    +0.000 A 
ATOM     19  C   UNL     1       2.743   4.957  19.015  0.00  0.00    +0.000 A 
ATOM     20  C   UNL     1       1.550   4.266  18.795  0.00  0.00    +0.000 A 
ATOM     21  C   UNL     1       1.579   2.996  18.216  0.00  0.00    +0.000 A 
ATOM     22  C   UNL     1       2.798   2.412  17.864  0.00  0.00    +0.000 A 
ATOM     23  C   UNL     1       3.997   3.099  18.087  0.00  0.00    +0.000 A 
ENDBRANCH  17  18
ENDBRANCH   4  17
TORSDOF 6
ENDMDL
MODEL 2
REMARK VINA RESULT:      -7.4      4.932      7.258
REMARK  Name = 
REMARK  7 active torsions:
REMARK  status: ('A' for Active; 'I' for Inactive)
REMARK    1  A    between atoms: C_1  and  O_2
REMARK    2  A    between atoms: O_2  and  C_3
REMARK    3  A    between atoms: C_8  and  C_9
REMARK    4  A    between atoms: C_9  and  C_10
REMARK    5  A    between atoms: C_10  and  N_11
REMARK    6  A    between atoms: C_14  and  C_15
REMARK    7  A    between atoms: C_15  and  C_16
REMARK                            x       y       z     vdW  Elec       q    Type
REMARK                         _______ _______ _______ _____ _____    ______ ____
ROOT
ATOM      1  N   UNL     1       2.596   2.621  19.121  0.00  0.00    +0.000 NA
ATOM      2  C   UNL     1       3.190   2.841  20.458  0.00  0.00    +0.000 C 
ATOM      3  C   UNL     1       2.145   3.394  21.435  0.00  0.00    +0.000 C 
ATOM      4  C   UNL     1       1.543   4.710  20.907  0.00  0.00    +0.000 C 
ATOM      5  C   UNL     1       0.902   4.404  19.541  0.00  0.00    +0.000 C 
ATOM      6  C   UNL     1       1.935   3.821  18.555  0.00  0.00    +0.000 C 
ENDROOT
BRANCH   1   7
ATOM      7  C   UNL     1       3.533   2.018  18.154  0.00  0.00    +0.000 C 
BRANCH   7   8
ATOM      8  C   UNL     1       4.014   2.993  17.049  0.00  0.00    +0.000 C 
BRANCH   8  14
ATOM      9  C   UNL     1       6.225   4.127  16.382  0.00  0.00    +0.000 A 
ATOM     10  C   UNL     1       7.317   4.970  16.695  0.00  0.00    +0.000 A 
ATOM     11  C   UNL     1       7.426   5.564  17.948  0.00  0.00    +0.000 A 
ATOM     12  C   UNL     1       6.462   5.330  18.913  0.00  0.00    +0.000 A 
ATOM     13  C   UNL     1       5.387   4.502  18.635  0.00  0.00    +0.000 A 
ATOM     14  C   UNL     1       5.235   3.877  17.374  0.00  0.00    +0.000 A 
BRANCH   9  16
ATOM     15  C   UNL     1       6.381   4.194  13.953  0.00  0.00    +0.000 C 
ATOM     16  O   UNL     1       6.129   3.547  15.153  0.00  0.00    +0.000 OA
ENDBRANCH   9  16
ENDBRANCH   8  14
ENDBRANCH   7   8
ENDBRANCH   1   7
BRANCH   4  17
ATOM     17  C   UNL     1       2.589   5.858  20.787  0.00  0.00    +0.000 C 
BRANCH  17  18
ATOM     18  C   UNL     1       2.031   7.132  20.195  0.00  0.00    +0.000 A 
ATOM     19  C   UNL     1       1.199   7.961  20.977  0.00  0.00    +0.000 A 
ATOM     20  C   UNL     1       0.692   9.152  20.455  0.00  0.00    +0.000 A 
ATOM     21  C   UNL     1       1.014   9.532  19.150  0.00  0.00    +0.000 A 
ATOM     22  C   UNL     1       1.834   8.719  18.364  0.00  0.00    +0.000 A 
ATOM     23  C   UNL     1       2.341   7.522  18.882  0.00  0.00    +0.000 A 
ENDBRANCH  17  18
ENDBRANCH   4  17
TORSDOF 6
ENDMDL
MODEL 3
REMARK VINA RESULT:      -7.4      0.423      1.053
REMARK  Name = 
REMARK  7 active torsions:
REMARK  status: ('A' for Active; 'I' for Inactive)
REMARK    1  A    between atoms: C_1  and  O_2
REMARK    2  A    between atoms: O_2  and  C_3
REMARK    3  A    between atoms: C_8  and  C_9
REMARK    4  A    between atoms: C_9  and  C_10
REMARK    5  A    between atoms: C_10  and  N_11
REMARK    6  A    between atoms: C_14  and  C_15
REMARK    7  A    between atoms: C_15  and  C_16
REMARK                            x       y       z     vdW  Elec       q    Type
REMARK                         _______ _______ _______ _____ _____    ______ ____
ROOT
ATOM      1  N   UNL     1       7.803   7.546  17.650  0.00  0.00    +0.000 NA
ATOM      2  C   UNL     1       8.053   6.765  18.882  0.00  0.00    +0.000 C 
ATOM      3  C   UNL     1       7.962   5.260  18.601  0.00  0.00    +0.000 C 
ATOM      4  C   UNL     1       6.582   4.894  18.021  0.00  0.00    +0.000 C 
ATOM      5  C   UNL     1       6.403   5.700  16.722  0.00  0.00    +0.000 C 
ATOM      6  C   UNL     1       6.521   7.216  16.982  0.00  0.00    +0.000 C 
ENDROOT
BRANCH   1   7
ATOM      7  C   UNL     1       7.952   9.001  17.837  0.00  0.00    +0.000 C 
BRANCH   7   8
ATOM      8  C   UNL     1       8.945   9.395  18.962  0.00  0.00    +0.000 C 
BRANCH   8  14
ATOM      9  C   UNL     1       9.473  11.699  19.975  0.00  0.00    +0.000 A 
ATOM     10  C   UNL     1      10.095  12.966  19.889  0.00  0.00    +0.000 A 
ATOM     11  C   UNL     1      10.819  13.333  18.758  0.00  0.00    +0.000 A 
ATOM     12  C   UNL     1      10.932  12.456  17.693  0.00  0.00    +0.000 A 
ATOM     13  C   UNL     1      10.325  11.212  17.750  0.00  0.00    +0.000 A 
ATOM     14  C   UNL     1       9.581  10.797  18.880  0.00  0.00    +0.000 A 
BRANCH   9  16
ATOM     15  C   UNL     1       8.818  12.022  22.298  0.00  0.00    +0.000 C 
ATOM     16  O   UNL     1       8.765  11.351  21.086  0.00  0.00    +0.000 OA
ENDBRANCH   9  16
ENDBRANCH   8  14
ENDBRANCH   7   8
ENDBRANCH   1   7
BRANCH   4  17
ATOM     17  C   UNL     1       5.410   5.163  19.010  0.00  0.00    +0.000 C 
BRANCH  17  18
ATOM     18  C   UNL     1       4.086   4.590  18.557  0.00  0.00    +0.000 A 
ATOM     19  C   UNL     1       3.959   3.200  18.356  0.00  0.00    +0.000 A 
ATOM     20  C   UNL     1       2.739   2.649  17.960  0.00  0.00    +0.000 A 
ATOM     21  C   UNL     1       1.632   3.478  17.765  0.00  0.00    +0.000 A 
ATOM     22  C   UNL     1       1.745   4.857  17.958  0.00  0.00    +0.000 A 
ATOM     23  C   UNL     1       2.967   5.414  18.351  0.00  0.00    +0.000 A 
ENDBRANCH  17  18
ENDBRANCH   4  17
TORSDOF 6
ENDMDL
MODEL 4
REMARK VINA RESULT:      -7.2      5.449      6.993
REMARK  Name = 
REMARK  7 active torsions:
REMARK  status: ('A' for Active; 'I' for Inactive)
REMARK    1  A    between atoms: C_1  and  O_2
REMARK    2  A    between atoms: O_2  and  C_3
REMARK    3  A    between atoms: C_8  and  C_9
REMARK    4  A    between atoms: C_9  and  C_10
REMARK    5  A    between atoms: C_10  and  N_11
REMARK    6  A    between atoms: C_14  and  C_15
REMARK    7  A    between atoms: C_15  and  C_16
REMARK                            x       y       z     vdW  Elec       q    Type
REMARK                         _______ _______ _______ _____ _____    ______ ____
ROOT
ATOM      1  N   UNL     1       3.250   4.618  18.803  0.00  0.00    +0.000 NA
ATOM      2  C   UNL     1       2.998   3.887  17.541  0.00  0.00    +0.000 C 
ATOM      3  C   UNL     1       4.245   3.107  17.105  0.00  0.00    +0.000 C 
ATOM      4  C   UNL     1       5.449   4.051  16.931  0.00  0.00    +0.000 C 
ATOM      5  C   UNL     1       5.687   4.743  18.286  0.00  0.00    +0.000 C 
ATOM      6  C   UNL     1       4.433   5.510  18.753  0.00  0.00    +0.000 C 
ENDROOT
BRANCH   1   7
ATOM      7  C   UNL     1       2.063   5.329  19.316  0.00  0.00    +0.000 C 
BRANCH   7   8
ATOM      8  C   UNL     1       2.396   6.593  20.150  0.00  0.00    +0.000 C 
BRANCH   8  14
ATOM      9  C   UNL     1       1.226   8.862  20.468  0.00  0.00    +0.000 A 
ATOM     10  C   UNL     1       0.806  10.111  19.955  0.00  0.00    +0.000 A 
ATOM     11  C   UNL     1       1.049  10.458  18.629  0.00  0.00    +0.000 A 
ATOM     12  C   UNL     1       1.705   9.574  17.790  0.00  0.00    +0.000 A 
ATOM     13  C   UNL     1       2.119   8.340  18.267  0.00  0.00    +0.000 A 
ATOM     14  C   UNL     1       1.894   7.946  19.607  0.00  0.00    +0.000 A 
BRANCH   9  16
ATOM     15  C   UNL     1       0.340   9.351  22.683  0.00  0.00    +0.000 C 
ATOM     16  O   UNL     1       0.980   8.530  21.767  0.00  0.00    +0.000 OA
ENDBRANCH   9  16
ENDBRANCH   8  14
ENDBRANCH   7   8
ENDBRANCH   1   7
BRANCH   4  17
ATOM     17  C   UNL     1       5.248   5.100  15.798  0.00  0.00    +0.000 C 
BRANCH  17  18
ATOM     18  C   UNL     1       5.887   4.710  14.485  0.00  0.00    +0.000 A 
ATOM     19  C   UNL     1       7.146   5.243  14.135  0.00  0.00    +0.000 A 
ATOM     20  C   UNL     1       7.763   4.877  12.938  0.00  0.00    +0.000 A 
ATOM     21  C   UNL     1       7.135   3.973  12.079  0.00  0.00    +0.000 A 
ATOM     22  C   UNL     1       5.887   3.441  12.411  0.00  0.00    +0.000 A 
ATOM     23  C   UNL     1       5.262   3.807  13.609  0.00  0.00    +0.000 A 
ENDBRANCH  17  18
ENDBRANCH   4  17
TORSDOF 6
ENDMDL
MODEL 5
REMARK VINA RESULT:      -7.1      5.552      6.968
REMARK  Name = 
REMARK  7 active torsions:
REMARK  status: ('A' for Active; 'I' for Inactive)
REMARK    1  A    between atoms: C_1  and  O_2
REMARK    2  A    between atoms: O_2  and  C_3
REMARK    3  A    between atoms: C_8  and  C_9
REMARK    4  A    between atoms: C_9  and  C_10
REMARK    5  A    between atoms: C_10  and  N_11
REMARK    6  A    between atoms: C_14  and  C_15
REMARK    7  A    between atoms: C_15  and  C_16
REMARK                            x       y       z     vdW  Elec       q    Type
REMARK                         _______ _______ _______ _____ _____    ______ ____
ROOT
ATOM      1  N   UNL     1       1.576   4.179  19.679  0.00  0.00    +0.000 NA
ATOM      2  C   UNL     1       1.910   4.537  18.283  0.00  0.00    +0.000 C 
ATOM      3  C   UNL     1       2.396   3.307  17.506  0.00  0.00    +0.000 C 
ATOM      4  C   UNL     1       3.622   2.675  18.193  0.00  0.00    +0.000 C 
ATOM      5  C   UNL     1       3.196   2.283  19.620  0.00  0.00    +0.000 C 
ATOM      6  C   UNL     1       2.678   3.505  20.406  0.00  0.00    +0.000 C 
ENDROOT
BRANCH   1   7
ATOM      7  C   UNL     1       1.029   5.306  20.459  0.00  0.00    +0.000 C 
BRANCH   7   8
ATOM      8  C   UNL     1       2.029   6.473  20.668  0.00  0.00    +0.000 C 
BRANCH   8  14
ATOM      9  C   UNL     1       1.046   8.849  20.591  0.00  0.00    +0.000 A 
ATOM     10  C   UNL     1       0.818  10.063  19.902  0.00  0.00    +0.000 A 
ATOM     11  C   UNL     1       1.267  10.241  18.597  0.00  0.00    +0.000 A 
ATOM     12  C   UNL     1       1.943   9.220  17.951  0.00  0.00    +0.000 A 
ATOM     13  C   UNL     1       2.171   8.018  18.601  0.00  0.00    +0.000 A 
ATOM     14  C   UNL     1       1.733   7.793  19.928  0.00  0.00    +0.000 A 
BRANCH   9  16
ATOM     15  C   UNL     1      -0.139   9.623  22.573  0.00  0.00    +0.000 C 
ATOM     16  O   UNL     1       0.600   8.684  21.868  0.00  0.00    +0.000 OA
ENDBRANCH   9  16
ENDBRANCH   8  14
ENDBRANCH   7   8
ENDBRANCH   1   7
BRANCH   4  17
ATOM     17  C   UNL     1       4.863   3.615  18.220  0.00  0.00    +0.000 C 
BRANCH  17  18
ATOM     18  C   UNL     1       5.204   4.215  16.874  0.00  0.00    +0.000 A 
ATOM     19  C   UNL     1       5.011   5.595  16.655  0.00  0.00    +0.000 A 
ATOM     20  C   UNL     1       5.340   6.171  15.427  0.00  0.00    +0.000 A 
ATOM     21  C   UNL     1       5.870   5.378  14.407  0.00  0.00    +0.000 A 
ATOM     22  C   UNL     1       6.063   4.009  14.610  0.00  0.00    +0.000 A 
ATOM     23  C   UNL     1       5.730   3.426  15.838  0.00  0.00    +0.000 A 
ENDBRANCH  17  18
ENDBRANCH   4  17
TORSDOF 6
ENDMDL
MODEL 6
REMARK VINA RESULT:      -7.1      5.435      7.042
REMARK  Name = 
REMARK  7 active torsions:
REMARK  status: ('A' for Active; 'I' for Inactive)
REMARK    1  A    between atoms: C_1  and  O_2
REMARK    2  A    between atoms: O_2  and  C_3
REMARK    3  A    between atoms: C_8  and  C_9
REMARK    4  A    between atoms: C_9  and  C_10
REMARK    5  A    between atoms: C_10  and  N_11
REMARK    6  A    between atoms: C_14  and  C_15
REMARK    7  A    between atoms: C_15  and  C_16
REMARK                            x       y       z     vdW  Elec       q    Type
REMARK                         _______ _______ _______ _____ _____    ______ ____
ROOT
ATOM      1  N   UNL     1       3.230   4.654  18.738  0.00  0.00    +0.000 NA
ATOM      2  C   UNL     1       3.020   3.928  17.466  0.00  0.00    +0.000 C 
ATOM      3  C   UNL     1       4.279   3.148  17.069  0.00  0.00    +0.000 C 
ATOM      4  C   UNL     1       5.490   4.092  16.938  0.00  0.00    +0.000 C 
ATOM      5  C   UNL     1       5.683   4.779  18.303  0.00  0.00    +0.000 C 
ATOM      6  C   UNL     1       4.415   5.545  18.730  0.00  0.00    +0.000 C 
ENDROOT
BRANCH   1   7
ATOM      7  C   UNL     1       2.027   5.364  19.214  0.00  0.00    +0.000 C 
BRANCH   7   8
ATOM      8  C   UNL     1       2.333   6.604  20.093  0.00  0.00    +0.000 C 
BRANCH   8  14
ATOM      9  C   UNL     1       1.195   8.890  20.405  0.00  0.00    +0.000 A 
ATOM     10  C   UNL     1       0.823  10.157  19.898  0.00  0.00    +0.000 A 
ATOM     11  C   UNL     1       1.129  10.523  18.590  0.00  0.00    +0.000 A 
ATOM     12  C   UNL     1       1.802   9.641  17.763  0.00  0.00    +0.000 A 
ATOM     13  C   UNL     1       2.172   8.390  18.233  0.00  0.00    +0.000 A 
ATOM     14  C   UNL     1       1.881   7.976  19.555  0.00  0.00    +0.000 A 
BRANCH   9  16
ATOM     15  C   UNL     1      -0.364   8.683  22.263  0.00  0.00    +0.000 C 
ATOM     16  O   UNL     1       0.888   8.541  21.685  0.00  0.00    +0.000 OA
ENDBRANCH   9  16
ENDBRANCH   8  14
ENDBRANCH   7   8
ENDBRANCH   1   7
BRANCH   4  17
ATOM     17  C   UNL     1       5.327   5.145  15.803  0.00  0.00    +0.000 C 
BRANCH  17  18
ATOM     18  C   UNL     1       5.976   4.740  14.499  0.00  0.00    +0.000 A 
ATOM     19  C   UNL     1       5.331   3.812  13.655  0.00  0.00    +0.000 A 
ATOM     20  C   UNL     1       5.904   3.443  12.437  0.00  0.00    +0.000 A 
ATOM     21  C   UNL     1       7.123   4.000  12.044  0.00  0.00    +0.000 A 
ATOM     22  C   UNL     1       7.774   4.918  12.872  0.00  0.00    +0.000 A 
ATOM     23  C   UNL     1       7.206   5.288  14.096  0.00  0.00    +0.000 A 
ENDBRANCH  17  18
ENDBRANCH   4  17
TORSDOF 6
ENDMDL
MODEL 7
REMARK VINA RESULT:      -7.0      6.117      9.711
REMARK  Name = 
REMARK  7 active torsions:
REMARK  status: ('A' for Active; 'I' for Inactive)
REMARK    1  A    between atoms: C_1  and  O_2
REMARK    2  A    between atoms: O_2  and  C_3
REMARK    3  A    between atoms: C_8  and  C_9
REMARK    4  A    between atoms: C_9  and  C_10
REMARK    5  A    between atoms: C_10  and  N_11
REMARK    6  A    between atoms: C_14  and  C_15
REMARK    7  A    between atoms: C_15  and  C_16
REMARK                            x       y       z     vdW  Elec       q    Type
REMARK                         _______ _______ _______ _____ _____    ______ ____
ROOT
ATOM      1  N   UNL     1       1.474   8.648  20.191  0.00  0.00    +0.000 NA
ATOM      2  C   UNL     1       1.256   8.632  18.728  0.00  0.00    +0.000 C 
ATOM      3  C   UNL     1       0.879  10.028  18.218  0.00  0.00    +0.000 C 
ATOM      4  C   UNL     1      -0.385  10.548  18.929  0.00  0.00    +0.000 C 
ATOM      5  C   UNL     1      -0.078  10.585  20.438  0.00  0.00    +0.000 C 
ATOM      6  C   UNL     1       0.330   9.193  20.961  0.00  0.00    +0.000 C 
ENDROOT
BRANCH   1   7
ATOM      7  C   UNL     1       1.914   7.348  20.733  0.00  0.00    +0.000 C 
BRANCH   7   8
ATOM      8  C   UNL     1       2.675   6.463  19.711  0.00  0.00    +0.000 C 
BRANCH   8  14
ATOM      9  C   UNL     1       2.439   4.381  18.219  0.00  0.00    +0.000 A 
ATOM     10  C   UNL     1       1.916   3.088  17.988  0.00  0.00    +0.000 A 
ATOM     11  C   UNL     1       1.080   2.477  18.918  0.00  0.00    +0.000 A 
ATOM     12  C   UNL     1       0.744   3.138  20.087  0.00  0.00    +0.000 A 
ATOM     13  C   UNL     1       1.236   4.409  20.333  0.00  0.00    +0.000 A 
ATOM     14  C   UNL     1       2.089   5.068  19.416  0.00  0.00    +0.000 A 
BRANCH   9  16
ATOM     15  C   UNL     1       4.510   4.505  16.945  0.00  0.00    +0.000 C 
ATOM     16  O   UNL     1       3.254   4.972  17.301  0.00  0.00    +0.000 OA
ENDBRANCH   9  16
ENDBRANCH   8  14
ENDBRANCH   7   8
ENDBRANCH   1   7
BRANCH   4  17
ATOM     17  C   UNL     1      -1.650   9.688  18.639  0.00  0.00    +0.000 C 
BRANCH  17  18
ATOM     18  C   UNL     1      -2.474  10.189  17.474  0.00  0.00    +0.000 A 
ATOM     19  C   UNL     1      -2.159   9.771  16.164  0.00  0.00    +0.000 A 
ATOM     20  C   UNL     1      -2.921  10.205  15.078  0.00  0.00    +0.000 A 
ATOM     21  C   UNL     1      -4.009  11.055  15.287  0.00  0.00    +0.000 A 
ATOM     22  C   UNL     1      -4.330  11.480  16.579  0.00  0.00    +0.000 A 
ATOM     23  C   UNL     1      -3.566  11.051  17.671  0.00  0.00    +0.000 A 
ENDBRANCH  17  18
ENDBRANCH   4  17
TORSDOF 6
ENDMDL
MODEL 8
REMARK VINA RESULT:      -6.9      5.653      9.317
REMARK  Name = 
REMARK  7 active torsions:
REMARK  status: ('A' for Active; 'I' for Inactive)
REMARK    1  A    between atoms: C_1  and  O_2
REMARK    2  A    between atoms: O_2  and  C_3
REMARK    3  A    between atoms: C_8  and  C_9
REMARK    4  A    between atoms: C_9  and  C_10
REMARK    5  A    between atoms: C_10  and  N_11
REMARK    6  A    between atoms: C_14  and  C_15
REMARK    7  A    between atoms: C_15  and  C_16
REMARK                            x       y       z     vdW  Elec       q    Type
REMARK                         _______ _______ _______ _____ _____    ______ ____
ROOT
ATOM      1  N   UNL     1       1.882   8.628  19.492  0.00  0.00    +0.000 NA
ATOM      2  C   UNL     1       1.309   8.953  18.167  0.00  0.00    +0.000 C 
ATOM      3  C   UNL     1       0.846  10.414  18.117  0.00  0.00    +0.000 C 
ATOM      4  C   UNL     1      -0.192  10.698  19.219  0.00  0.00    +0.000 C 
ATOM      5  C   UNL     1       0.478  10.386  20.570  0.00  0.00    +0.000 C 
ATOM      6  C   UNL     1       0.975   8.927  20.626  0.00  0.00    +0.000 C 
ENDROOT
BRANCH   1   7
ATOM      7  C   UNL     1       2.416   7.255  19.580  0.00  0.00    +0.000 C 
BRANCH   7   8
ATOM      8  C   UNL     1       2.915   6.684  18.227  0.00  0.00    +0.000 C 
BRANCH   8  14
ATOM      9  C   UNL     1       3.922   4.428  17.511  0.00  0.00    +0.000 A 
ATOM     10  C   UNL     1       3.817   3.025  17.372  0.00  0.00    +0.000 A 
ATOM     11  C   UNL     1       2.657   2.352  17.745  0.00  0.00    +0.000 A 
ATOM     12  C   UNL     1       1.581   3.058  18.255  0.00  0.00    +0.000 A 
ATOM     13  C   UNL     1       1.655   4.435  18.394  0.00  0.00    +0.000 A 
ATOM     14  C   UNL     1       2.815   5.159  18.028  0.00  0.00    +0.000 A 
BRANCH   9  16
ATOM     15  C   UNL     1       6.133   4.481  16.494  0.00  0.00    +0.000 C 
ATOM     16  O   UNL     1       5.061   5.077  17.140  0.00  0.00    +0.000 OA
ENDBRANCH   9  16
ENDBRANCH   8  14
ENDBRANCH   7   8
ENDBRANCH   1   7
BRANCH   4  17
ATOM     17  C   UNL     1      -1.507   9.881  19.048  0.00  0.00    +0.000 C 
BRANCH  17  18
ATOM     18  C   UNL     1      -2.369  10.347  17.897  0.00  0.00    +0.000 A 
ATOM     19  C   UNL     1      -2.090   9.899  16.589  0.00  0.00    +0.000 A 
ATOM     20  C   UNL     1      -2.887  10.300  15.516  0.00  0.00    +0.000 A 
ATOM     21  C   UNL     1      -3.975  11.148  15.736  0.00  0.00    +0.000 A 
ATOM     22  C   UNL     1      -4.260  11.602  17.026  0.00  0.00    +0.000 A 
ATOM     23  C   UNL     1      -3.461  11.206  18.105  0.00  0.00    +0.000 A 
ENDBRANCH  17  18
ENDBRANCH   4  17
TORSDOF 6
ENDMDL
MODEL 9
REMARK VINA RESULT:      -6.9      1.174      2.205
REMARK  Name = 
REMARK  7 active torsions:
REMARK  status: ('A' for Active; 'I' for Inactive)
REMARK    1  A    between atoms: C_1  and  O_2
REMARK    2  A    between atoms: O_2  and  C_3
REMARK    3  A    between atoms: C_8  and  C_9
REMARK    4  A    between atoms: C_9  and  C_10
REMARK    5  A    between atoms: C_10  and  N_11
REMARK    6  A    between atoms: C_14  and  C_15
REMARK    7  A    between atoms: C_15  and  C_16
REMARK                            x       y       z     vdW  Elec       q    Type
REMARK                         _______ _______ _______ _____ _____    ______ ____
ROOT
ATOM      1  N   UNL     1       7.479   7.649  17.512  0.00  0.00    +0.000 NA
ATOM      2  C   UNL     1       7.885   6.759  18.623  0.00  0.00    +0.000 C 
ATOM      3  C   UNL     1       7.814   5.288  18.195  0.00  0.00    +0.000 C 
ATOM      4  C   UNL     1       6.394   4.922  17.724  0.00  0.00    +0.000 C 
ATOM      5  C   UNL     1       6.051   5.848  16.543  0.00  0.00    +0.000 C 
ATOM      6  C   UNL     1       6.144   7.333  16.948  0.00  0.00    +0.000 C 
ENDROOT
BRANCH   1   7
ATOM      7  C   UNL     1       7.598   9.084  17.836  0.00  0.00    +0.000 C 
BRANCH   7   8
ATOM      8  C   UNL     1       9.051   9.624  17.781  0.00  0.00    +0.000 C 
BRANCH   8  14
ATOM      9  C   UNL     1      10.358  11.666  18.642  0.00  0.00    +0.000 A 
ATOM     10  C   UNL     1      10.719  12.540  19.693  0.00  0.00    +0.000 A 
ATOM     11  C   UNL     1      10.232  12.348  20.983  0.00  0.00    +0.000 A 
ATOM     12  C   UNL     1       9.384  11.288  21.253  0.00  0.00    +0.000 A 
ATOM     13  C   UNL     1       9.021  10.413  20.242  0.00  0.00    +0.000 A 
ATOM     14  C   UNL     1       9.492  10.569  18.916  0.00  0.00    +0.000 A 
BRANCH   9  16
ATOM     15  C   UNL     1      11.349  13.062  16.910  0.00  0.00    +0.000 C 
ATOM     16  O   UNL     1      10.843  11.861  17.384  0.00  0.00    +0.000 OA
ENDBRANCH   9  16
ENDBRANCH   8  14
ENDBRANCH   7   8
ENDBRANCH   1   7
BRANCH   4  17
ATOM     17  C   UNL     1       5.325   5.037  18.851  0.00  0.00    +0.000 C 
BRANCH  17  18
ATOM     18  C   UNL     1       4.067   4.243  18.582  0.00  0.00    +0.000 A 
ATOM     19  C   UNL     1       4.030   2.867  18.894  0.00  0.00    +0.000 A 
ATOM     20  C   UNL     1       2.871   2.121  18.674  0.00  0.00    +0.000 A 
ATOM     21  C   UNL     1       1.735   2.740  18.146  0.00  0.00    +0.000 A 
ATOM     22  C   UNL     1       1.760   4.100  17.830  0.00  0.00    +0.000 A 
ATOM     23  C   UNL     1       2.921   4.852  18.045  0.00  0.00    +0.000 A 
ENDBRANCH  17  18
ENDBRANCH   4  17
TORSDOF 6
ENDMDL
