MODEL 1
REMARK VINA RESULT:      -6.4      0.000      0.000
REMARK  Name = 
REMARK  8 active torsions:
REMARK  status: ('A' for Active; 'I' for Inactive)
REMARK    1  A    between atoms: C_1  and  O_2
REMARK    2  A    between atoms: O_2  and  C_3
REMARK    3  A    between atoms: C_6  and  O_7
REMARK    4  A    between atoms: O_7  and  C_8
REMARK    5  A    between atoms: C_8  and  C_9
REMARK    6  A    between atoms: C_9  and  S_11
REMARK    7  A    between atoms: S_11  and  C_12
REMARK    8  A    between atoms: C_15  and  C_16
REMARK                            x       y       z     vdW  Elec       q    Type
REMARK                         _______ _______ _______ _____ _____    ______ ____
ROOT
ATOM      1  C   UNL     1       3.985   2.310  19.990  0.00  0.00    +0.000 C 
ENDROOT
BRANCH   1   2
ATOM      2  C   UNL     1       2.797   2.509  20.927  0.00  0.00    +0.000 C 
ATOM      3  O   UNL     1       2.823   2.354  22.143  0.00  0.00    +0.000 OA
BRANCH   2   4
ATOM      4  S   UNL     1       1.296   2.946  20.109  0.00  0.00    +0.000 S 
BRANCH   4   5
ATOM      5  C   UNL     1       1.703   4.539  19.412  0.00  0.00    +0.000 A 
ATOM      6  C   UNL     1       2.026   5.581  20.291  0.00  0.00    +0.000 A 
ATOM      7  C   UNL     1       2.360   6.849  19.801  0.00  0.00    +0.000 A 
ATOM      8  C   UNL     1       2.380   7.094  18.427  0.00  0.00    +0.000 A 
ATOM      9  C   UNL     1       2.732   8.447  17.880  0.00  0.00    +0.000 C 
ATOM     10  C   UNL     1       2.073   6.050  17.547  0.00  0.00    +0.000 A 
ATOM     11  C   UNL     1       1.745   4.781  18.037  0.00  0.00    +0.000 A 
ENDBRANCH   4   5
ENDBRANCH   2   4
ENDBRANCH   1   2
BRANCH   1  12
ATOM     12  O   UNL     1       4.977   3.325  20.076  0.00  0.00    +0.000 OA
BRANCH  12  16
ATOM     13  C   UNL     1       5.619   5.320  16.470  0.00  0.00    +0.000 A 
ATOM     14  C   UNL     1       5.089   4.031  16.522  0.00  0.00    +0.000 A 
ATOM     15  C   UNL     1       4.875   3.405  17.751  0.00  0.00    +0.000 A 
ATOM     16  C   UNL     1       5.228   4.043  18.941  0.00  0.00    +0.000 A 
ATOM     17  C   UNL     1       5.759   5.332  18.892  0.00  0.00    +0.000 A 
ATOM     18  C   UNL     1       5.960   5.966  17.659  0.00  0.00    +0.000 A 
BRANCH  13  20
ATOM     19  C   UNL     1       6.482   4.991  14.298  0.00  0.00    +0.000 C 
ATOM     20  O   UNL     1       5.793   5.834  15.215  0.00  0.00    +0.000 OA
ENDBRANCH  13  20
ENDBRANCH  12  16
ENDBRANCH   1  12
TORSDOF 6
ENDMDL
MODEL 2
REMARK VINA RESULT:      -6.3      0.192      1.092
REMARK  Name = 
REMARK  8 active torsions:
REMARK  status: ('A' for Active; 'I' for Inactive)
REMARK    1  A    between atoms: C_1  and  O_2
REMARK    2  A    between atoms: O_2  and  C_3
REMARK    3  A    between atoms: C_6  and  O_7
REMARK    4  A    between atoms: O_7  and  C_8
REMARK    5  A    between atoms: C_8  and  C_9
REMARK    6  A    between atoms: C_9  and  S_11
REMARK    7  A    between atoms: S_11  and  C_12
REMARK    8  A    between atoms: C_15  and  C_16
REMARK                            x       y       z     vdW  Elec       q    Type
REMARK                         _______ _______ _______ _____ _____    ______ ____
ROOT
ATOM      1  C   UNL     1       3.741   2.306  19.898  0.00  0.00    +0.000 C 
ENDROOT
BRANCH   1   2
ATOM      2  C   UNL     1       2.659   2.560  20.943  0.00  0.00    +0.000 C 
ATOM      3  O   UNL     1       2.771   2.338  22.144  0.00  0.00    +0.000 OA
BRANCH   2   4
ATOM      4  S   UNL     1       1.144   3.173  20.281  0.00  0.00    +0.000 S 
BRANCH   4   5
ATOM      5  C   UNL     1       1.648   4.737  19.584  0.00  0.00    +0.000 A 
ATOM      6  C   UNL     1       1.699   4.852  18.189  0.00  0.00    +0.000 A 
ATOM      7  C   UNL     1       2.080   6.057  17.586  0.00  0.00    +0.000 A 
ATOM      8  C   UNL     1       2.412   7.165  18.367  0.00  0.00    +0.000 A 
ATOM      9  C   UNL     1       2.827   8.466  17.741  0.00  0.00    +0.000 C 
ATOM     10  C   UNL     1       2.346   7.057  19.760  0.00  0.00    +0.000 A 
ATOM     11  C   UNL     1       1.959   5.855  20.362  0.00  0.00    +0.000 A 
ENDBRANCH   4   5
ENDBRANCH   2   4
ENDBRANCH   1   2
BRANCH   1  12
ATOM     12  O   UNL     1       4.840   3.207  19.959  0.00  0.00    +0.000 OA
BRANCH  12  16
ATOM     13  C   UNL     1       5.523   5.245  16.385  0.00  0.00    +0.000 A 
ATOM     14  C   UNL     1       4.997   3.954  16.416  0.00  0.00    +0.000 A 
ATOM     15  C   UNL     1       4.769   3.313  17.635  0.00  0.00    +0.000 A 
ATOM     16  C   UNL     1       5.103   3.939  18.836  0.00  0.00    +0.000 A 
ATOM     17  C   UNL     1       5.630   5.230  18.809  0.00  0.00    +0.000 A 
ATOM     18  C   UNL     1       5.845   5.879  17.586  0.00  0.00    +0.000 A 
BRANCH  13  20
ATOM     19  C   UNL     1       6.623   5.066  14.304  0.00  0.00    +0.000 C 
ATOM     20  O   UNL     1       5.713   5.774  15.139  0.00  0.00    +0.000 OA
ENDBRANCH  13  20
ENDBRANCH  12  16
ENDBRANCH   1  12
TORSDOF 6
ENDMDL
MODEL 3
REMARK VINA RESULT:      -6.1      2.571      4.550
REMARK  Name = 
REMARK  8 active torsions:
REMARK  status: ('A' for Active; 'I' for Inactive)
REMARK    1  A    between atoms: C_1  and  O_2
REMARK    2  A    between atoms: O_2  and  C_3
REMARK    3  A    between atoms: C_6  and  O_7
REMARK    4  A    between atoms: O_7  and  C_8
REMARK    5  A    between atoms: C_8  and  C_9
REMARK    6  A    between atoms: C_9  and  S_11
REMARK    7  A    between atoms: S_11  and  C_12
REMARK    8  A    between atoms: C_15  and  C_16
REMARK                            x       y       z     vdW  Elec       q    Type
REMARK                         _______ _______ _______ _____ _____    ______ ____
ROOT
ATOM      1  C   UNL     1       7.370   4.725  16.893  0.00  0.00    +0.000 C 
ENDROOT
BRANCH   1   2
ATOM      2  C   UNL     1       6.619   5.358  18.060  0.00  0.00    +0.000 C 
ATOM      3  O   UNL     1       6.914   5.228  19.244  0.00  0.00    +0.000 OA
BRANCH   2   4
ATOM      4  S   UNL     1       5.199   6.290  17.586  0.00  0.00    +0.000 S 
BRANCH   4   5
ATOM      5  C   UNL     1       3.870   5.156  17.955  0.00  0.00    +0.000 A 
ATOM      6  C   UNL     1       2.992   5.485  18.996  0.00  0.00    +0.000 A 
ATOM      7  C   UNL     1       1.927   4.638  19.325  0.00  0.00    +0.000 A 
ATOM      8  C   UNL     1       1.721   3.452  18.617  0.00  0.00    +0.000 A 
ATOM      9  C   UNL     1       0.587   2.528  18.955  0.00  0.00    +0.000 C 
ATOM     10  C   UNL     1       2.587   3.131  17.566  0.00  0.00    +0.000 A 
ATOM     11  C   UNL     1       3.647   3.981  17.234  0.00  0.00    +0.000 A 
ENDBRANCH   4   5
ENDBRANCH   2   4
ENDBRANCH   1   2
BRANCH   1  12
ATOM     12  O   UNL     1       7.384   5.512  15.708  0.00  0.00    +0.000 OA
BRANCH  12  16
ATOM     13  C   UNL     1       5.950   3.570  12.307  0.00  0.00    +0.000 A 
ATOM     14  C   UNL     1       5.276   3.527  13.527  0.00  0.00    +0.000 A 
ATOM     15  C   UNL     1       5.783   4.204  14.638  0.00  0.00    +0.000 A 
ATOM     16  C   UNL     1       6.991   4.898  14.553  0.00  0.00    +0.000 A 
ATOM     17  C   UNL     1       7.667   4.943  13.334  0.00  0.00    +0.000 A 
ATOM     18  C   UNL     1       7.151   4.275  12.215  0.00  0.00    +0.000 A 
BRANCH  13  20
ATOM     19  C   UNL     1       3.976   3.092  11.106  0.00  0.00    +0.000 C 
ATOM     20  O   UNL     1       5.369   2.867  11.289  0.00  0.00    +0.000 OA
ENDBRANCH  13  20
ENDBRANCH  12  16
ENDBRANCH   1  12
TORSDOF 6
ENDMDL
MODEL 4
REMARK VINA RESULT:      -6.0      0.555      1.594
REMARK  Name = 
REMARK  8 active torsions:
REMARK  status: ('A' for Active; 'I' for Inactive)
REMARK    1  A    between atoms: C_1  and  O_2
REMARK    2  A    between atoms: O_2  and  C_3
REMARK    3  A    between atoms: C_6  and  O_7
REMARK    4  A    between atoms: O_7  and  C_8
REMARK    5  A    between atoms: C_8  and  C_9
REMARK    6  A    between atoms: C_9  and  S_11
REMARK    7  A    between atoms: S_11  and  C_12
REMARK    8  A    between atoms: C_15  and  C_16
REMARK                            x       y       z     vdW  Elec       q    Type
REMARK                         _______ _______ _______ _____ _____    ______ ____
ROOT
ATOM      1  C   UNL     1       4.292   2.459  19.850  0.00  0.00    +0.000 C 
ENDROOT
BRANCH   1   2
ATOM      2  C   UNL     1       3.064   2.562  20.749  0.00  0.00    +0.000 C 
ATOM      3  O   UNL     1       3.054   2.359  21.958  0.00  0.00    +0.000 OA
BRANCH   2   4
ATOM      4  S   UNL     1       1.573   2.956  19.893  0.00  0.00    +0.000 S 
BRANCH   4   5
ATOM      5  C   UNL     1       1.865   4.645  19.396  0.00  0.00    +0.000 A 
ATOM      6  C   UNL     1       1.863   4.940  18.026  0.00  0.00    +0.000 A 
ATOM      7  C   UNL     1       2.078   6.248  17.578  0.00  0.00    +0.000 A 
ATOM      8  C   UNL     1       2.295   7.283  18.490  0.00  0.00    +0.000 A 
ATOM      9  C   UNL     1       2.532   8.692  18.031  0.00  0.00    +0.000 C 
ATOM     10  C   UNL     1       2.281   6.992  19.859  0.00  0.00    +0.000 A 
ATOM     11  C   UNL     1       2.060   5.686  20.307  0.00  0.00    +0.000 A 
ENDBRANCH   4   5
ENDBRANCH   2   4
ENDBRANCH   1   2
BRANCH   1  12
ATOM     12  O   UNL     1       5.049   3.659  19.751  0.00  0.00    +0.000 OA
BRANCH  12  16
ATOM     13  C   UNL     1       6.292   5.066  16.027  0.00  0.00    +0.000 A 
ATOM     14  C   UNL     1       6.867   5.508  17.218  0.00  0.00    +0.000 A 
ATOM     15  C   UNL     1       6.431   5.000  18.443  0.00  0.00    +0.000 A 
ATOM     16  C   UNL     1       5.389   4.074  18.494  0.00  0.00    +0.000 A 
ATOM     17  C   UNL     1       4.813   3.629  17.305  0.00  0.00    +0.000 A 
ATOM     18  C   UNL     1       5.260   4.129  16.074  0.00  0.00    +0.000 A 
BRANCH  13  20
ATOM     19  C   UNL     1       7.005   4.741  13.800  0.00  0.00    +0.000 C 
ATOM     20  O   UNL     1       6.789   5.635  14.887  0.00  0.00    +0.000 OA
ENDBRANCH  13  20
ENDBRANCH  12  16
ENDBRANCH   1  12
TORSDOF 6
ENDMDL
MODEL 5
REMARK VINA RESULT:      -5.9      1.009      1.983
REMARK  Name = 
REMARK  8 active torsions:
REMARK  status: ('A' for Active; 'I' for Inactive)
REMARK    1  A    between atoms: C_1  and  O_2
REMARK    2  A    between atoms: O_2  and  C_3
REMARK    3  A    between atoms: C_6  and  O_7
REMARK    4  A    between atoms: O_7  and  C_8
REMARK    5  A    between atoms: C_8  and  C_9
REMARK    6  A    between atoms: C_9  and  S_11
REMARK    7  A    between atoms: S_11  and  C_12
REMARK    8  A    between atoms: C_15  and  C_16
REMARK                            x       y       z     vdW  Elec       q    Type
REMARK                         _______ _______ _______ _____ _____    ______ ____
ROOT
ATOM      1  C   UNL     1       4.296   2.623  19.974  0.00  0.00    +0.000 C 
ENDROOT
BRANCH   1   2
ATOM      2  C   UNL     1       2.974   2.699  20.731  0.00  0.00    +0.000 C 
ATOM      3  O   UNL     1       2.834   2.492  21.931  0.00  0.00    +0.000 OA
BRANCH   2   4
ATOM      4  S   UNL     1       1.579   3.068  19.715  0.00  0.00    +0.000 S 
BRANCH   4   5
ATOM      5  C   UNL     1       1.854   4.786  19.317  0.00  0.00    +0.000 A 
ATOM      6  C   UNL     1       1.866   5.157  17.965  0.00  0.00    +0.000 A 
ATOM      7  C   UNL     1       2.068   6.491  17.593  0.00  0.00    +0.000 A 
ATOM      8  C   UNL     1       2.260   7.475  18.564  0.00  0.00    +0.000 A 
ATOM      9  C   UNL     1       2.483   8.911  18.187  0.00  0.00    +0.000 C 
ATOM     10  C   UNL     1       2.233   7.109  19.915  0.00  0.00    +0.000 A 
ATOM     11  C   UNL     1       2.023   5.777  20.287  0.00  0.00    +0.000 A 
ENDBRANCH   4   5
ENDBRANCH   2   4
ENDBRANCH   1   2
BRANCH   1  12
ATOM     12  O   UNL     1       4.177   2.784  18.566  0.00  0.00    +0.000 OA
BRANCH  12  16
ATOM     13  C   UNL     1       6.738   5.691  17.021  0.00  0.00    +0.000 A 
ATOM     14  C   UNL     1       6.609   5.466  18.392  0.00  0.00    +0.000 A 
ATOM     15  C   UNL     1       5.751   4.472  18.867  0.00  0.00    +0.000 A 
ATOM     16  C   UNL     1       4.982   3.719  17.979  0.00  0.00    +0.000 A 
ATOM     17  C   UNL     1       5.109   3.941  16.608  0.00  0.00    +0.000 A 
ATOM     18  C   UNL     1       5.981   4.929  16.131  0.00  0.00    +0.000 A 
BRANCH  13  20
ATOM     19  C   UNL     1       7.601   7.829  17.525  0.00  0.00    +0.000 C 
ATOM     20  O   UNL     1       7.599   6.692  16.668  0.00  0.00    +0.000 OA
ENDBRANCH  13  20
ENDBRANCH  12  16
ENDBRANCH   1  12
TORSDOF 6
ENDMDL
MODEL 6
REMARK VINA RESULT:      -5.9      0.989      1.383
REMARK  Name = 
REMARK  8 active torsions:
REMARK  status: ('A' for Active; 'I' for Inactive)
REMARK    1  A    between atoms: C_1  and  O_2
REMARK    2  A    between atoms: O_2  and  C_3
REMARK    3  A    between atoms: C_6  and  O_7
REMARK    4  A    between atoms: O_7  and  C_8
REMARK    5  A    between atoms: C_8  and  C_9
REMARK    6  A    between atoms: C_9  and  S_11
REMARK    7  A    between atoms: S_11  and  C_12
REMARK    8  A    between atoms: C_15  and  C_16
REMARK                            x       y       z     vdW  Elec       q    Type
REMARK                         _______ _______ _______ _____ _____    ______ ____
ROOT
ATOM      1  C   UNL     1       4.120   2.233  19.801  0.00  0.00    +0.000 C 
ENDROOT
BRANCH   1   2
ATOM      2  C   UNL     1       2.939   2.571  20.705  0.00  0.00    +0.000 C 
ATOM      3  O   UNL     1       2.962   2.558  21.931  0.00  0.00    +0.000 OA
BRANCH   2   4
ATOM      4  S   UNL     1       1.449   2.948  19.838  0.00  0.00    +0.000 S 
BRANCH   4   5
ATOM      5  C   UNL     1       1.758   4.614  19.276  0.00  0.00    +0.000 A 
ATOM      6  C   UNL     1       2.100   5.580  20.231  0.00  0.00    +0.000 A 
ATOM      7  C   UNL     1       2.361   6.901  19.848  0.00  0.00    +0.000 A 
ATOM      8  C   UNL     1       2.287   7.276  18.505  0.00  0.00    +0.000 A 
ATOM      9  C   UNL     1       2.559   8.688  18.073  0.00  0.00    +0.000 C 
ATOM     10  C   UNL     1       1.960   6.309  17.549  0.00  0.00    +0.000 A 
ATOM     11  C   UNL     1       1.706   4.987  17.931  0.00  0.00    +0.000 A 
ENDBRANCH   4   5
ENDBRANCH   2   4
ENDBRANCH   1   2
BRANCH   1  12
ATOM     12  O   UNL     1       4.033   2.781  18.491  0.00  0.00    +0.000 OA
BRANCH  12  16
ATOM     13  C   UNL     1       6.639   5.803  17.279  0.00  0.00    +0.000 A 
ATOM     14  C   UNL     1       6.018   4.947  16.369  0.00  0.00    +0.000 A 
ATOM     15  C   UNL     1       5.140   3.958  16.816  0.00  0.00    +0.000 A 
ATOM     16  C   UNL     1       4.904   3.786  18.180  0.00  0.00    +0.000 A 
ATOM     17  C   UNL     1       5.523   4.640  19.093  0.00  0.00    +0.000 A 
ATOM     18  C   UNL     1       6.393   5.642  18.643  0.00  0.00    +0.000 A 
BRANCH  13  20
ATOM     19  C   UNL     1       7.743   7.873  17.541  0.00  0.00    +0.000 C 
ATOM     20  O   UNL     1       7.484   6.729  16.734  0.00  0.00    +0.000 OA
ENDBRANCH  13  20
ENDBRANCH  12  16
ENDBRANCH   1  12
TORSDOF 6
ENDMDL
MODEL 7
REMARK VINA RESULT:      -5.8      2.785      5.976
REMARK  Name = 
REMARK  8 active torsions:
REMARK  status: ('A' for Active; 'I' for Inactive)
REMARK    1  A    between atoms: C_1  and  O_2
REMARK    2  A    between atoms: O_2  and  C_3
REMARK    3  A    between atoms: C_6  and  O_7
REMARK    4  A    between atoms: O_7  and  C_8
REMARK    5  A    between atoms: C_8  and  C_9
REMARK    6  A    between atoms: C_9  and  S_11
REMARK    7  A    between atoms: S_11  and  C_12
REMARK    8  A    between atoms: C_15  and  C_16
REMARK                            x       y       z     vdW  Elec       q    Type
REMARK                         _______ _______ _______ _____ _____    ______ ____
ROOT
ATOM      1  C   UNL     1       4.413   6.688  17.508  0.00  0.00    +0.000 C 
ENDROOT
BRANCH   1   2
ATOM      2  C   UNL     1       5.047   6.010  16.297  0.00  0.00    +0.000 C 
ATOM      3  O   UNL     1       5.502   6.593  15.319  0.00  0.00    +0.000 OA
BRANCH   2   4
ATOM      4  S   UNL     1       5.038   4.248  16.368  0.00  0.00    +0.000 S 
BRANCH   4   5
ATOM      5  C   UNL     1       3.848   3.934  17.661  0.00  0.00    +0.000 A 
ATOM      6  C   UNL     1       4.328   3.577  18.928  0.00  0.00    +0.000 A 
ATOM      7  C   UNL     1       3.443   3.327  19.983  0.00  0.00    +0.000 A 
ATOM      8  C   UNL     1       2.064   3.433  19.789  0.00  0.00    +0.000 A 
ATOM      9  C   UNL     1       1.096   3.165  20.905  0.00  0.00    +0.000 C 
ATOM     10  C   UNL     1       1.583   3.805  18.528  0.00  0.00    +0.000 A 
ATOM     11  C   UNL     1       2.469   4.061  17.477  0.00  0.00    +0.000 A 
ENDBRANCH   4   5
ENDBRANCH   2   4
ENDBRANCH   1   2
BRANCH   1  12
ATOM     12  O   UNL     1       3.329   7.554  17.196  0.00  0.00    +0.000 OA
BRANCH  12  16
ATOM     13  C   UNL     1       0.889   9.069  20.220  0.00  0.00    +0.000 A 
ATOM     14  C   UNL     1       1.040   9.715  18.993  0.00  0.00    +0.000 A 
ATOM     15  C   UNL     1       1.856   9.166  18.002  0.00  0.00    +0.000 A 
ATOM     16  C   UNL     1       2.561   7.986  18.240  0.00  0.00    +0.000 A 
ATOM     17  C   UNL     1       2.412   7.338  19.465  0.00  0.00    +0.000 A 
ATOM     18  C   UNL     1       1.582   7.882  20.455  0.00  0.00    +0.000 A 
BRANCH  13  20
ATOM     19  C   UNL     1      -0.129   9.010  22.349  0.00  0.00    +0.000 C 
ATOM     20  O   UNL     1       0.075   9.698  21.119  0.00  0.00    +0.000 OA
ENDBRANCH  13  20
ENDBRANCH  12  16
ENDBRANCH   1  12
TORSDOF 6
ENDMDL
MODEL 8
REMARK VINA RESULT:      -5.8      2.876      4.880
REMARK  Name = 
REMARK  8 active torsions:
REMARK  status: ('A' for Active; 'I' for Inactive)
REMARK    1  A    between atoms: C_1  and  O_2
REMARK    2  A    between atoms: O_2  and  C_3
REMARK    3  A    between atoms: C_6  and  O_7
REMARK    4  A    between atoms: O_7  and  C_8
REMARK    5  A    between atoms: C_8  and  C_9
REMARK    6  A    between atoms: C_9  and  S_11
REMARK    7  A    between atoms: S_11  and  C_12
REMARK    8  A    between atoms: C_15  and  C_16
REMARK                            x       y       z     vdW  Elec       q    Type
REMARK                         _______ _______ _______ _____ _____    ______ ____
ROOT
ATOM      1  C   UNL     1       7.215   5.053  16.682  0.00  0.00    +0.000 C 
ENDROOT
BRANCH   1   2
ATOM      2  C   UNL     1       6.605   6.091  17.619  0.00  0.00    +0.000 C 
ATOM      3  O   UNL     1       6.335   7.247  17.313  0.00  0.00    +0.000 OA
BRANCH   2   4
ATOM      4  S   UNL     1       6.349   5.515  19.267  0.00  0.00    +0.000 S 
BRANCH   4   5
ATOM      5  C   UNL     1       4.780   4.675  19.128  0.00  0.00    +0.000 A 
ATOM      6  C   UNL     1       3.621   5.454  19.018  0.00  0.00    +0.000 A 
ATOM      7  C   UNL     1       2.364   4.850  18.898  0.00  0.00    +0.000 A 
ATOM      8  C   UNL     1       2.246   3.459  18.883  0.00  0.00    +0.000 A 
ATOM      9  C   UNL     1       0.907   2.791  18.759  0.00  0.00    +0.000 C 
ATOM     10  C   UNL     1       3.404   2.679  18.976  0.00  0.00    +0.000 A 
ATOM     11  C   UNL     1       4.661   3.283  19.090  0.00  0.00    +0.000 A 
ENDBRANCH   4   5
ENDBRANCH   2   4
ENDBRANCH   1   2
BRANCH   1  12
ATOM     12  O   UNL     1       7.531   5.545  15.386  0.00  0.00    +0.000 OA
BRANCH  12  16
ATOM     13  C   UNL     1       5.739   3.405  12.287  0.00  0.00    +0.000 A 
ATOM     14  C   UNL     1       5.176   3.480  13.561  0.00  0.00    +0.000 A 
ATOM     15  C   UNL     1       5.801   4.220  14.567  0.00  0.00    +0.000 A 
ATOM     16  C   UNL     1       7.016   4.860  14.321  0.00  0.00    +0.000 A 
ATOM     17  C   UNL     1       7.581   4.788  13.048  0.00  0.00    +0.000 A 
ATOM     18  C   UNL     1       6.946   4.057  12.035  0.00  0.00    +0.000 A 
BRANCH  13  20
ATOM     19  C   UNL     1       3.806   3.193  10.948  0.00  0.00    +0.000 C 
ATOM     20  O   UNL     1       5.048   2.648  11.383  0.00  0.00    +0.000 OA
ENDBRANCH  13  20
ENDBRANCH  12  16
ENDBRANCH   1  12
TORSDOF 6
ENDMDL
MODEL 9
REMARK VINA RESULT:      -5.8      1.842      2.575
REMARK  Name = 
REMARK  8 active torsions:
REMARK  status: ('A' for Active; 'I' for Inactive)
REMARK    1  A    between atoms: C_1  and  O_2
REMARK    2  A    between atoms: O_2  and  C_3
REMARK    3  A    between atoms: C_6  and  O_7
REMARK    4  A    between atoms: O_7  and  C_8
REMARK    5  A    between atoms: C_8  and  C_9
REMARK    6  A    between atoms: C_9  and  S_11
REMARK    7  A    between atoms: S_11  and  C_12
REMARK    8  A    between atoms: C_15  and  C_16
REMARK                            x       y       z     vdW  Elec       q    Type
REMARK                         _______ _______ _______ _____ _____    ______ ____
ROOT
ATOM      1  C   UNL     1       3.621   3.109  19.032  0.00  0.00    +0.000 C 
ENDROOT
BRANCH   1   2
ATOM      2  C   UNL     1       2.282   3.784  19.313  0.00  0.00    +0.000 C 
ATOM      3  O   UNL     1       1.272   3.661  18.630  0.00  0.00    +0.000 OA
BRANCH   2   4
ATOM      4  S   UNL     1       2.291   4.849  20.720  0.00  0.00    +0.000 S 
BRANCH   4   5
ATOM      5  C   UNL     1       2.098   6.457  19.970  0.00  0.00    +0.000 A 
ATOM      6  C   UNL     1       2.530   6.625  18.648  0.00  0.00    +0.000 A 
ATOM      7  C   UNL     1       2.396   7.862  18.006  0.00  0.00    +0.000 A 
ATOM      8  C   UNL     1       1.827   8.948  18.674  0.00  0.00    +0.000 A 
ATOM      9  C   UNL     1       1.678  10.284  18.005  0.00  0.00    +0.000 C 
ATOM     10  C   UNL     1       1.381   8.777  19.989  0.00  0.00    +0.000 A 
ATOM     11  C   UNL     1       1.509   7.540  20.628  0.00  0.00    +0.000 A 
ENDBRANCH   4   5
ENDBRANCH   2   4
ENDBRANCH   1   2
BRANCH   1  12
ATOM     12  O   UNL     1       4.119   3.318  17.716  0.00  0.00    +0.000 OA
BRANCH  12  16
ATOM     13  C   UNL     1       6.954   6.300  17.038  0.00  0.00    +0.000 A 
ATOM     14  C   UNL     1       5.909   6.053  16.149  0.00  0.00    +0.000 A 
ATOM     15  C   UNL     1       4.972   5.054  16.421  0.00  0.00    +0.000 A 
ATOM     16  C   UNL     1       5.093   4.265  17.566  0.00  0.00    +0.000 A 
ATOM     17  C   UNL     1       6.136   4.511  18.457  0.00  0.00    +0.000 A 
ATOM     18  C   UNL     1       7.068   5.522  18.190  0.00  0.00    +0.000 A 
BRANCH  13  20
ATOM     19  C   UNL     1       7.858   8.424  17.536  0.00  0.00    +0.000 C 
ATOM     20  O   UNL     1       7.817   7.295  16.669  0.00  0.00    +0.000 OA
ENDBRANCH  13  20
ENDBRANCH  12  16
ENDBRANCH   1  12
TORSDOF 6
ENDMDL
