MODEL 1
REMARK VINA RESULT:      -8.8      0.000      0.000
REMARK  Name = 
REMARK  12 active torsions:
REMARK  status: ('A' for Active; 'I' for Inactive)
REMARK    1  A    between atoms: C_1  and  C_2
REMARK    2  A    between atoms: C_2  and  C_3
REMARK    3  A    between atoms: C_2  and  C_24
REMARK    4  A    between atoms: C_2  and  S_28
REMARK    5  A    between atoms: C_3  and  C_4
REMARK    6  A    between atoms: C_4  and  C_5
REMARK    7  A    between atoms: C_8  and  O_9
REMARK    8  A    between atoms: O_9  and  C_10
REMARK    9  A    between atoms: C_10  and  C_11
REMARK   10  A    between atoms: C_13  and  C_14
REMARK   11  A    between atoms: N_26  and  O_27
REMARK   12  A    between atoms: S_28  and  C_29
REMARK                            x       y       z     vdW  Elec       q    Type
REMARK                         _______ _______ _______ _____ _____    ______ ____
ROOT
ATOM      1  C   UNL     1       2.887   6.920  18.279  0.00  0.00    +0.000 A 
ATOM      2  C   UNL     1       2.573   8.100  17.595  0.00  0.00    +0.000 A 
ATOM      3  C   UNL     1       1.891   9.127  18.234  0.00  0.00    +0.000 A 
ATOM      4  C   UNL     1       1.464   8.965  19.548  0.00  0.00    +0.000 A 
ATOM      5  C   UNL     1       1.777   7.798  20.244  0.00  0.00    +0.000 A 
ATOM      6  C   UNL     1       2.488   6.774  19.610  0.00  0.00    +0.000 A 
ENDROOT
BRANCH   1   7
ATOM      7  C   UNL     1       3.658   5.841  17.563  0.00  0.00    +0.000 C 
BRANCH   7   8
ATOM      8  C   UNL     1       4.925   6.418  16.913  0.00  0.00    +0.000 C 
BRANCH   8  10
ATOM      9  C   UNL     1       5.975   5.131  18.826  0.00  0.00    +0.000 C 
ATOM     10  C   UNL     1       6.249   5.935  17.543  0.00  0.00    +0.000 C 
BRANCH  10  11
ATOM     11  C   UNL     1       7.165   7.118  17.828  0.00  0.00    +0.000 C 
ATOM     12  O   UNL     1       7.109   8.171  17.190  0.00  0.00    +0.000 OA
ATOM     13  N   UNL     1       8.112   6.943  18.812  0.00  0.00    +0.000 N 
ATOM     14  H   UNL     1       7.956   6.311  19.605  0.00  0.00    +0.000 HD
BRANCH  13  15
ATOM     15  O   UNL     1       8.924   8.071  19.076  0.00  0.00    +0.000 OA
ATOM     16  H   UNL     1       9.194   7.933  20.009  0.00  0.00    +0.000 HD
ENDBRANCH  13  15
ENDBRANCH  10  11
BRANCH  10  17
ATOM     17  S   UNL     1       7.095   4.880  16.334  0.00  0.00    +0.000 S 
ATOM     18  C   UNL     1       5.893   3.693  15.771  0.00  0.00    +0.000 C 
ATOM     19  O   UNL     1       7.451   5.700  15.190  0.00  0.00    +0.000 OA
ATOM     20  O   UNL     1       8.127   4.145  17.042  0.00  0.00    +0.000 OA
ENDBRANCH  10  17
ENDBRANCH   8  10
ENDBRANCH   7   8
ENDBRANCH   1   7
BRANCH   4  21
ATOM     21  O   UNL     1       0.732   9.897  20.231  0.00  0.00    +0.000 OA
BRANCH  21  22
ATOM     22  C   UNL     1       0.517  11.112  19.505  0.00  0.00    +0.000 C 
BRANCH  22  23
ATOM     23  C   UNL     1      -0.934  11.267  19.156  0.00  0.00    +0.000 A 
ATOM     24  C   UNL     1      -1.444  10.815  17.930  0.00  0.00    +0.000 A 
ATOM     25  C   UNL     1      -2.773  11.070  17.564  0.00  0.00    +0.000 A 
ATOM     26  C   UNL     1      -3.600  11.772  18.455  0.00  0.00    +0.000 A 
ATOM     27  C   UNL     1      -3.097  12.229  19.676  0.00  0.00    +0.000 A 
ATOM     28  C   UNL     1      -1.772  11.984  20.013  0.00  0.00    +0.000 A 
ATOM     29  F   UNL     1      -1.288  12.478  21.161  0.00  0.00    +0.000 F 
BRANCH  25  30
ATOM     30  C   UNL     1      -3.293  10.627  16.218  0.00  0.00    +0.000 C 
ATOM     31  F   UNL     1      -4.594  10.965  15.998  0.00  0.00    +0.000 F 
ATOM     32  F   UNL     1      -2.587  11.157  15.183  0.00  0.00    +0.000 F 
ATOM     33  F   UNL     1      -3.231   9.275  16.062  0.00  0.00    +0.000 F 
ENDBRANCH  25  30
ENDBRANCH  22  23
ENDBRANCH  21  22
ENDBRANCH   4  21
TORSDOF 10
ENDMDL
MODEL 2
REMARK VINA RESULT:      -8.6      1.889      2.780
REMARK  Name = 
REMARK  12 active torsions:
REMARK  status: ('A' for Active; 'I' for Inactive)
REMARK    1  A    between atoms: C_1  and  C_2
REMARK    2  A    between atoms: C_2  and  C_3
REMARK    3  A    between atoms: C_2  and  C_24
REMARK    4  A    between atoms: C_2  and  S_28
REMARK    5  A    between atoms: C_3  and  C_4
REMARK    6  A    between atoms: C_4  and  C_5
REMARK    7  A    between atoms: C_8  and  O_9
REMARK    8  A    between atoms: O_9  and  C_10
REMARK    9  A    between atoms: C_10  and  C_11
REMARK   10  A    between atoms: C_13  and  C_14
REMARK   11  A    between atoms: N_26  and  O_27
REMARK   12  A    between atoms: S_28  and  C_29
REMARK                            x       y       z     vdW  Elec       q    Type
REMARK                         _______ _______ _______ _____ _____    ______ ____
ROOT
ATOM      1  C   UNL     1       2.356   7.565  18.545  0.00  0.00    +0.000 A 
ATOM      2  C   UNL     1       1.867   8.690  17.871  0.00  0.00    +0.000 A 
ATOM      3  C   UNL     1       1.145   9.662  18.551  0.00  0.00    +0.000 A 
ATOM      4  C   UNL     1       0.853   9.495  19.901  0.00  0.00    +0.000 A 
ATOM      5  C   UNL     1       1.340   8.382  20.586  0.00  0.00    +0.000 A 
ATOM      6  C   UNL     1       2.091   7.416  19.909  0.00  0.00    +0.000 A 
ENDROOT
BRANCH   1   7
ATOM      7  C   UNL     1       3.165   6.548  17.783  0.00  0.00    +0.000 C 
BRANCH   7   8
ATOM      8  C   UNL     1       4.412   6.136  18.580  0.00  0.00    +0.000 C 
BRANCH   8  10
ATOM      9  C   UNL     1       5.279   5.311  16.348  0.00  0.00    +0.000 C 
ATOM     10  C   UNL     1       5.318   5.106  17.872  0.00  0.00    +0.000 C 
BRANCH  10  11
ATOM     11  C   UNL     1       4.902   3.688  18.241  0.00  0.00    +0.000 C 
ATOM     12  O   UNL     1       4.149   3.011  17.537  0.00  0.00    +0.000 OA
ATOM     13  N   UNL     1       5.370   3.199  19.440  0.00  0.00    +0.000 N 
ATOM     14  H   UNL     1       6.262   3.510  19.838  0.00  0.00    +0.000 HD
BRANCH  13  15
ATOM     15  O   UNL     1       4.994   1.868  19.737  0.00  0.00    +0.000 OA
ATOM     16  H   UNL     1       5.855   1.399  19.770  0.00  0.00    +0.000 HD
ENDBRANCH  13  15
ENDBRANCH  10  11
BRANCH  10  17
ATOM     17  S   UNL     1       7.013   5.341  18.473  0.00  0.00    +0.000 S 
ATOM     18  C   UNL     1       7.562   6.910  17.834  0.00  0.00    +0.000 C 
ATOM     19  O   UNL     1       6.967   5.464  19.919  0.00  0.00    +0.000 OA
ATOM     20  O   UNL     1       7.839   4.316  17.862  0.00  0.00    +0.000 OA
ENDBRANCH  10  17
ENDBRANCH   8  10
ENDBRANCH   7   8
ENDBRANCH   1   7
BRANCH   4  21
ATOM     21  O   UNL     1       0.095  10.369  20.630  0.00  0.00    +0.000 OA
BRANCH  21  22
ATOM     22  C   UNL     1      -0.185  11.599  19.953  0.00  0.00    +0.000 C 
BRANCH  22  23
ATOM     23  C   UNL     1      -1.665  11.829  19.869  0.00  0.00    +0.000 A 
ATOM     24  C   UNL     1      -2.400  11.451  18.735  0.00  0.00    +0.000 A 
ATOM     25  C   UNL     1      -3.758  11.776  18.616  0.00  0.00    +0.000 A 
ATOM     26  C   UNL     1      -4.384  12.474  19.662  0.00  0.00    +0.000 A 
ATOM     27  C   UNL     1      -3.656  12.858  20.791  0.00  0.00    +0.000 A 
ATOM     28  C   UNL     1      -2.306  12.544  20.882  0.00  0.00    +0.000 A 
ATOM     29  F   UNL     1      -1.608  12.969  21.944  0.00  0.00    +0.000 F 
BRANCH  25  30
ATOM     30  C   UNL     1      -4.524  11.412  17.367  0.00  0.00    +0.000 C 
ATOM     31  F   UNL     1      -3.747  10.865  16.391  0.00  0.00    +0.000 F 
ATOM     32  F   UNL     1      -5.517  10.515  17.604  0.00  0.00    +0.000 F 
ATOM     33  F   UNL     1      -5.122  12.495  16.798  0.00  0.00    +0.000 F 
ENDBRANCH  25  30
ENDBRANCH  22  23
ENDBRANCH  21  22
ENDBRANCH   4  21
TORSDOF 10
ENDMDL
MODEL 3
REMARK VINA RESULT:      -8.5      2.189      3.646
REMARK  Name = 
REMARK  12 active torsions:
REMARK  status: ('A' for Active; 'I' for Inactive)
REMARK    1  A    between atoms: C_1  and  C_2
REMARK    2  A    between atoms: C_2  and  C_3
REMARK    3  A    between atoms: C_2  and  C_24
REMARK    4  A    between atoms: C_2  and  S_28
REMARK    5  A    between atoms: C_3  and  C_4
REMARK    6  A    between atoms: C_4  and  C_5
REMARK    7  A    between atoms: C_8  and  O_9
REMARK    8  A    between atoms: O_9  and  C_10
REMARK    9  A    between atoms: C_10  and  C_11
REMARK   10  A    between atoms: C_13  and  C_14
REMARK   11  A    between atoms: N_26  and  O_27
REMARK   12  A    between atoms: S_28  and  C_29
REMARK                            x       y       z     vdW  Elec       q    Type
REMARK                         _______ _______ _______ _____ _____    ______ ____
ROOT
ATOM      1  C   UNL     1       2.278   7.339  18.838  0.00  0.00    +0.000 A 
ATOM      2  C   UNL     1       1.818   7.531  20.146  0.00  0.00    +0.000 A 
ATOM      3  C   UNL     1       1.149   8.696  20.496  0.00  0.00    +0.000 A 
ATOM      4  C   UNL     1       0.980   9.709  19.559  0.00  0.00    +0.000 A 
ATOM      5  C   UNL     1       1.426   9.529  18.250  0.00  0.00    +0.000 A 
ATOM      6  C   UNL     1       2.077   8.345  17.889  0.00  0.00    +0.000 A 
ENDROOT
BRANCH   1   7
ATOM      7  C   UNL     1       2.970   6.048  18.486  0.00  0.00    +0.000 C 
BRANCH   7   8
ATOM      8  C   UNL     1       4.475   6.140  18.779  0.00  0.00    +0.000 C 
BRANCH   8  10
ATOM      9  C   UNL     1       5.249   5.498  16.454  0.00  0.00    +0.000 C 
ATOM     10  C   UNL     1       5.352   5.173  17.954  0.00  0.00    +0.000 C 
BRANCH  10  11
ATOM     11  C   UNL     1       4.953   3.729  18.226  0.00  0.00    +0.000 C 
ATOM     12  O   UNL     1       4.271   3.069  17.440  0.00  0.00    +0.000 OA
ATOM     13  N   UNL     1       5.351   3.195  19.431  0.00  0.00    +0.000 N 
ATOM     14  H   UNL     1       6.204   3.509  19.905  0.00  0.00    +0.000 HD
BRANCH  13  15
ATOM     15  O   UNL     1       4.994   1.842  19.638  0.00  0.00    +0.000 OA
ATOM     16  H   UNL     1       5.386   1.390  18.860  0.00  0.00    +0.000 HD
ENDBRANCH  13  15
ENDBRANCH  10  11
BRANCH  10  17
ATOM     17  S   UNL     1       7.071   5.367  18.501  0.00  0.00    +0.000 S 
ATOM     18  C   UNL     1       7.628   6.936  17.869  0.00  0.00    +0.000 C 
ATOM     19  O   UNL     1       7.075   5.467  19.950  0.00  0.00    +0.000 OA
ATOM     20  O   UNL     1       7.856   4.337  17.847  0.00  0.00    +0.000 OA
ENDBRANCH  10  17
ENDBRANCH   8  10
ENDBRANCH   7   8
ENDBRANCH   1   7
BRANCH   4  21
ATOM     21  O   UNL     1       0.391  10.912  19.835  0.00  0.00    +0.000 OA
BRANCH  21  22
ATOM     22  C   UNL     1      -0.049  11.624  18.673  0.00  0.00    +0.000 C 
BRANCH  22  23
ATOM     23  C   UNL     1      -1.547  11.617  18.589  0.00  0.00    +0.000 A 
ATOM     24  C   UNL     1      -2.333  12.371  19.474  0.00  0.00    +0.000 A 
ATOM     25  C   UNL     1      -3.731  12.267  19.464  0.00  0.00    +0.000 A 
ATOM     26  C   UNL     1      -4.341  11.405  18.538  0.00  0.00    +0.000 A 
ATOM     27  C   UNL     1      -3.564  10.648  17.657  0.00  0.00    +0.000 A 
ATOM     28  C   UNL     1      -2.179  10.750  17.695  0.00  0.00    +0.000 A 
ATOM     29  F   UNL     1      -1.445   9.975  16.885  0.00  0.00    +0.000 F 
BRANCH  25  30
ATOM     30  C   UNL     1      -4.561  13.041  20.458  0.00  0.00    +0.000 C 
ATOM     31  F   UNL     1      -5.765  13.446  19.965  0.00  0.00    +0.000 F 
ATOM     32  F   UNL     1      -4.838  12.324  21.580  0.00  0.00    +0.000 F 
ATOM     33  F   UNL     1      -3.935  14.174  20.879  0.00  0.00    +0.000 F 
ENDBRANCH  25  30
ENDBRANCH  22  23
ENDBRANCH  21  22
ENDBRANCH   4  21
TORSDOF 10
ENDMDL
MODEL 4
REMARK VINA RESULT:      -8.4      1.667      3.229
REMARK  Name = 
REMARK  12 active torsions:
REMARK  status: ('A' for Active; 'I' for Inactive)
REMARK    1  A    between atoms: C_1  and  C_2
REMARK    2  A    between atoms: C_2  and  C_3
REMARK    3  A    between atoms: C_2  and  C_24
REMARK    4  A    between atoms: C_2  and  S_28
REMARK    5  A    between atoms: C_3  and  C_4
REMARK    6  A    between atoms: C_4  and  C_5
REMARK    7  A    between atoms: C_8  and  O_9
REMARK    8  A    between atoms: O_9  and  C_10
REMARK    9  A    between atoms: C_10  and  C_11
REMARK   10  A    between atoms: C_13  and  C_14
REMARK   11  A    between atoms: N_26  and  O_27
REMARK   12  A    between atoms: S_28  and  C_29
REMARK                            x       y       z     vdW  Elec       q    Type
REMARK                         _______ _______ _______ _____ _____    ______ ____
ROOT
ATOM      1  C   UNL     1       2.454   7.168  18.401  0.00  0.00    +0.000 A 
ATOM      2  C   UNL     1       2.190   7.150  19.776  0.00  0.00    +0.000 A 
ATOM      3  C   UNL     1       1.520   8.206  20.379  0.00  0.00    +0.000 A 
ATOM      4  C   UNL     1       1.155   9.318  19.629  0.00  0.00    +0.000 A 
ATOM      5  C   UNL     1       1.405   9.346  18.257  0.00  0.00    +0.000 A 
ATOM      6  C   UNL     1       2.057   8.271  17.642  0.00  0.00    +0.000 A 
ENDROOT
BRANCH   1   7
ATOM      7  C   UNL     1       3.154   5.990  17.774  0.00  0.00    +0.000 C 
BRANCH   7   8
ATOM      8  C   UNL     1       4.643   6.295  17.554  0.00  0.00    +0.000 C 
BRANCH   8  10
ATOM      9  C   UNL     1       4.777   3.811  17.075  0.00  0.00    +0.000 C 
ATOM     10  C   UNL     1       5.560   5.053  17.537  0.00  0.00    +0.000 C 
BRANCH  10  11
ATOM     11  C   UNL     1       6.176   4.827  18.911  0.00  0.00    +0.000 C 
ATOM     12  O   UNL     1       5.714   4.023  19.723  0.00  0.00    +0.000 OA
ATOM     13  N   UNL     1       7.264   5.606  19.235  0.00  0.00    +0.000 N 
ATOM     14  H   UNL     1       7.909   5.958  18.520  0.00  0.00    +0.000 HD
BRANCH  13  15
ATOM     15  O   UNL     1       7.834   5.348  20.504  0.00  0.00    +0.000 OA
ATOM     16  H   UNL     1       8.487   4.641  20.312  0.00  0.00    +0.000 HD
ENDBRANCH  13  15
ENDBRANCH  10  11
BRANCH  10  17
ATOM     17  S   UNL     1       6.922   5.375  16.384  0.00  0.00    +0.000 S 
ATOM     18  C   UNL     1       6.292   5.042  14.752  0.00  0.00    +0.000 C 
ATOM     19  O   UNL     1       7.234   6.792  16.438  0.00  0.00    +0.000 OA
ATOM     20  O   UNL     1       7.961   4.398  16.651  0.00  0.00    +0.000 OA
ENDBRANCH  10  17
ENDBRANCH   8  10
ENDBRANCH   7   8
ENDBRANCH   1   7
BRANCH   4  21
ATOM     21  O   UNL     1       0.551  10.427  20.154  0.00  0.00    +0.000 OA
BRANCH  21  22
ATOM     22  C   UNL     1       0.233  11.430  19.183  0.00  0.00    +0.000 C 
BRANCH  22  23
ATOM     23  C   UNL     1      -1.233  11.748  19.216  0.00  0.00    +0.000 A 
ATOM     24  C   UNL     1      -1.811  12.420  20.303  0.00  0.00    +0.000 A 
ATOM     25  C   UNL     1      -3.198  12.607  20.380  0.00  0.00    +0.000 A 
ATOM     26  C   UNL     1      -4.007  12.126  19.337  0.00  0.00    +0.000 A 
ATOM     27  C   UNL     1      -3.438  11.451  18.254  0.00  0.00    +0.000 A 
ATOM     28  C   UNL     1      -2.063  11.258  18.206  0.00  0.00    +0.000 A 
ATOM     29  F   UNL     1      -1.538  10.559  17.191  0.00  0.00    +0.000 F 
BRANCH  25  30
ATOM     30  C   UNL     1      -3.813  13.283  21.581  0.00  0.00    +0.000 C 
ATOM     31  F   UNL     1      -3.079  14.329  22.054  0.00  0.00    +0.000 F 
ATOM     32  F   UNL     1      -5.053  13.780  21.326  0.00  0.00    +0.000 F 
ATOM     33  F   UNL     1      -3.959  12.429  22.632  0.00  0.00    +0.000 F 
ENDBRANCH  25  30
ENDBRANCH  22  23
ENDBRANCH  21  22
ENDBRANCH   4  21
TORSDOF 10
ENDMDL
MODEL 5
REMARK VINA RESULT:      -8.3      1.639      2.496
REMARK  Name = 
REMARK  12 active torsions:
REMARK  status: ('A' for Active; 'I' for Inactive)
REMARK    1  A    between atoms: C_1  and  C_2
REMARK    2  A    between atoms: C_2  and  C_3
REMARK    3  A    between atoms: C_2  and  C_24
REMARK    4  A    between atoms: C_2  and  S_28
REMARK    5  A    between atoms: C_3  and  C_4
REMARK    6  A    between atoms: C_4  and  C_5
REMARK    7  A    between atoms: C_8  and  O_9
REMARK    8  A    between atoms: O_9  and  C_10
REMARK    9  A    between atoms: C_10  and  C_11
REMARK   10  A    between atoms: C_13  and  C_14
REMARK   11  A    between atoms: N_26  and  O_27
REMARK   12  A    between atoms: S_28  and  C_29
REMARK                            x       y       z     vdW  Elec       q    Type
REMARK                         _______ _______ _______ _____ _____    ______ ____
ROOT
ATOM      1  C   UNL     1       2.488   7.920  18.207  0.00  0.00    +0.000 A 
ATOM      2  C   UNL     1       2.086   7.571  19.502  0.00  0.00    +0.000 A 
ATOM      3  C   UNL     1       1.370   8.467  20.284  0.00  0.00    +0.000 A 
ATOM      4  C   UNL     1       1.096   9.744  19.806  0.00  0.00    +0.000 A 
ATOM      5  C   UNL     1       1.484  10.102  18.515  0.00  0.00    +0.000 A 
ATOM      6  C   UNL     1       2.182   9.191  17.715  0.00  0.00    +0.000 A 
ENDROOT
BRANCH   1   7
ATOM      7  C   UNL     1       3.234   6.910  17.374  0.00  0.00    +0.000 C 
BRANCH   7   8
ATOM      8  C   UNL     1       4.717   6.864  17.773  0.00  0.00    +0.000 C 
BRANCH   8  10
ATOM      9  C   UNL     1       4.867   4.764  16.364  0.00  0.00    +0.000 C 
ATOM     10  C   UNL     1       5.380   5.477  17.627  0.00  0.00    +0.000 C 
BRANCH  10  11
ATOM     11  C   UNL     1       5.128   4.633  18.869  0.00  0.00    +0.000 C 
ATOM     12  O   UNL     1       4.665   5.103  19.910  0.00  0.00    +0.000 OA
ATOM     13  N   UNL     1       5.491   3.307  18.798  0.00  0.00    +0.000 N 
ATOM     14  H   UNL     1       5.485   2.792  17.912  0.00  0.00    +0.000 HD
BRANCH  13  15
ATOM     15  O   UNL     1       5.213   2.543  19.956  0.00  0.00    +0.000 OA
ATOM     16  H   UNL     1       6.095   2.454  20.378  0.00  0.00    +0.000 HD
ENDBRANCH  13  15
ENDBRANCH  10  11
BRANCH  10  17
ATOM     17  S   UNL     1       7.173   5.722  17.500  0.00  0.00    +0.000 S 
ATOM     18  C   UNL     1       7.763   6.006  19.156  0.00  0.00    +0.000 C 
ATOM     19  O   UNL     1       7.768   4.479  17.045  0.00  0.00    +0.000 OA
ATOM     20  O   UNL     1       7.395   6.945  16.749  0.00  0.00    +0.000 OA
ENDBRANCH  10  17
ENDBRANCH   8  10
ENDBRANCH   7   8
ENDBRANCH   1   7
BRANCH   4  21
ATOM     21  O   UNL     1       0.455  10.708  20.532  0.00  0.00    +0.000 OA
BRANCH  21  22
ATOM     22  C   UNL     1       0.078  11.858  19.767  0.00  0.00    +0.000 C 
BRANCH  22  23
ATOM     23  C   UNL     1      -1.365  11.772  19.363  0.00  0.00    +0.000 A 
ATOM     24  C   UNL     1      -1.746  11.245  18.121  0.00  0.00    +0.000 A 
ATOM     25  C   UNL     1      -3.084  11.277  17.704  0.00  0.00    +0.000 A 
ATOM     26  C   UNL     1      -4.049  11.832  18.561  0.00  0.00    +0.000 A 
ATOM     27  C   UNL     1      -3.674  12.364  19.798  0.00  0.00    +0.000 A 
ATOM     28  C   UNL     1      -2.340  12.340  20.184  0.00  0.00    +0.000 A 
ATOM     29  F   UNL     1      -1.988  12.905  21.347  0.00  0.00    +0.000 F 
BRANCH  25  30
ATOM     30  C   UNL     1      -3.473  10.757  16.342  0.00  0.00    +0.000 C 
ATOM     31  F   UNL     1      -2.778  11.330  15.320  0.00  0.00    +0.000 F 
ATOM     32  F   UNL     1      -3.283   9.416  16.219  0.00  0.00    +0.000 F 
ATOM     33  F   UNL     1      -4.788  10.979  16.063  0.00  0.00    +0.000 F 
ENDBRANCH  25  30
ENDBRANCH  22  23
ENDBRANCH  21  22
ENDBRANCH   4  21
TORSDOF 10
ENDMDL
MODEL 6
REMARK VINA RESULT:      -8.3      2.869      3.927
REMARK  Name = 
REMARK  12 active torsions:
REMARK  status: ('A' for Active; 'I' for Inactive)
REMARK    1  A    between atoms: C_1  and  C_2
REMARK    2  A    between atoms: C_2  and  C_3
REMARK    3  A    between atoms: C_2  and  C_24
REMARK    4  A    between atoms: C_2  and  S_28
REMARK    5  A    between atoms: C_3  and  C_4
REMARK    6  A    between atoms: C_4  and  C_5
REMARK    7  A    between atoms: C_8  and  O_9
REMARK    8  A    between atoms: O_9  and  C_10
REMARK    9  A    between atoms: C_10  and  C_11
REMARK   10  A    between atoms: C_13  and  C_14
REMARK   11  A    between atoms: N_26  and  O_27
REMARK   12  A    between atoms: S_28  and  C_29
REMARK                            x       y       z     vdW  Elec       q    Type
REMARK                         _______ _______ _______ _____ _____    ______ ____
ROOT
ATOM      1  C   UNL     1       2.364   7.788  18.726  0.00  0.00    +0.000 A 
ATOM      2  C   UNL     1       1.915   8.727  17.790  0.00  0.00    +0.000 A 
ATOM      3  C   UNL     1       1.041   9.737  18.167  0.00  0.00    +0.000 A 
ATOM      4  C   UNL     1       0.560   9.790  19.471  0.00  0.00    +0.000 A 
ATOM      5  C   UNL     1       1.005   8.866  20.416  0.00  0.00    +0.000 A 
ATOM      6  C   UNL     1       1.906   7.863  20.044  0.00  0.00    +0.000 A 
ENDROOT
BRANCH   1   7
ATOM      7  C   UNL     1       3.339   6.725  18.289  0.00  0.00    +0.000 C 
BRANCH   7   8
ATOM      8  C   UNL     1       2.617   5.391  18.049  0.00  0.00    +0.000 C 
BRANCH   8  10
ATOM      9  C   UNL     1       2.976   4.242  20.279  0.00  0.00    +0.000 C 
ATOM     10  C   UNL     1       3.251   4.179  18.767  0.00  0.00    +0.000 C 
BRANCH  10  11
ATOM     11  C   UNL     1       4.747   4.117  18.488  0.00  0.00    +0.000 C 
ATOM     12  O   UNL     1       5.594   4.319  19.360  0.00  0.00    +0.000 OA
ATOM     13  N   UNL     1       5.123   3.870  17.187  0.00  0.00    +0.000 N 
ATOM     14  H   UNL     1       4.538   3.319  16.551  0.00  0.00    +0.000 HD
BRANCH  13  15
ATOM     15  O   UNL     1       6.518   3.786  16.968  0.00  0.00    +0.000 OA
ATOM     16  H   UNL     1       6.580   3.236  16.158  0.00  0.00    +0.000 HD
ENDBRANCH  13  15
ENDBRANCH  10  11
BRANCH  10  17
ATOM     17  S   UNL     1       2.514   2.670  18.078  0.00  0.00    +0.000 S 
ATOM     18  C   UNL     1       0.967   2.431  18.927  0.00  0.00    +0.000 C 
ATOM     19  O   UNL     1       2.200   2.917  16.683  0.00  0.00    +0.000 OA
ATOM     20  O   UNL     1       3.378   1.560  18.437  0.00  0.00    +0.000 OA
ENDBRANCH  10  17
ENDBRANCH   8  10
ENDBRANCH   7   8
ENDBRANCH   1   7
BRANCH   4  21
ATOM     21  O   UNL     1      -0.351  10.711  19.910  0.00  0.00    +0.000 OA
BRANCH  21  22
ATOM     22  C   UNL     1      -0.662  11.725  18.949  0.00  0.00    +0.000 C 
BRANCH  22  23
ATOM     23  C   UNL     1      -2.142  11.792  18.713  0.00  0.00    +0.000 A 
ATOM     24  C   UNL     1      -3.017  12.278  19.696  0.00  0.00    +0.000 A 
ATOM     25  C   UNL     1      -4.406  12.227  19.513  0.00  0.00    +0.000 A 
ATOM     26  C   UNL     1      -4.914  11.693  18.317  0.00  0.00    +0.000 A 
ATOM     27  C   UNL     1      -4.047  11.202  17.337  0.00  0.00    +0.000 A 
ATOM     28  C   UNL     1      -2.675  11.245  17.545  0.00  0.00    +0.000 A 
ATOM     29  F   UNL     1      -1.859  10.717  16.622  0.00  0.00    +0.000 F 
BRANCH  25  30
ATOM     30  C   UNL     1      -5.338  12.703  20.601  0.00  0.00    +0.000 C 
ATOM     31  F   UNL     1      -6.424  11.900  20.778  0.00  0.00    +0.000 F 
ATOM     32  F   UNL     1      -4.729  12.784  21.814  0.00  0.00    +0.000 F 
ATOM     33  F   UNL     1      -5.835  13.945  20.345  0.00  0.00    +0.000 F 
ENDBRANCH  25  30
ENDBRANCH  22  23
ENDBRANCH  21  22
ENDBRANCH   4  21
TORSDOF 10
ENDMDL
MODEL 7
REMARK VINA RESULT:      -8.2      1.644      2.267
REMARK  Name = 
REMARK  12 active torsions:
REMARK  status: ('A' for Active; 'I' for Inactive)
REMARK    1  A    between atoms: C_1  and  C_2
REMARK    2  A    between atoms: C_2  and  C_3
REMARK    3  A    between atoms: C_2  and  C_24
REMARK    4  A    between atoms: C_2  and  S_28
REMARK    5  A    between atoms: C_3  and  C_4
REMARK    6  A    between atoms: C_4  and  C_5
REMARK    7  A    between atoms: C_8  and  O_9
REMARK    8  A    between atoms: O_9  and  C_10
REMARK    9  A    between atoms: C_10  and  C_11
REMARK   10  A    between atoms: C_13  and  C_14
REMARK   11  A    between atoms: N_26  and  O_27
REMARK   12  A    between atoms: S_28  and  C_29
REMARK                            x       y       z     vdW  Elec       q    Type
REMARK                         _______ _______ _______ _____ _____    ______ ____
ROOT
ATOM      1  C   UNL     1       2.983   7.760  17.969  0.00  0.00    +0.000 A 
ATOM      2  C   UNL     1       2.825   7.115  19.202  0.00  0.00    +0.000 A 
ATOM      3  C   UNL     1       1.931   7.605  20.145  0.00  0.00    +0.000 A 
ATOM      4  C   UNL     1       1.226   8.777  19.892  0.00  0.00    +0.000 A 
ATOM      5  C   UNL     1       1.368   9.425  18.666  0.00  0.00    +0.000 A 
ATOM      6  C   UNL     1       2.248   8.918  17.704  0.00  0.00    +0.000 A 
ENDROOT
BRANCH   1   7
ATOM      7  C   UNL     1       3.937   7.182  16.956  0.00  0.00    +0.000 C 
BRANCH   7   8
ATOM      8  C   UNL     1       5.208   6.658  17.642  0.00  0.00    +0.000 C 
BRANCH   8  10
ATOM      9  C   UNL     1       4.437   4.547  16.473  0.00  0.00    +0.000 C 
ATOM     10  C   UNL     1       5.519   5.170  17.372  0.00  0.00    +0.000 C 
BRANCH  10  11
ATOM     11  C   UNL     1       5.643   4.405  18.682  0.00  0.00    +0.000 C 
ATOM     12  O   UNL     1       6.204   4.874  19.675  0.00  0.00    +0.000 OA
ATOM     13  N   UNL     1       5.139   3.124  18.700  0.00  0.00    +0.000 N 
ATOM     14  H   UNL     1       4.352   2.845  18.105  0.00  0.00    +0.000 HD
BRANCH  13  15
ATOM     15  O   UNL     1       5.240   2.453  19.942  0.00  0.00    +0.000 OA
ATOM     16  H   UNL     1       5.159   3.183  20.593  0.00  0.00    +0.000 HD
ENDBRANCH  13  15
ENDBRANCH  10  11
BRANCH  10  17
ATOM     17  S   UNL     1       7.128   5.075  16.540  0.00  0.00    +0.000 S 
ATOM     18  C   UNL     1       6.832   4.326  14.952  0.00  0.00    +0.000 C 
ATOM     19  O   UNL     1       7.589   6.429  16.292  0.00  0.00    +0.000 OA
ATOM     20  O   UNL     1       7.959   4.158  17.300  0.00  0.00    +0.000 OA
ENDBRANCH  10  17
ENDBRANCH   8  10
ENDBRANCH   7   8
ENDBRANCH   1   7
BRANCH   4  21
ATOM     21  O   UNL     1       0.376   9.362  20.790  0.00  0.00    +0.000 OA
BRANCH  21  22
ATOM     22  C   UNL     1       0.374  10.793  20.739  0.00  0.00    +0.000 C 
BRANCH  22  23
ATOM     23  C   UNL     1      -0.986  11.305  20.369  0.00  0.00    +0.000 A 
ATOM     24  C   UNL     1      -1.577  10.988  19.137  0.00  0.00    +0.000 A 
ATOM     25  C   UNL     1      -2.794  11.565  18.751  0.00  0.00    +0.000 A 
ATOM     26  C   UNL     1      -3.430  12.460  19.627  0.00  0.00    +0.000 A 
ATOM     27  C   UNL     1      -2.844  12.784  20.854  0.00  0.00    +0.000 A 
ATOM     28  C   UNL     1      -1.627  12.216  21.210  0.00  0.00    +0.000 A 
ATOM     29  F   UNL     1      -1.050  12.581  22.363  0.00  0.00    +0.000 F 
BRANCH  25  30
ATOM     30  C   UNL     1      -3.392  11.258  17.399  0.00  0.00    +0.000 C 
ATOM     31  F   UNL     1      -4.550  11.930  17.149  0.00  0.00    +0.000 F 
ATOM     32  F   UNL     1      -2.552  11.563  16.374  0.00  0.00    +0.000 F 
ATOM     33  F   UNL     1      -3.694   9.938  17.259  0.00  0.00    +0.000 F 
ENDBRANCH  25  30
ENDBRANCH  22  23
ENDBRANCH  21  22
ENDBRANCH   4  21
TORSDOF 10
ENDMDL
MODEL 8
REMARK VINA RESULT:      -8.1      6.660      8.520
REMARK  Name = 
REMARK  12 active torsions:
REMARK  status: ('A' for Active; 'I' for Inactive)
REMARK    1  A    between atoms: C_1  and  C_2
REMARK    2  A    between atoms: C_2  and  C_3
REMARK    3  A    between atoms: C_2  and  C_24
REMARK    4  A    between atoms: C_2  and  S_28
REMARK    5  A    between atoms: C_3  and  C_4
REMARK    6  A    between atoms: C_4  and  C_5
REMARK    7  A    between atoms: C_8  and  O_9
REMARK    8  A    between atoms: O_9  and  C_10
REMARK    9  A    between atoms: C_10  and  C_11
REMARK   10  A    between atoms: C_13  and  C_14
REMARK   11  A    between atoms: N_26  and  O_27
REMARK   12  A    between atoms: S_28  and  C_29
REMARK                            x       y       z     vdW  Elec       q    Type
REMARK                         _______ _______ _______ _____ _____    ______ ____
ROOT
ATOM      1  C   UNL     1       7.917   8.400  17.854  0.00  0.00    +0.000 A 
ATOM      2  C   UNL     1       6.787   7.888  17.206  0.00  0.00    +0.000 A 
ATOM      3  C   UNL     1       6.284   6.639  17.546  0.00  0.00    +0.000 A 
ATOM      4  C   UNL     1       6.936   5.862  18.497  0.00  0.00    +0.000 A 
ATOM      5  C   UNL     1       8.058   6.363  19.156  0.00  0.00    +0.000 A 
ATOM      6  C   UNL     1       8.551   7.632  18.834  0.00  0.00    +0.000 A 
ENDROOT
BRANCH   1   7
ATOM      7  C   UNL     1       8.415   9.773  17.484  0.00  0.00    +0.000 C 
BRANCH   7   8
ATOM      8  C   UNL     1       9.167  10.414  18.659  0.00  0.00    +0.000 C 
BRANCH   8  10
ATOM      9  C   UNL     1       8.411  12.634  17.701  0.00  0.00    +0.000 C 
ATOM     10  C   UNL     1       9.533  11.901  18.456  0.00  0.00    +0.000 C 
BRANCH  10  11
ATOM     11  C   UNL     1      10.858  12.027  17.716  0.00  0.00    +0.000 C 
ATOM     12  O   UNL     1      11.870  11.408  18.054  0.00  0.00    +0.000 OA
ATOM     13  N   UNL     1      10.896  12.913  16.664  0.00  0.00    +0.000 N 
ATOM     14  H   UNL     1      10.063  13.125  16.105  0.00  0.00    +0.000 HD
BRANCH  13  15
ATOM     15  O   UNL     1      12.131  12.982  15.977  0.00  0.00    +0.000 OA
ATOM     16  H   UNL     1      12.500  12.080  16.097  0.00  0.00    +0.000 HD
ENDBRANCH  13  15
ENDBRANCH  10  11
BRANCH  10  17
ATOM     17  S   UNL     1       9.758  12.653  20.091  0.00  0.00    +0.000 S 
ATOM     18  C   UNL     1      10.854  14.039  19.863  0.00  0.00    +0.000 C 
ATOM     19  O   UNL     1       8.479  13.190  20.521  0.00  0.00    +0.000 OA
ATOM     20  O   UNL     1      10.452  11.688  20.924  0.00  0.00    +0.000 OA
ENDBRANCH  10  17
ENDBRANCH   8  10
ENDBRANCH   7   8
ENDBRANCH   1   7
BRANCH   4  21
ATOM     21  O   UNL     1       6.547   4.597  18.845  0.00  0.00    +0.000 OA
BRANCH  21  22
ATOM     22  C   UNL     1       5.801   3.919  17.828  0.00  0.00    +0.000 C 
BRANCH  22  23
ATOM     23  C   UNL     1       4.351   3.837  18.206  0.00  0.00    +0.000 A 
ATOM     24  C   UNL     1       3.951   3.680  19.541  0.00  0.00    +0.000 A 
ATOM     25  C   UNL     1       2.603   3.485  19.872  0.00  0.00    +0.000 A 
ATOM     26  C   UNL     1       1.647   3.467  18.843  0.00  0.00    +0.000 A 
ATOM     27  C   UNL     1       2.040   3.618  17.510  0.00  0.00    +0.000 A 
ATOM     28  C   UNL     1       3.383   3.790  17.201  0.00  0.00    +0.000 A 
ATOM     29  F   UNL     1       3.751   3.875  15.915  0.00  0.00    +0.000 F 
BRANCH  25  30
ATOM     30  C   UNL     1       2.193   3.261  21.307  0.00  0.00    +0.000 C 
ATOM     31  F   UNL     1       2.330   4.367  22.092  0.00  0.00    +0.000 F 
ATOM     32  F   UNL     1       0.895   2.875  21.427  0.00  0.00    +0.000 F 
ATOM     33  F   UNL     1       2.933   2.289  21.908  0.00  0.00    +0.000 F 
ENDBRANCH  25  30
ENDBRANCH  22  23
ENDBRANCH  21  22
ENDBRANCH   4  21
TORSDOF 10
ENDMDL
MODEL 9
REMARK VINA RESULT:      -8.1      2.163      3.334
REMARK  Name = 
REMARK  12 active torsions:
REMARK  status: ('A' for Active; 'I' for Inactive)
REMARK    1  A    between atoms: C_1  and  C_2
REMARK    2  A    between atoms: C_2  and  C_3
REMARK    3  A    between atoms: C_2  and  C_24
REMARK    4  A    between atoms: C_2  and  S_28
REMARK    5  A    between atoms: C_3  and  C_4
REMARK    6  A    between atoms: C_4  and  C_5
REMARK    7  A    between atoms: C_8  and  O_9
REMARK    8  A    between atoms: O_9  and  C_10
REMARK    9  A    between atoms: C_10  and  C_11
REMARK   10  A    between atoms: C_13  and  C_14
REMARK   11  A    between atoms: N_26  and  O_27
REMARK   12  A    between atoms: S_28  and  C_29
REMARK                            x       y       z     vdW  Elec       q    Type
REMARK                         _______ _______ _______ _____ _____    ______ ____
ROOT
ATOM      1  C   UNL     1       2.679   7.396  18.920  0.00  0.00    +0.000 A 
ATOM      2  C   UNL     1       2.588   8.202  17.780  0.00  0.00    +0.000 A 
ATOM      3  C   UNL     1       1.768   9.322  17.771  0.00  0.00    +0.000 A 
ATOM      4  C   UNL     1       0.984   9.620  18.880  0.00  0.00    +0.000 A 
ATOM      5  C   UNL     1       1.070   8.829  20.026  0.00  0.00    +0.000 A 
ATOM      6  C   UNL     1       1.916   7.715  20.046  0.00  0.00    +0.000 A 
ENDROOT
BRANCH   1   7
ATOM      7  C   UNL     1       3.605   6.207  18.906  0.00  0.00    +0.000 C 
BRANCH   7   8
ATOM      8  C   UNL     1       4.589   6.298  17.730  0.00  0.00    +0.000 C 
BRANCH   8  10
ATOM      9  C   UNL     1       5.749   4.809  16.041  0.00  0.00    +0.000 C 
ATOM     10  C   UNL     1       5.478   5.051  17.536  0.00  0.00    +0.000 C 
BRANCH  10  11
ATOM     11  C   UNL     1       4.830   3.830  18.175  0.00  0.00    +0.000 C 
ATOM     12  O   UNL     1       3.760   3.363  17.781  0.00  0.00    +0.000 OA
ATOM     13  N   UNL     1       5.474   3.288  19.264  0.00  0.00    +0.000 N 
ATOM     14  H   UNL     1       6.491   3.352  19.377  0.00  0.00    +0.000 HD
BRANCH  13  15
ATOM     15  O   UNL     1       4.865   2.136  19.814  0.00  0.00    +0.000 OA
ATOM     16  H   UNL     1       3.907   2.325  19.714  0.00  0.00    +0.000 HD
ENDBRANCH  13  15
ENDBRANCH  10  11
BRANCH  10  17
ATOM     17  S   UNL     1       7.047   5.339  18.399  0.00  0.00    +0.000 S 
ATOM     18  C   UNL     1       7.665   6.904  17.815  0.00  0.00    +0.000 C 
ATOM     19  O   UNL     1       6.763   5.496  19.814  0.00  0.00    +0.000 OA
ATOM     20  O   UNL     1       7.981   4.318  17.960  0.00  0.00    +0.000 OA
ENDBRANCH  10  17
ENDBRANCH   8  10
ENDBRANCH   7   8
ENDBRANCH   1   7
BRANCH   4  21
ATOM     21  O   UNL     1       0.102  10.664  18.933  0.00  0.00    +0.000 OA
BRANCH  21  22
ATOM     22  C   UNL     1      -1.205  10.297  19.389  0.00  0.00    +0.000 C 
BRANCH  22  23
ATOM     23  C   UNL     1      -2.239  10.649  18.360  0.00  0.00    +0.000 A 
ATOM     24  C   UNL     1      -3.382  11.388  18.695  0.00  0.00    +0.000 A 
ATOM     25  C   UNL     1      -4.399  11.609  17.756  0.00  0.00    +0.000 A 
ATOM     26  C   UNL     1      -4.249  11.093  16.458  0.00  0.00    +0.000 A 
ATOM     27  C   UNL     1      -3.114  10.351  16.119  0.00  0.00    +0.000 A 
ATOM     28  C   UNL     1      -2.126  10.126  17.070  0.00  0.00    +0.000 A 
ATOM     29  F   UNL     1      -1.072   9.364  16.747  0.00  0.00    +0.000 F 
BRANCH  25  30
ATOM     30  C   UNL     1      -5.650  12.359  18.145  0.00  0.00    +0.000 C 
ATOM     31  F   UNL     1      -6.427  12.711  17.084  0.00  0.00    +0.000 F 
ATOM     32  F   UNL     1      -6.452  11.643  18.977  0.00  0.00    +0.000 F 
ATOM     33  F   UNL     1      -5.370  13.521  18.799  0.00  0.00    +0.000 F 
ENDBRANCH  25  30
ENDBRANCH  22  23
ENDBRANCH  21  22
ENDBRANCH   4  21
TORSDOF 10
ENDMDL
