MODEL 1
REMARK VINA RESULT:      -7.9      0.000      0.000
REMARK  Name = 
REMARK  13 active torsions:
REMARK  status: ('A' for Active; 'I' for Inactive)
REMARK    1  A    between atoms: C_1  and  O_2
REMARK    2  A    between atoms: O_2  and  C_3
REMARK    3  A    between atoms: C_5  and  C_6
REMARK    4  A    between atoms: C_6  and  C_7
REMARK    5  A    between atoms: C_7  and  C_8
REMARK    6  A    between atoms: C_9  and  C_10
REMARK    7  A    between atoms: C_10  and  C_12
REMARK    8  A    between atoms: C_12  and  C_13
REMARK    9  A    between atoms: C_13  and  C_14
REMARK   10  A    between atoms: C_17  and  O_18
REMARK   11  A    between atoms: C_19  and  O_20
REMARK   12  A    between atoms: O_20  and  C_21
REMARK   13  A    between atoms: C_25  and  O_26
REMARK                            x       y       z     vdW  Elec       q    Type
REMARK                         _______ _______ _______ _____ _____    ______ ____
ROOT
ATOM      1  C   UNL     1       8.277   8.492  17.868  0.00  0.00    +0.000 C 
ATOM      2  C   UNL     1       7.211   7.736  17.565  0.00  0.00    +0.000 C 
ENDROOT
BRANCH   2   3
ATOM      3  C   UNL     1       7.362   6.310  17.155  0.00  0.00    +0.000 C 
ATOM      4  O   UNL     1       7.534   6.019  15.973  0.00  0.00    +0.000 OA
BRANCH   3   5
ATOM      5  C   UNL     1       7.259   5.211  18.209  0.00  0.00    +0.000 C 
BRANCH   5   6
ATOM      6  C   UNL     1       6.169   5.363  19.272  0.00  0.00    +0.000 C 
BRANCH   6   7
ATOM      7  C   UNL     1       4.743   5.103  18.836  0.00  0.00    +0.000 A 
ATOM      8  C   UNL     1       3.824   6.119  18.564  0.00  0.00    +0.000 A 
ATOM      9  C   UNL     1       2.551   5.817  18.090  0.00  0.00    +0.000 A 
ATOM     10  C   UNL     1       2.185   4.492  17.837  0.00  0.00    +0.000 A 
ATOM     11  C   UNL     1       3.056   3.449  18.163  0.00  0.00    +0.000 A 
ATOM     12  C   UNL     1       4.328   3.771  18.660  0.00  0.00    +0.000 A 
BRANCH  10  13
ATOM     13  O   UNL     1       0.963   4.277  17.263  0.00  0.00    +0.000 OA
ATOM     14  H   UNL     1       0.697   3.351  17.441  0.00  0.00    +0.000 HD
ENDBRANCH  10  13
BRANCH  11  15
ATOM     15  O   UNL     1       2.880   2.099  18.016  0.00  0.00    +0.000 OA
ATOM     16  C   UNL     1       3.782   1.206  18.645  0.00  0.00    +0.000 C 
ENDBRANCH  11  15
ENDBRANCH   6   7
ENDBRANCH   5   6
ENDBRANCH   3   5
ENDBRANCH   2   3
BRANCH   1  17
ATOM     17  C   UNL     1       8.148   9.964  18.148  0.00  0.00    +0.000 C 
BRANCH  17  18
ATOM     18  C   UNL     1       9.315  10.566  18.950  0.00  0.00    +0.000 C 
BRANCH  18  21
ATOM     19  C   UNL     1       9.947  14.221  18.092  0.00  0.00    +0.000 A 
ATOM     20  C   UNL     1       9.387  13.057  18.617  0.00  0.00    +0.000 A 
ATOM     21  C   UNL     1       9.940  11.799  18.343  0.00  0.00    +0.000 A 
ATOM     22  C   UNL     1      11.089  11.728  17.550  0.00  0.00    +0.000 A 
ATOM     23  C   UNL     1      11.659  12.885  17.014  0.00  0.00    +0.000 A 
ATOM     24  C   UNL     1      11.075  14.125  17.274  0.00  0.00    +0.000 A 
BRANCH  19  26
ATOM     25  C   UNL     1       8.150  15.745  17.858  0.00  0.00    +0.000 C 
ATOM     26  O   UNL     1       9.465  15.483  18.327  0.00  0.00    +0.000 OA
ENDBRANCH  19  26
BRANCH  24  27
ATOM     27  O   UNL     1      11.600  15.260  16.715  0.00  0.00    +0.000 OA
ATOM     28  H   UNL     1      10.881  15.782  16.331  0.00  0.00    +0.000 HD
ENDBRANCH  24  27
ENDBRANCH  18  21
ENDBRANCH  17  18
ENDBRANCH   1  17
TORSDOF 11
ENDMDL
MODEL 2
REMARK VINA RESULT:      -7.3      1.753     10.639
REMARK  Name = 
REMARK  13 active torsions:
REMARK  status: ('A' for Active; 'I' for Inactive)
REMARK    1  A    between atoms: C_1  and  O_2
REMARK    2  A    between atoms: O_2  and  C_3
REMARK    3  A    between atoms: C_5  and  C_6
REMARK    4  A    between atoms: C_6  and  C_7
REMARK    5  A    between atoms: C_7  and  C_8
REMARK    6  A    between atoms: C_9  and  C_10
REMARK    7  A    between atoms: C_10  and  C_12
REMARK    8  A    between atoms: C_12  and  C_13
REMARK    9  A    between atoms: C_13  and  C_14
REMARK   10  A    between atoms: C_17  and  O_18
REMARK   11  A    between atoms: C_19  and  O_20
REMARK   12  A    between atoms: O_20  and  C_21
REMARK   13  A    between atoms: C_25  and  O_26
REMARK                            x       y       z     vdW  Elec       q    Type
REMARK                         _______ _______ _______ _____ _____    ______ ____
ROOT
ATOM      1  C   UNL     1       4.938   6.806  17.815  0.00  0.00    +0.000 C 
ATOM      2  C   UNL     1       6.019   7.212  17.131  0.00  0.00    +0.000 C 
ENDROOT
BRANCH   2   3
ATOM      3  C   UNL     1       7.398   6.874  17.586  0.00  0.00    +0.000 C 
ATOM      4  O   UNL     1       7.850   5.744  17.411  0.00  0.00    +0.000 OA
BRANCH   3   5
ATOM      5  C   UNL     1       8.230   7.931  18.307  0.00  0.00    +0.000 C 
BRANCH   5   6
ATOM      6  C   UNL     1       8.307   9.318  17.664  0.00  0.00    +0.000 C 
BRANCH   6   7
ATOM      7  C   UNL     1       8.960  10.416  18.475  0.00  0.00    +0.000 A 
ATOM      8  C   UNL     1       9.225  10.308  19.843  0.00  0.00    +0.000 A 
ATOM      9  C   UNL     1       9.899  11.321  20.517  0.00  0.00    +0.000 A 
ATOM     10  C   UNL     1      10.361  12.446  19.828  0.00  0.00    +0.000 A 
ATOM     11  C   UNL     1      10.053  12.615  18.476  0.00  0.00    +0.000 A 
ATOM     12  C   UNL     1       9.354  11.594  17.816  0.00  0.00    +0.000 A 
BRANCH  10  13
ATOM     13  O   UNL     1      11.117  13.344  20.528  0.00  0.00    +0.000 OA
ATOM     14  H   UNL     1      11.188  14.166  19.999  0.00  0.00    +0.000 HD
ENDBRANCH  10  13
BRANCH  11  15
ATOM     15  O   UNL     1      10.389  13.644  17.636  0.00  0.00    +0.000 OA
ATOM     16  C   UNL     1      11.385  13.441  16.649  0.00  0.00    +0.000 C 
ENDBRANCH  11  15
ENDBRANCH   6   7
ENDBRANCH   5   6
ENDBRANCH   3   5
ENDBRANCH   2   3
BRANCH   1  17
ATOM     17  C   UNL     1       3.552   7.255  17.443  0.00  0.00    +0.000 C 
BRANCH  17  18
ATOM     18  C   UNL     1       2.430   6.626  18.285  0.00  0.00    +0.000 C 
BRANCH  18  21
ATOM     19  C   UNL     1       2.679   3.173  19.871  0.00  0.00    +0.000 A 
ATOM     20  C   UNL     1       2.631   4.557  19.699  0.00  0.00    +0.000 A 
ATOM     21  C   UNL     1       2.499   5.124  18.425  0.00  0.00    +0.000 A 
ATOM     22  C   UNL     1       2.385   4.276  17.319  0.00  0.00    +0.000 A 
ATOM     23  C   UNL     1       2.435   2.889  17.476  0.00  0.00    +0.000 A 
ATOM     24  C   UNL     1       2.598   2.345  18.751  0.00  0.00    +0.000 A 
BRANCH  19  26
ATOM     25  C   UNL     1       1.655   2.612  21.931  0.00  0.00    +0.000 C 
ATOM     26  O   UNL     1       2.796   2.552  21.088  0.00  0.00    +0.000 OA
ENDBRANCH  19  26
BRANCH  24  27
ATOM     27  O   UNL     1       2.693   0.987  18.909  0.00  0.00    +0.000 OA
ATOM     28  H   UNL     1       3.210   0.800  19.705  0.00  0.00    +0.000 HD
ENDBRANCH  24  27
ENDBRANCH  18  21
ENDBRANCH  17  18
ENDBRANCH   1  17
TORSDOF 11
ENDMDL
MODEL 3
REMARK VINA RESULT:      -7.3      5.543      8.446
REMARK  Name = 
REMARK  13 active torsions:
REMARK  status: ('A' for Active; 'I' for Inactive)
REMARK    1  A    between atoms: C_1  and  O_2
REMARK    2  A    between atoms: O_2  and  C_3
REMARK    3  A    between atoms: C_5  and  C_6
REMARK    4  A    between atoms: C_6  and  C_7
REMARK    5  A    between atoms: C_7  and  C_8
REMARK    6  A    between atoms: C_9  and  C_10
REMARK    7  A    between atoms: C_10  and  C_12
REMARK    8  A    between atoms: C_12  and  C_13
REMARK    9  A    between atoms: C_13  and  C_14
REMARK   10  A    between atoms: C_17  and  O_18
REMARK   11  A    between atoms: C_19  and  O_20
REMARK   12  A    between atoms: O_20  and  C_21
REMARK   13  A    between atoms: C_25  and  O_26
REMARK                            x       y       z     vdW  Elec       q    Type
REMARK                         _______ _______ _______ _____ _____    ______ ____
ROOT
ATOM      1  C   UNL     1       1.827   5.461  20.726  0.00  0.00    +0.000 C 
ATOM      2  C   UNL     1       1.105   4.341  20.572  0.00  0.00    +0.000 C 
ENDROOT
BRANCH   2   3
ATOM      3  C   UNL     1       1.713   2.993  20.764  0.00  0.00    +0.000 C 
ATOM      4  O   UNL     1       2.095   2.637  21.876  0.00  0.00    +0.000 OA
BRANCH   3   5
ATOM      5  C   UNL     1       1.895   2.074  19.558  0.00  0.00    +0.000 C 
BRANCH   5   6
ATOM      6  C   UNL     1       3.303   1.968  18.967  0.00  0.00    +0.000 C 
BRANCH   6   7
ATOM      7  C   UNL     1       3.941   3.251  18.482  0.00  0.00    +0.000 A 
ATOM      8  C   UNL     1       3.507   3.947  17.350  0.00  0.00    +0.000 A 
ATOM      9  C   UNL     1       4.084   5.164  17.000  0.00  0.00    +0.000 A 
ATOM     10  C   UNL     1       5.081   5.731  17.799  0.00  0.00    +0.000 A 
ATOM     11  C   UNL     1       5.585   5.029  18.896  0.00  0.00    +0.000 A 
ATOM     12  C   UNL     1       5.005   3.794  19.223  0.00  0.00    +0.000 A 
BRANCH  10  13
ATOM     13  O   UNL     1       5.520   6.981  17.460  0.00  0.00    +0.000 OA
ATOM     14  H   UNL     1       5.659   7.492  18.285  0.00  0.00    +0.000 HD
ENDBRANCH  10  13
BRANCH  11  15
ATOM     15  O   UNL     1       6.564   5.396  19.781  0.00  0.00    +0.000 OA
ATOM     16  C   UNL     1       7.878   5.630  19.307  0.00  0.00    +0.000 C 
ENDBRANCH  11  15
ENDBRANCH   6   7
ENDBRANCH   5   6
ENDBRANCH   3   5
ENDBRANCH   2   3
BRANCH   1  17
ATOM     17  C   UNL     1       1.261   6.817  20.402  0.00  0.00    +0.000 C 
BRANCH  17  18
ATOM     18  C   UNL     1       1.766   7.952  21.308  0.00  0.00    +0.000 C 
BRANCH  18  21
ATOM     19  C   UNL     1      -0.622  10.849  20.672  0.00  0.00    +0.000 A 
ATOM     20  C   UNL     1       0.311   9.829  20.483  0.00  0.00    +0.000 A 
ATOM     21  C   UNL     1       0.772   9.060  21.560  0.00  0.00    +0.000 A 
ATOM     22  C   UNL     1       0.257   9.312  22.835  0.00  0.00    +0.000 A 
ATOM     23  C   UNL     1      -0.675  10.333  23.040  0.00  0.00    +0.000 A 
ATOM     24  C   UNL     1      -1.097  11.106  21.959  0.00  0.00    +0.000 A 
BRANCH  19  26
ATOM     25  C   UNL     1      -0.199  12.512  19.041  0.00  0.00    +0.000 C 
ATOM     26  O   UNL     1      -1.123  11.631  19.663  0.00  0.00    +0.000 OA
ENDBRANCH  19  26
BRANCH  24  27
ATOM     27  O   UNL     1      -1.976  12.138  22.158  0.00  0.00    +0.000 OA
ATOM     28  H   UNL     1      -1.837  12.503  23.043  0.00  0.00    +0.000 HD
ENDBRANCH  24  27
ENDBRANCH  18  21
ENDBRANCH  17  18
ENDBRANCH   1  17
TORSDOF 11
ENDMDL
MODEL 4
REMARK VINA RESULT:      -7.3      1.946      2.684
REMARK  Name = 
REMARK  13 active torsions:
REMARK  status: ('A' for Active; 'I' for Inactive)
REMARK    1  A    between atoms: C_1  and  O_2
REMARK    2  A    between atoms: O_2  and  C_3
REMARK    3  A    between atoms: C_5  and  C_6
REMARK    4  A    between atoms: C_6  and  C_7
REMARK    5  A    between atoms: C_7  and  C_8
REMARK    6  A    between atoms: C_9  and  C_10
REMARK    7  A    between atoms: C_10  and  C_12
REMARK    8  A    between atoms: C_12  and  C_13
REMARK    9  A    between atoms: C_13  and  C_14
REMARK   10  A    between atoms: C_17  and  O_18
REMARK   11  A    between atoms: C_19  and  O_20
REMARK   12  A    between atoms: O_20  and  C_21
REMARK   13  A    between atoms: C_25  and  O_26
REMARK                            x       y       z     vdW  Elec       q    Type
REMARK                         _______ _______ _______ _____ _____    ______ ____
ROOT
ATOM      1  C   UNL     1       7.811   6.566  17.741  0.00  0.00    +0.000 C 
ATOM      2  C   UNL     1       6.930   6.665  16.734  0.00  0.00    +0.000 C 
ENDROOT
BRANCH   2   3
ATOM      3  C   UNL     1       6.652   5.512  15.830  0.00  0.00    +0.000 C 
ATOM      4  O   UNL     1       7.498   5.139  15.021  0.00  0.00    +0.000 OA
BRANCH   3   5
ATOM      5  C   UNL     1       5.290   4.825  15.889  0.00  0.00    +0.000 C 
BRANCH   5   6
ATOM      6  C   UNL     1       4.929   4.102  17.189  0.00  0.00    +0.000 C 
BRANCH   6   7
ATOM      7  C   UNL     1       4.092   4.868  18.191  0.00  0.00    +0.000 A 
ATOM      8  C   UNL     1       3.687   6.192  18.002  0.00  0.00    +0.000 A 
ATOM      9  C   UNL     1       2.852   6.817  18.924  0.00  0.00    +0.000 A 
ATOM     10  C   UNL     1       2.370   6.115  20.033  0.00  0.00    +0.000 A 
ATOM     11  C   UNL     1       2.811   4.814  20.286  0.00  0.00    +0.000 A 
ATOM     12  C   UNL     1       3.669   4.207  19.357  0.00  0.00    +0.000 A 
BRANCH  10  13
ATOM     13  O   UNL     1       1.463   6.753  20.832  0.00  0.00    +0.000 OA
ATOM     14  H   UNL     1       1.489   7.711  20.625  0.00  0.00    +0.000 HD
ENDBRANCH  10  13
BRANCH  11  15
ATOM     15  O   UNL     1       2.480   3.975  21.316  0.00  0.00    +0.000 OA
ATOM     16  C   UNL     1       1.391   3.081  21.164  0.00  0.00    +0.000 C 
ENDBRANCH  11  15
ENDBRANCH   6   7
ENDBRANCH   5   6
ENDBRANCH   3   5
ENDBRANCH   2   3
BRANCH   1  17
ATOM     17  C   UNL     1       8.200   7.759  18.571  0.00  0.00    +0.000 C 
BRANCH  17  18
ATOM     18  C   UNL     1       8.225   9.091  17.801  0.00  0.00    +0.000 C 
BRANCH  18  21
ATOM     19  C   UNL     1       9.570  12.575  18.543  0.00  0.00    +0.000 A 
ATOM     20  C   UNL     1       9.007  11.478  17.890  0.00  0.00    +0.000 A 
ATOM     21  C   UNL     1       8.859  10.245  18.538  0.00  0.00    +0.000 A 
ATOM     22  C   UNL     1       9.261  10.135  19.873  0.00  0.00    +0.000 A 
ATOM     23  C   UNL     1       9.830  11.223  20.539  0.00  0.00    +0.000 A 
ATOM     24  C   UNL     1       9.997  12.433  19.865  0.00  0.00    +0.000 A 
BRANCH  19  26
ATOM     25  C   UNL     1      10.856  13.955  17.112  0.00  0.00    +0.000 C 
ATOM     26  O   UNL     1       9.735  13.810  17.973  0.00  0.00    +0.000 OA
ENDBRANCH  19  26
BRANCH  24  27
ATOM     27  O   UNL     1      10.595  13.491  20.496  0.00  0.00    +0.000 OA
ATOM     28  H   UNL     1      11.421  13.703  20.038  0.00  0.00    +0.000 HD
ENDBRANCH  24  27
ENDBRANCH  18  21
ENDBRANCH  17  18
ENDBRANCH   1  17
TORSDOF 11
ENDMDL
MODEL 5
REMARK VINA RESULT:      -7.3      1.994     10.600
REMARK  Name = 
REMARK  13 active torsions:
REMARK  status: ('A' for Active; 'I' for Inactive)
REMARK    1  A    between atoms: C_1  and  O_2
REMARK    2  A    between atoms: O_2  and  C_3
REMARK    3  A    between atoms: C_5  and  C_6
REMARK    4  A    between atoms: C_6  and  C_7
REMARK    5  A    between atoms: C_7  and  C_8
REMARK    6  A    between atoms: C_9  and  C_10
REMARK    7  A    between atoms: C_10  and  C_12
REMARK    8  A    between atoms: C_12  and  C_13
REMARK    9  A    between atoms: C_13  and  C_14
REMARK   10  A    between atoms: C_17  and  O_18
REMARK   11  A    between atoms: C_19  and  O_20
REMARK   12  A    between atoms: O_20  and  C_21
REMARK   13  A    between atoms: C_25  and  O_26
REMARK                            x       y       z     vdW  Elec       q    Type
REMARK                         _______ _______ _______ _____ _____    ______ ____
ROOT
ATOM      1  C   UNL     1       8.601  10.050  18.210  0.00  0.00    +0.000 C 
ATOM      2  C   UNL     1       9.285  10.017  19.363  0.00  0.00    +0.000 C 
ENDROOT
BRANCH   2   3
ATOM      3  C   UNL     1      10.081  11.188  19.828  0.00  0.00    +0.000 C 
ATOM      4  O   UNL     1       9.655  11.913  20.725  0.00  0.00    +0.000 OA
BRANCH   3   5
ATOM      5  C   UNL     1      11.413  11.506  19.153  0.00  0.00    +0.000 C 
BRANCH   5   6
ATOM      6  C   UNL     1      11.358  12.083  17.736  0.00  0.00    +0.000 C 
BRANCH   6   7
ATOM      7  C   UNL     1      11.244  13.587  17.612  0.00  0.00    +0.000 A 
ATOM      8  C   UNL     1      12.333  14.422  17.347  0.00  0.00    +0.000 A 
ATOM      9  C   UNL     1      12.152  15.790  17.166  0.00  0.00    +0.000 A 
ATOM     10  C   UNL     1      10.870  16.346  17.205  0.00  0.00    +0.000 A 
ATOM     11  C   UNL     1       9.770  15.550  17.535  0.00  0.00    +0.000 A 
ATOM     12  C   UNL     1       9.974  14.177  17.735  0.00  0.00    +0.000 A 
BRANCH  10  13
ATOM     13  O   UNL     1      10.753  17.674  16.903  0.00  0.00    +0.000 OA
ATOM     14  H   UNL     1      10.354  17.753  16.011  0.00  0.00    +0.000 HD
ENDBRANCH  10  13
BRANCH  11  15
ATOM     15  O   UNL     1       8.451  15.903  17.647  0.00  0.00    +0.000 OA
ATOM     16  C   UNL     1       7.483  14.904  17.910  0.00  0.00    +0.000 C 
ENDBRANCH  11  15
ENDBRANCH   6   7
ENDBRANCH   5   6
ENDBRANCH   3   5
ENDBRANCH   2   3
BRANCH   1  17
ATOM     17  C   UNL     1       7.908   8.831  17.666  0.00  0.00    +0.000 C 
BRANCH  17  18
ATOM     18  C   UNL     1       8.214   7.530  18.428  0.00  0.00    +0.000 C 
BRANCH  18  21
ATOM     19  C   UNL     1       6.104   5.020  16.494  0.00  0.00    +0.000 A 
ATOM     20  C   UNL     1       6.948   6.085  16.807  0.00  0.00    +0.000 A 
ATOM     21  C   UNL     1       7.279   6.382  18.136  0.00  0.00    +0.000 A 
ATOM     22  C   UNL     1       6.770   5.569  19.153  0.00  0.00    +0.000 A 
ATOM     23  C   UNL     1       5.919   4.502  18.855  0.00  0.00    +0.000 A 
ATOM     24  C   UNL     1       5.578   4.243  17.528  0.00  0.00    +0.000 A 
BRANCH  19  26
ATOM     25  C   UNL     1       6.806   4.598  14.273  0.00  0.00    +0.000 C 
ATOM     26  O   UNL     1       5.747   4.668  15.218  0.00  0.00    +0.000 OA
ENDBRANCH  19  26
BRANCH  24  27
ATOM     27  O   UNL     1       4.709   3.226  17.230  0.00  0.00    +0.000 OA
ATOM     28  H   UNL     1       5.218   2.426  17.035  0.00  0.00    +0.000 HD
ENDBRANCH  24  27
ENDBRANCH  18  21
ENDBRANCH  17  18
ENDBRANCH   1  17
TORSDOF 11
ENDMDL
MODEL 6
REMARK VINA RESULT:      -7.3      2.119      2.658
REMARK  Name = 
REMARK  13 active torsions:
REMARK  status: ('A' for Active; 'I' for Inactive)
REMARK    1  A    between atoms: C_1  and  O_2
REMARK    2  A    between atoms: O_2  and  C_3
REMARK    3  A    between atoms: C_5  and  C_6
REMARK    4  A    between atoms: C_6  and  C_7
REMARK    5  A    between atoms: C_7  and  C_8
REMARK    6  A    between atoms: C_9  and  C_10
REMARK    7  A    between atoms: C_10  and  C_12
REMARK    8  A    between atoms: C_12  and  C_13
REMARK    9  A    between atoms: C_13  and  C_14
REMARK   10  A    between atoms: C_17  and  O_18
REMARK   11  A    between atoms: C_19  and  O_20
REMARK   12  A    between atoms: O_20  and  C_21
REMARK   13  A    between atoms: C_25  and  O_26
REMARK                            x       y       z     vdW  Elec       q    Type
REMARK                         _______ _______ _______ _____ _____    ______ ____
ROOT
ATOM      1  C   UNL     1       7.853   7.934  17.369  0.00  0.00    +0.000 C 
ATOM      2  C   UNL     1       7.594   6.863  18.133  0.00  0.00    +0.000 C 
ENDROOT
BRANCH   2   3
ATOM      3  C   UNL     1       7.265   5.540  17.529  0.00  0.00    +0.000 C 
ATOM      4  O   UNL     1       7.447   4.504  18.166  0.00  0.00    +0.000 OA
BRANCH   3   5
ATOM      5  C   UNL     1       6.740   5.478  16.097  0.00  0.00    +0.000 C 
BRANCH   5   6
ATOM      6  C   UNL     1       5.233   5.662  15.898  0.00  0.00    +0.000 C 
BRANCH   6   7
ATOM      7  C   UNL     1       4.368   5.627  17.139  0.00  0.00    +0.000 A 
ATOM      8  C   UNL     1       3.920   6.776  17.797  0.00  0.00    +0.000 A 
ATOM      9  C   UNL     1       3.061   6.680  18.887  0.00  0.00    +0.000 A 
ATOM     10  C   UNL     1       2.597   5.433  19.317  0.00  0.00    +0.000 A 
ATOM     11  C   UNL     1       3.080   4.264  18.725  0.00  0.00    +0.000 A 
ATOM     12  C   UNL     1       3.961   4.378  17.640  0.00  0.00    +0.000 A 
BRANCH  10  13
ATOM     13  O   UNL     1       1.666   5.421  20.317  0.00  0.00    +0.000 OA
ATOM     14  H   UNL     1       1.279   6.319  20.389  0.00  0.00    +0.000 HD
ENDBRANCH  10  13
BRANCH  11  15
ATOM     15  O   UNL     1       2.771   2.960  19.011  0.00  0.00    +0.000 OA
ATOM     16  C   UNL     1       1.593   2.389  18.472  0.00  0.00    +0.000 C 
ENDBRANCH  11  15
ENDBRANCH   6   7
ENDBRANCH   5   6
ENDBRANCH   3   5
ENDBRANCH   2   3
BRANCH   1  17
ATOM     17  C   UNL     1       8.051   9.301  17.965  0.00  0.00    +0.000 C 
BRANCH  17  18
ATOM     18  C   UNL     1       9.180   9.386  19.006  0.00  0.00    +0.000 C 
BRANCH  18  21
ATOM     19  C   UNL     1       9.543  12.422  21.276  0.00  0.00    +0.000 A 
ATOM     20  C   UNL     1       9.231  11.148  20.798  0.00  0.00    +0.000 A 
ATOM     21  C   UNL     1       9.514  10.781  19.476  0.00  0.00    +0.000 A 
ATOM     22  C   UNL     1      10.145  11.708  18.641  0.00  0.00    +0.000 A 
ATOM     23  C   UNL     1      10.459  12.988  19.104  0.00  0.00    +0.000 A 
ATOM     24  C   UNL     1      10.142  13.343  20.415  0.00  0.00    +0.000 A 
BRANCH  19  26
ATOM     25  C   UNL     1       7.977  12.671  23.034  0.00  0.00    +0.000 C 
ATOM     26  O   UNL     1       9.304  12.843  22.559  0.00  0.00    +0.000 OA
ENDBRANCH  19  26
BRANCH  24  27
ATOM     27  O   UNL     1      10.405  14.611  20.864  0.00  0.00    +0.000 OA
ATOM     28  H   UNL     1       9.799  14.818  21.590  0.00  0.00    +0.000 HD
ENDBRANCH  24  27
ENDBRANCH  18  21
ENDBRANCH  17  18
ENDBRANCH   1  17
TORSDOF 11
ENDMDL
MODEL 7
REMARK VINA RESULT:      -7.2      2.068      3.250
REMARK  Name = 
REMARK  13 active torsions:
REMARK  status: ('A' for Active; 'I' for Inactive)
REMARK    1  A    between atoms: C_1  and  O_2
REMARK    2  A    between atoms: O_2  and  C_3
REMARK    3  A    between atoms: C_5  and  C_6
REMARK    4  A    between atoms: C_6  and  C_7
REMARK    5  A    between atoms: C_7  and  C_8
REMARK    6  A    between atoms: C_9  and  C_10
REMARK    7  A    between atoms: C_10  and  C_12
REMARK    8  A    between atoms: C_12  and  C_13
REMARK    9  A    between atoms: C_13  and  C_14
REMARK   10  A    between atoms: C_17  and  O_18
REMARK   11  A    between atoms: C_19  and  O_20
REMARK   12  A    between atoms: O_20  and  C_21
REMARK   13  A    between atoms: C_25  and  O_26
REMARK                            x       y       z     vdW  Elec       q    Type
REMARK                         _______ _______ _______ _____ _____    ______ ____
ROOT
ATOM      1  C   UNL     1       7.728   7.825  17.429  0.00  0.00    +0.000 C 
ATOM      2  C   UNL     1       7.672   6.720  18.187  0.00  0.00    +0.000 C 
ENDROOT
BRANCH   2   3
ATOM      3  C   UNL     1       7.437   5.376  17.584  0.00  0.00    +0.000 C 
ATOM      4  O   UNL     1       7.770   4.358  18.187  0.00  0.00    +0.000 OA
BRANCH   3   5
ATOM      5  C   UNL     1       6.817   5.276  16.193  0.00  0.00    +0.000 C 
BRANCH   5   6
ATOM      6  C   UNL     1       5.358   4.821  16.110  0.00  0.00    +0.000 C 
BRANCH   6   7
ATOM      7  C   UNL     1       4.428   5.294  17.206  0.00  0.00    +0.000 A 
ATOM      8  C   UNL     1       4.006   4.480  18.261  0.00  0.00    +0.000 A 
ATOM      9  C   UNL     1       3.214   4.995  19.282  0.00  0.00    +0.000 A 
ATOM     10  C   UNL     1       2.862   6.347  19.293  0.00  0.00    +0.000 A 
ATOM     11  C   UNL     1       3.210   7.170  18.219  0.00  0.00    +0.000 A 
ATOM     12  C   UNL     1       3.991   6.630  17.187  0.00  0.00    +0.000 A 
BRANCH  10  13
ATOM     13  O   UNL     1       2.182   6.810  20.385  0.00  0.00    +0.000 OA
ATOM     14  H   UNL     1       2.296   7.783  20.429  0.00  0.00    +0.000 HD
ENDBRANCH  10  13
BRANCH  11  15
ATOM     15  O   UNL     1       2.945   8.501  18.030  0.00  0.00    +0.000 OA
ATOM     16  C   UNL     1       1.609   8.922  17.820  0.00  0.00    +0.000 C 
ENDBRANCH  11  15
ENDBRANCH   6   7
ENDBRANCH   5   6
ENDBRANCH   3   5
ENDBRANCH   2   3
BRANCH   1  17
ATOM     17  C   UNL     1       7.826   9.197  18.039  0.00  0.00    +0.000 C 
BRANCH  17  18
ATOM     18  C   UNL     1       9.263   9.669  18.318  0.00  0.00    +0.000 C 
BRANCH  18  21
ATOM     19  C   UNL     1       9.506  13.393  19.075  0.00  0.00    +0.000 A 
ATOM     20  C   UNL     1       9.424  12.176  18.397  0.00  0.00    +0.000 A 
ATOM     21  C   UNL     1       9.374  10.961  19.091  0.00  0.00    +0.000 A 
ATOM     22  C   UNL     1       9.378  10.984  20.489  0.00  0.00    +0.000 A 
ATOM     23  C   UNL     1       9.464  12.194  21.182  0.00  0.00    +0.000 A 
ATOM     24  C   UNL     1       9.544  13.392  20.471  0.00  0.00    +0.000 A 
BRANCH  19  26
ATOM     25  C   UNL     1      10.745  14.921  17.758  0.00  0.00    +0.000 C 
ATOM     26  O   UNL     1       9.547  14.617  18.460  0.00  0.00    +0.000 OA
ENDBRANCH  19  26
BRANCH  24  27
ATOM     27  O   UNL     1       9.674  14.579  21.141  0.00  0.00    +0.000 OA
ATOM     28  H   UNL     1       9.016  14.612  21.851  0.00  0.00    +0.000 HD
ENDBRANCH  24  27
ENDBRANCH  18  21
ENDBRANCH  17  18
ENDBRANCH   1  17
TORSDOF 11
ENDMDL
MODEL 8
REMARK VINA RESULT:      -7.2      2.045      3.012
REMARK  Name = 
REMARK  13 active torsions:
REMARK  status: ('A' for Active; 'I' for Inactive)
REMARK    1  A    between atoms: C_1  and  O_2
REMARK    2  A    between atoms: O_2  and  C_3
REMARK    3  A    between atoms: C_5  and  C_6
REMARK    4  A    between atoms: C_6  and  C_7
REMARK    5  A    between atoms: C_7  and  C_8
REMARK    6  A    between atoms: C_9  and  C_10
REMARK    7  A    between atoms: C_10  and  C_12
REMARK    8  A    between atoms: C_12  and  C_13
REMARK    9  A    between atoms: C_13  and  C_14
REMARK   10  A    between atoms: C_17  and  O_18
REMARK   11  A    between atoms: C_19  and  O_20
REMARK   12  A    between atoms: O_20  and  C_21
REMARK   13  A    between atoms: C_25  and  O_26
REMARK                            x       y       z     vdW  Elec       q    Type
REMARK                         _______ _______ _______ _____ _____    ______ ____
ROOT
ATOM      1  C   UNL     1       8.235   7.624  17.978  0.00  0.00    +0.000 C 
ATOM      2  C   UNL     1       7.127   6.939  17.660  0.00  0.00    +0.000 C 
ENDROOT
BRANCH   2   3
ATOM      3  C   UNL     1       7.155   5.461  17.470  0.00  0.00    +0.000 C 
ATOM      4  O   UNL     1       7.688   4.737  18.308  0.00  0.00    +0.000 OA
BRANCH   3   5
ATOM      5  C   UNL     1       6.551   4.855  16.205  0.00  0.00    +0.000 C 
BRANCH   5   6
ATOM      6  C   UNL     1       5.024   4.821  16.107  0.00  0.00    +0.000 C 
BRANCH   6   7
ATOM      7  C   UNL     1       4.252   4.886  17.407  0.00  0.00    +0.000 A 
ATOM      8  C   UNL     1       4.167   3.819  18.305  0.00  0.00    +0.000 A 
ATOM      9  C   UNL     1       3.506   3.966  19.522  0.00  0.00    +0.000 A 
ATOM     10  C   UNL     1       2.953   5.198  19.883  0.00  0.00    +0.000 A 
ATOM     11  C   UNL     1       2.962   6.263  18.979  0.00  0.00    +0.000 A 
ATOM     12  C   UNL     1       3.613   6.090  17.749  0.00  0.00    +0.000 A 
BRANCH  10  13
ATOM     13  O   UNL     1       2.424   5.303  21.139  0.00  0.00    +0.000 OA
ATOM     14  H   UNL     1       2.788   6.110  21.560  0.00  0.00    +0.000 HD
ENDBRANCH  10  13
BRANCH  11  15
ATOM     15  O   UNL     1       2.460   7.528  19.131  0.00  0.00    +0.000 OA
ATOM     16  C   UNL     1       2.079   8.268  17.985  0.00  0.00    +0.000 C 
ENDBRANCH  11  15
ENDBRANCH   6   7
ENDBRANCH   5   6
ENDBRANCH   3   5
ENDBRANCH   2   3
BRANCH   1  17
ATOM     17  C   UNL     1       8.246   9.127  18.036  0.00  0.00    +0.000 C 
BRANCH  17  18
ATOM     18  C   UNL     1       9.165   9.717  19.120  0.00  0.00    +0.000 C 
BRANCH  18  21
ATOM     19  C   UNL     1       9.856  13.287  20.249  0.00  0.00    +0.000 A 
ATOM     20  C   UNL     1       9.683  11.902  20.248  0.00  0.00    +0.000 A 
ATOM     21  C   UNL     1       9.319  11.218  19.081  0.00  0.00    +0.000 A 
ATOM     22  C   UNL     1       9.158  11.944  17.898  0.00  0.00    +0.000 A 
ATOM     23  C   UNL     1       9.323  13.332  17.884  0.00  0.00    +0.000 A 
ATOM     24  C   UNL     1       9.656  13.997  19.064  0.00  0.00    +0.000 A 
BRANCH  19  26
ATOM     25  C   UNL     1       9.255  14.106  22.387  0.00  0.00    +0.000 C 
ATOM     26  O   UNL     1      10.221  14.017  21.350  0.00  0.00    +0.000 OA
ENDBRANCH  19  26
BRANCH  24  27
ATOM     27  O   UNL     1       9.775  15.362  19.069  0.00  0.00    +0.000 OA
ATOM     28  H   UNL     1      10.258  15.638  18.277  0.00  0.00    +0.000 HD
ENDBRANCH  24  27
ENDBRANCH  18  21
ENDBRANCH  17  18
ENDBRANCH   1  17
TORSDOF 11
ENDMDL
MODEL 9
REMARK VINA RESULT:      -7.2      1.463      2.384
REMARK  Name = 
REMARK  13 active torsions:
REMARK  status: ('A' for Active; 'I' for Inactive)
REMARK    1  A    between atoms: C_1  and  O_2
REMARK    2  A    between atoms: O_2  and  C_3
REMARK    3  A    between atoms: C_5  and  C_6
REMARK    4  A    between atoms: C_6  and  C_7
REMARK    5  A    between atoms: C_7  and  C_8
REMARK    6  A    between atoms: C_9  and  C_10
REMARK    7  A    between atoms: C_10  and  C_12
REMARK    8  A    between atoms: C_12  and  C_13
REMARK    9  A    between atoms: C_13  and  C_14
REMARK   10  A    between atoms: C_17  and  O_18
REMARK   11  A    between atoms: C_19  and  O_20
REMARK   12  A    between atoms: O_20  and  C_21
REMARK   13  A    between atoms: C_25  and  O_26
REMARK                            x       y       z     vdW  Elec       q    Type
REMARK                         _______ _______ _______ _____ _____    ______ ____
ROOT
ATOM      1  C   UNL     1       7.820   7.899  18.082  0.00  0.00    +0.000 C 
ATOM      2  C   UNL     1       7.553   7.220  16.957  0.00  0.00    +0.000 C 
ENDROOT
BRANCH   2   3
ATOM      3  C   UNL     1       7.310   5.749  16.976  0.00  0.00    +0.000 C 
ATOM      4  O   UNL     1       6.947   5.166  15.957  0.00  0.00    +0.000 OA
BRANCH   3   5
ATOM      5  C   UNL     1       7.478   4.978  18.283  0.00  0.00    +0.000 C 
BRANCH   5   6
ATOM      6  C   UNL     1       6.284   4.958  19.240  0.00  0.00    +0.000 C 
BRANCH   6   7
ATOM      7  C   UNL     1       4.915   4.762  18.626  0.00  0.00    +0.000 A 
ATOM      8  C   UNL     1       4.463   3.536  18.131  0.00  0.00    +0.000 A 
ATOM      9  C   UNL     1       3.164   3.400  17.650  0.00  0.00    +0.000 A 
ATOM     10  C   UNL     1       2.276   4.479  17.694  0.00  0.00    +0.000 A 
ATOM     11  C   UNL     1       2.718   5.734  18.118  0.00  0.00    +0.000 A 
ATOM     12  C   UNL     1       4.036   5.858  18.580  0.00  0.00    +0.000 A 
BRANCH  10  13
ATOM     13  O   UNL     1       0.984   4.243  17.314  0.00  0.00    +0.000 OA
ATOM     14  H   UNL     1       0.894   3.290  17.103  0.00  0.00    +0.000 HD
ENDBRANCH  10  13
BRANCH  11  15
ATOM     15  O   UNL     1       2.019   6.909  18.213  0.00  0.00    +0.000 OA
ATOM     16  C   UNL     1       2.683   8.136  17.968  0.00  0.00    +0.000 C 
ENDBRANCH  11  15
ENDBRANCH   6   7
ENDBRANCH   5   6
ENDBRANCH   3   5
ENDBRANCH   2   3
BRANCH   1  17
ATOM     17  C   UNL     1       8.201   9.354  18.056  0.00  0.00    +0.000 C 
BRANCH  17  18
ATOM     18  C   UNL     1       9.123   9.793  19.206  0.00  0.00    +0.000 C 
BRANCH  18  21
ATOM     19  C   UNL     1      10.709  13.185  19.895  0.00  0.00    +0.000 A 
ATOM     20  C   UNL     1      10.026  11.979  20.056  0.00  0.00    +0.000 A 
ATOM     21  C   UNL     1       9.849  11.097  18.982  0.00  0.00    +0.000 A 
ATOM     22  C   UNL     1      10.396  11.432  17.740  0.00  0.00    +0.000 A 
ATOM     23  C   UNL     1      11.079  12.638  17.562  0.00  0.00    +0.000 A 
ATOM     24  C   UNL     1      11.217  13.516  18.637  0.00  0.00    +0.000 A 
BRANCH  19  26
ATOM     25  C   UNL     1       9.798  14.419  21.699  0.00  0.00    +0.000 C 
ATOM     26  O   UNL     1      10.927  14.088  20.903  0.00  0.00    +0.000 OA
ENDBRANCH  19  26
BRANCH  24  27
ATOM     27  O   UNL     1      11.845  14.721  18.461  0.00  0.00    +0.000 OA
ATOM     28  H   UNL     1      11.997  15.125  19.327  0.00  0.00    +0.000 HD
ENDBRANCH  24  27
ENDBRANCH  18  21
ENDBRANCH  17  18
ENDBRANCH   1  17
TORSDOF 11
ENDMDL
