MODEL 1
REMARK VINA RESULT:      -7.3      0.000      0.000
REMARK  Name = 
REMARK  3 active torsions:
REMARK  status: ('A' for Active; 'I' for Inactive)
REMARK    1  A    between atoms: C_2  and  C_3
REMARK    2  A    between atoms: C_4  and  C_5
REMARK    3  A    between atoms: C_15  and  C_16
REMARK                            x       y       z     vdW  Elec       q    Type
REMARK                         _______ _______ _______ _____ _____    ______ ____
ROOT
ATOM      1  C   UNL     1       4.951   4.159  17.684  0.00  0.00    +0.000 A 
ATOM      2  C   UNL     1       4.867   4.310  19.063  0.00  0.00    +0.000 A 
ATOM      3  N   UNL     1       5.927   4.760  19.789  0.00  0.00    +0.000 NA
ATOM      4  C   UNL     1       7.035   5.114  19.140  0.00  0.00    +0.000 A 
ATOM      5  N   UNL     1       8.071   5.630  19.880  0.00  0.00    +0.000 N 
ATOM      6  N   UNL     1       7.195   5.014  17.822  0.00  0.00    +0.000 NA
ATOM      7  C   UNL     1       6.150   4.535  17.101  0.00  0.00    +0.000 A 
ATOM      8  H   UNL     1       8.017   5.379  20.856  0.00  0.00    +0.000 HD
ATOM      9  H   UNL     1       8.963   5.563  19.412  0.00  0.00    +0.000 HD
ENDROOT
BRANCH   2  10
ATOM     10  C   UNL     1       3.659   4.025  19.881  0.00  0.00    +0.000 A 
ATOM     11  C   UNL     1       3.522   2.797  20.556  0.00  0.00    +0.000 A 
ATOM     12  C   UNL     1       2.393   2.510  21.333  0.00  0.00    +0.000 A 
ATOM     13  C   UNL     1       1.364   3.440  21.444  0.00  0.00    +0.000 A 
ATOM     14  C   UNL     1       1.473   4.664  20.796  0.00  0.00    +0.000 A 
ATOM     15  C   UNL     1       2.616   4.959  20.048  0.00  0.00    +0.000 A 
ENDBRANCH   2  10
BRANCH   7  16
ATOM     16  C   UNL     1       6.393   4.487  15.657  0.00  0.00    +0.000 A 
ATOM     17  C   UNL     1       5.972   3.571  14.649  0.00  0.00    +0.000 A 
ATOM     18  C   UNL     1       6.455   4.043  13.451  0.00  0.00    +0.000 A 
ATOM     19  O   UNL     1       7.171   5.175  13.647  0.00  0.00    +0.000 OA
ATOM     20  C   UNL     1       7.138   5.435  14.980  0.00  0.00    +0.000 A 
ENDBRANCH   7  16
BRANCH   1  22
ATOM     21  N   UNL     1       2.960   3.249  16.307  0.00  0.00    +0.000 NA
ATOM     22  C   UNL     1       3.861   3.661  16.916  0.00  0.00    +0.000 C 
ENDBRANCH   1  22
TORSDOF 3
ENDMDL
MODEL 2
REMARK VINA RESULT:      -7.2      0.099      1.076
REMARK  Name = 
REMARK  3 active torsions:
REMARK  status: ('A' for Active; 'I' for Inactive)
REMARK    1  A    between atoms: C_2  and  C_3
REMARK    2  A    between atoms: C_4  and  C_5
REMARK    3  A    between atoms: C_15  and  C_16
REMARK                            x       y       z     vdW  Elec       q    Type
REMARK                         _______ _______ _______ _____ _____    ______ ____
ROOT
ATOM      1  C   UNL     1       4.997   4.188  17.647  0.00  0.00    +0.000 A 
ATOM      2  C   UNL     1       4.927   4.344  19.026  0.00  0.00    +0.000 A 
ATOM      3  N   UNL     1       5.995   4.794  19.740  0.00  0.00    +0.000 NA
ATOM      4  C   UNL     1       7.098   5.144  19.080  0.00  0.00    +0.000 A 
ATOM      5  N   UNL     1       8.142   5.660  19.808  0.00  0.00    +0.000 N 
ATOM      6  N   UNL     1       7.245   5.039  17.761  0.00  0.00    +0.000 NA
ATOM      7  C   UNL     1       6.192   4.560  17.051  0.00  0.00    +0.000 A 
ATOM      8  H   UNL     1       8.096   5.412  20.786  0.00  0.00    +0.000 HD
ATOM      9  H   UNL     1       9.029   5.590  19.332  0.00  0.00    +0.000 HD
ENDROOT
BRANCH   2  10
ATOM     10  C   UNL     1       3.727   4.065  19.857  0.00  0.00    +0.000 A 
ATOM     11  C   UNL     1       2.744   5.054  20.055  0.00  0.00    +0.000 A 
ATOM     12  C   UNL     1       1.605   4.810  20.832  0.00  0.00    +0.000 A 
ATOM     13  C   UNL     1       1.427   3.573  21.445  0.00  0.00    +0.000 A 
ATOM     14  C   UNL     1       2.375   2.575  21.263  0.00  0.00    +0.000 A 
ATOM     15  C   UNL     1       3.494   2.811  20.459  0.00  0.00    +0.000 A 
ENDBRANCH   2  10
BRANCH   7  16
ATOM     16  C   UNL     1       6.421   4.506  15.605  0.00  0.00    +0.000 A 
ATOM     17  C   UNL     1       5.945   3.618  14.596  0.00  0.00    +0.000 A 
ATOM     18  C   UNL     1       6.443   4.071  13.397  0.00  0.00    +0.000 A 
ATOM     19  O   UNL     1       7.218   5.163  13.592  0.00  0.00    +0.000 OA
ATOM     20  C   UNL     1       7.210   5.418  14.927  0.00  0.00    +0.000 A 
ENDBRANCH   7  16
BRANCH   1  22
ATOM     21  N   UNL     1       2.994   3.274  16.291  0.00  0.00    +0.000 NA
ATOM     22  C   UNL     1       3.899   3.690  16.890  0.00  0.00    +0.000 C 
ENDBRANCH   1  22
TORSDOF 3
ENDMDL
MODEL 3
REMARK VINA RESULT:      -7.0      3.720      5.070
REMARK  Name = 
REMARK  3 active torsions:
REMARK  status: ('A' for Active; 'I' for Inactive)
REMARK    1  A    between atoms: C_2  and  C_3
REMARK    2  A    between atoms: C_4  and  C_5
REMARK    3  A    between atoms: C_15  and  C_16
REMARK                            x       y       z     vdW  Elec       q    Type
REMARK                         _______ _______ _______ _____ _____    ______ ____
ROOT
ATOM      1  C   UNL     1       2.908   5.660  18.793  0.00  0.00    +0.000 A 
ATOM      2  C   UNL     1       2.953   6.973  18.343  0.00  0.00    +0.000 A 
ATOM      3  N   UNL     1       3.862   7.369  17.410  0.00  0.00    +0.000 NA
ATOM      4  C   UNL     1       4.673   6.452  16.886  0.00  0.00    +0.000 A 
ATOM      5  N   UNL     1       5.537   6.853  15.897  0.00  0.00    +0.000 N 
ATOM      6  N   UNL     1       4.687   5.171  17.250  0.00  0.00    +0.000 NA
ATOM      7  C   UNL     1       3.804   4.782  18.203  0.00  0.00    +0.000 A 
ATOM      8  H   UNL     1       5.703   7.849  15.904  0.00  0.00    +0.000 HD
ATOM      9  H   UNL     1       6.325   6.232  15.783  0.00  0.00    +0.000 HD
ENDROOT
BRANCH   2  10
ATOM     10  C   UNL     1       2.046   8.062  18.795  0.00  0.00    +0.000 A 
ATOM     11  C   UNL     1       1.429   8.916  17.861  0.00  0.00    +0.000 A 
ATOM     12  C   UNL     1       0.571   9.946  18.265  0.00  0.00    +0.000 A 
ATOM     13  C   UNL     1       0.318  10.157  19.617  0.00  0.00    +0.000 A 
ATOM     14  C   UNL     1       0.906   9.327  20.562  0.00  0.00    +0.000 A 
ATOM     15  C   UNL     1       1.737   8.280  20.153  0.00  0.00    +0.000 A 
ENDBRANCH   2  10
BRANCH   7  16
ATOM     16  C   UNL     1       3.860   3.354  18.524  0.00  0.00    +0.000 A 
ATOM     17  C   UNL     1       3.323   2.206  17.869  0.00  0.00    +0.000 A 
ATOM     18  C   UNL     1       3.728   1.107  18.589  0.00  0.00    +0.000 A 
ATOM     19  O   UNL     1       4.459   1.492  19.662  0.00  0.00    +0.000 OA
ATOM     20  C   UNL     1       4.529   2.848  19.625  0.00  0.00    +0.000 A 
ENDBRANCH   7  16
BRANCH   1  22
ATOM     21  N   UNL     1       1.239   4.873  20.605  0.00  0.00    +0.000 NA
ATOM     22  C   UNL     1       1.984   5.238  19.791  0.00  0.00    +0.000 C 
ENDBRANCH   1  22
TORSDOF 3
ENDMDL
MODEL 4
REMARK VINA RESULT:      -7.0      3.718      5.007
REMARK  Name = 
REMARK  3 active torsions:
REMARK  status: ('A' for Active; 'I' for Inactive)
REMARK    1  A    between atoms: C_2  and  C_3
REMARK    2  A    between atoms: C_4  and  C_5
REMARK    3  A    between atoms: C_15  and  C_16
REMARK                            x       y       z     vdW  Elec       q    Type
REMARK                         _______ _______ _______ _____ _____    ______ ____
ROOT
ATOM      1  C   UNL     1       2.902   5.663  18.783  0.00  0.00    +0.000 A 
ATOM      2  C   UNL     1       2.949   6.976  18.332  0.00  0.00    +0.000 A 
ATOM      3  N   UNL     1       3.865   7.371  17.405  0.00  0.00    +0.000 NA
ATOM      4  C   UNL     1       4.681   6.453  16.889  0.00  0.00    +0.000 A 
ATOM      5  N   UNL     1       5.552   6.854  15.906  0.00  0.00    +0.000 N 
ATOM      6  N   UNL     1       4.694   5.173  17.255  0.00  0.00    +0.000 NA
ATOM      7  C   UNL     1       3.803   4.785  18.202  0.00  0.00    +0.000 A 
ATOM      8  H   UNL     1       5.718   7.850  15.912  0.00  0.00    +0.000 HD
ATOM      9  H   UNL     1       6.341   6.233  15.800  0.00  0.00    +0.000 HD
ENDROOT
BRANCH   2  10
ATOM     10  C   UNL     1       2.038   8.064  18.774  0.00  0.00    +0.000 A 
ATOM     11  C   UNL     1       1.760   8.257  20.140  0.00  0.00    +0.000 A 
ATOM     12  C   UNL     1       0.906   9.277  20.578  0.00  0.00    +0.000 A 
ATOM     13  C   UNL     1       0.295  10.122  19.656  0.00  0.00    +0.000 A 
ATOM     14  C   UNL     1       0.554   9.962  18.301  0.00  0.00    +0.000 A 
ATOM     15  C   UNL     1       1.433   8.963  17.871  0.00  0.00    +0.000 A 
ENDBRANCH   2  10
BRANCH   7  16
ATOM     16  C   UNL     1       3.858   3.357  18.525  0.00  0.00    +0.000 A 
ATOM     17  C   UNL     1       3.308   2.210  17.881  0.00  0.00    +0.000 A 
ATOM     18  C   UNL     1       3.719   1.112  18.597  0.00  0.00    +0.000 A 
ATOM     19  O   UNL     1       4.464   1.496  19.660  0.00  0.00    +0.000 OA
ATOM     20  C   UNL     1       4.540   2.852  19.618  0.00  0.00    +0.000 A 
ENDBRANCH   7  16
BRANCH   1  22
ATOM     21  N   UNL     1       1.216   4.877  20.580  0.00  0.00    +0.000 NA
ATOM     22  C   UNL     1       1.970   5.242  19.774  0.00  0.00    +0.000 C 
ENDBRANCH   1  22
TORSDOF 3
ENDMDL
MODEL 5
REMARK VINA RESULT:      -6.9      3.128      6.288
REMARK  Name = 
REMARK  3 active torsions:
REMARK  status: ('A' for Active; 'I' for Inactive)
REMARK    1  A    between atoms: C_2  and  C_3
REMARK    2  A    between atoms: C_4  and  C_5
REMARK    3  A    between atoms: C_15  and  C_16
REMARK                            x       y       z     vdW  Elec       q    Type
REMARK                         _______ _______ _______ _____ _____    ______ ____
ROOT
ATOM      1  C   UNL     1       3.625   4.454  18.138  0.00  0.00    +0.000 A 
ATOM      2  C   UNL     1       4.133   5.375  17.231  0.00  0.00    +0.000 A 
ATOM      3  N   UNL     1       3.751   6.681  17.263  0.00  0.00    +0.000 NA
ATOM      4  C   UNL     1       2.922   7.076  18.228  0.00  0.00    +0.000 A 
ATOM      5  N   UNL     1       2.601   8.410  18.287  0.00  0.00    +0.000 N 
ATOM      6  N   UNL     1       2.400   6.263  19.144  0.00  0.00    +0.000 NA
ATOM      7  C   UNL     1       2.754   4.955  19.093  0.00  0.00    +0.000 A 
ATOM      8  H   UNL     1       2.752   8.888  17.412  0.00  0.00    +0.000 HD
ATOM      9  H   UNL     1       1.746   8.589  18.795  0.00  0.00    +0.000 HD
ENDROOT
BRANCH   2  10
ATOM     10  C   UNL     1       5.123   5.067  16.165  0.00  0.00    +0.000 A 
ATOM     11  C   UNL     1       6.487   5.370  16.343  0.00  0.00    +0.000 A 
ATOM     12  C   UNL     1       7.435   5.086  15.353  0.00  0.00    +0.000 A 
ATOM     13  C   UNL     1       7.041   4.505  14.152  0.00  0.00    +0.000 A 
ATOM     14  C   UNL     1       5.705   4.189  13.948  0.00  0.00    +0.000 A 
ATOM     15  C   UNL     1       4.766   4.443  14.952  0.00  0.00    +0.000 A 
ENDBRANCH   2  10
BRANCH   7  16
ATOM     16  C   UNL     1       2.164   4.134  20.153  0.00  0.00    +0.000 A 
ATOM     17  C   UNL     1       1.063   3.227  20.158  0.00  0.00    +0.000 A 
ATOM     18  C   UNL     1       0.986   2.696  21.424  0.00  0.00    +0.000 A 
ATOM     19  O   UNL     1       1.947   3.230  22.216  0.00  0.00    +0.000 OA
ATOM     20  C   UNL     1       2.650   4.103  21.449  0.00  0.00    +0.000 A 
ENDBRANCH   7  16
BRANCH   1  22
ATOM     21  N   UNL     1       4.295   1.958  18.043  0.00  0.00    +0.000 NA
ATOM     22  C   UNL     1       3.991   3.079  18.098  0.00  0.00    +0.000 C 
ENDBRANCH   1  22
TORSDOF 3
ENDMDL
MODEL 6
REMARK VINA RESULT:      -6.8      3.135      6.297
REMARK  Name = 
REMARK  3 active torsions:
REMARK  status: ('A' for Active; 'I' for Inactive)
REMARK    1  A    between atoms: C_2  and  C_3
REMARK    2  A    between atoms: C_4  and  C_5
REMARK    3  A    between atoms: C_15  and  C_16
REMARK                            x       y       z     vdW  Elec       q    Type
REMARK                         _______ _______ _______ _____ _____    ______ ____
ROOT
ATOM      1  C   UNL     1       3.622   4.458  18.151  0.00  0.00    +0.000 A 
ATOM      2  C   UNL     1       4.131   5.386  17.251  0.00  0.00    +0.000 A 
ATOM      3  N   UNL     1       3.735   6.688  17.281  0.00  0.00    +0.000 NA
ATOM      4  C   UNL     1       2.891   7.072  18.237  0.00  0.00    +0.000 A 
ATOM      5  N   UNL     1       2.554   8.403  18.295  0.00  0.00    +0.000 N 
ATOM      6  N   UNL     1       2.367   6.253  19.146  0.00  0.00    +0.000 NA
ATOM      7  C   UNL     1       2.735   4.948  19.096  0.00  0.00    +0.000 A 
ATOM      8  H   UNL     1       2.711   8.884  17.422  0.00  0.00    +0.000 HD
ATOM      9  H   UNL     1       1.692   8.572  18.793  0.00  0.00    +0.000 HD
ENDROOT
BRANCH   2  10
ATOM     10  C   UNL     1       5.137   5.091  16.197  0.00  0.00    +0.000 A 
ATOM     11  C   UNL     1       4.752   4.481  14.987  0.00  0.00    +0.000 A 
ATOM     12  C   UNL     1       5.683   4.196  13.981  0.00  0.00    +0.000 A 
ATOM     13  C   UNL     1       7.029   4.501  14.166  0.00  0.00    +0.000 A 
ATOM     14  C   UNL     1       7.439   5.108  15.345  0.00  0.00    +0.000 A 
ATOM     15  C   UNL     1       6.501   5.421  16.334  0.00  0.00    +0.000 A 
ENDBRANCH   2  10
BRANCH   7  16
ATOM     16  C   UNL     1       2.142   4.119  20.148  0.00  0.00    +0.000 A 
ATOM     17  C   UNL     1       1.045   3.207  20.141  0.00  0.00    +0.000 A 
ATOM     18  C   UNL     1       0.962   2.669  21.403  0.00  0.00    +0.000 A 
ATOM     19  O   UNL     1       1.914   3.203  22.205  0.00  0.00    +0.000 OA
ATOM     20  C   UNL     1       2.618   4.084  21.447  0.00  0.00    +0.000 A 
ENDBRANCH   7  16
BRANCH   1  22
ATOM     21  N   UNL     1       4.294   1.962  18.088  0.00  0.00    +0.000 NA
ATOM     22  C   UNL     1       4.003   3.087  18.113  0.00  0.00    +0.000 C 
ENDBRANCH   1  22
TORSDOF 3
ENDMDL
MODEL 7
REMARK VINA RESULT:      -6.8      2.216      2.519
REMARK  Name = 
REMARK  3 active torsions:
REMARK  status: ('A' for Active; 'I' for Inactive)
REMARK    1  A    between atoms: C_2  and  C_3
REMARK    2  A    between atoms: C_4  and  C_5
REMARK    3  A    between atoms: C_15  and  C_16
REMARK                            x       y       z     vdW  Elec       q    Type
REMARK                         _______ _______ _______ _____ _____    ______ ____
ROOT
ATOM      1  C   UNL     1       4.091   4.777  17.677  0.00  0.00    +0.000 A 
ATOM      2  C   UNL     1       3.129   5.240  18.566  0.00  0.00    +0.000 A 
ATOM      3  N   UNL     1       2.788   6.557  18.613  0.00  0.00    +0.000 NA
ATOM      4  C   UNL     1       3.353   7.390  17.741  0.00  0.00    +0.000 A 
ATOM      5  N   UNL     1       2.948   8.703  17.756  0.00  0.00    +0.000 N 
ATOM      6  N   UNL     1       4.273   7.028  16.849  0.00  0.00    +0.000 NA
ATOM      7  C   UNL     1       4.637   5.722  16.823  0.00  0.00    +0.000 A 
ATOM      8  H   UNL     1       2.520   8.969  18.631  0.00  0.00    +0.000 HD
ATOM      9  H   UNL     1       3.619   9.329  17.335  0.00  0.00    +0.000 HD
ENDROOT
BRANCH   2  10
ATOM     10  C   UNL     1       2.374   4.392  19.525  0.00  0.00    +0.000 A 
ATOM     11  C   UNL     1       2.802   4.263  20.861  0.00  0.00    +0.000 A 
ATOM     12  C   UNL     1       2.105   3.471  21.781  0.00  0.00    +0.000 A 
ATOM     13  C   UNL     1       0.968   2.774  21.384  0.00  0.00    +0.000 A 
ATOM     14  C   UNL     1       0.516   2.885  20.076  0.00  0.00    +0.000 A 
ATOM     15  C   UNL     1       1.196   3.703  19.169  0.00  0.00    +0.000 A 
ENDBRANCH   2  10
BRANCH   7  16
ATOM     16  C   UNL     1       5.628   5.398  15.793  0.00  0.00    +0.000 A 
ATOM     17  C   UNL     1       5.507   4.785  14.511  0.00  0.00    +0.000 A 
ATOM     18  C   UNL     1       6.762   4.776  13.951  0.00  0.00    +0.000 A 
ATOM     19  O   UNL     1       7.662   5.316  14.806  0.00  0.00    +0.000 OA
ATOM     20  C   UNL     1       6.976   5.683  15.920  0.00  0.00    +0.000 A 
ENDBRANCH   7  16
BRANCH   1  22
ATOM     21  N   UNL     1       4.777   2.285  17.602  0.00  0.00    +0.000 NA
ATOM     22  C   UNL     1       4.480   3.408  17.637  0.00  0.00    +0.000 C 
ENDBRANCH   1  22
TORSDOF 3
ENDMDL
MODEL 8
REMARK VINA RESULT:      -6.7      2.201      2.547
REMARK  Name = 
REMARK  3 active torsions:
REMARK  status: ('A' for Active; 'I' for Inactive)
REMARK    1  A    between atoms: C_2  and  C_3
REMARK    2  A    between atoms: C_4  and  C_5
REMARK    3  A    between atoms: C_15  and  C_16
REMARK                            x       y       z     vdW  Elec       q    Type
REMARK                         _______ _______ _______ _____ _____    ______ ____
ROOT
ATOM      1  C   UNL     1       4.110   4.738  17.692  0.00  0.00    +0.000 A 
ATOM      2  C   UNL     1       3.155   5.205  18.587  0.00  0.00    +0.000 A 
ATOM      3  N   UNL     1       2.814   6.522  18.631  0.00  0.00    +0.000 NA
ATOM      4  C   UNL     1       3.371   7.351  17.750  0.00  0.00    +0.000 A 
ATOM      5  N   UNL     1       2.965   8.663  17.761  0.00  0.00    +0.000 N 
ATOM      6  N   UNL     1       4.283   6.985  16.851  0.00  0.00    +0.000 NA
ATOM      7  C   UNL     1       4.648   5.679  16.828  0.00  0.00    +0.000 A 
ATOM      8  H   UNL     1       2.545   8.935  18.638  0.00  0.00    +0.000 HD
ATOM      9  H   UNL     1       3.632   9.288  17.330  0.00  0.00    +0.000 HD
ENDROOT
BRANCH   2  10
ATOM     10  C   UNL     1       2.410   4.362  19.558  0.00  0.00    +0.000 A 
ATOM     11  C   UNL     1       1.228   3.699  19.175  0.00  0.00    +0.000 A 
ATOM     12  C   UNL     1       0.512   2.898  20.073  0.00  0.00    +0.000 A 
ATOM     13  C   UNL     1       0.953   2.752  21.385  0.00  0.00    +0.000 A 
ATOM     14  C   UNL     1       2.118   3.388  21.792  0.00  0.00    +0.000 A 
ATOM     15  C   UNL     1       2.848   4.159  20.883  0.00  0.00    +0.000 A 
ENDBRANCH   2  10
BRANCH   7  16
ATOM     16  C   UNL     1       5.630   5.350  15.791  0.00  0.00    +0.000 A 
ATOM     17  C   UNL     1       5.496   4.739  14.509  0.00  0.00    +0.000 A 
ATOM     18  C   UNL     1       6.748   4.723  13.941  0.00  0.00    +0.000 A 
ATOM     19  O   UNL     1       7.657   5.256  14.791  0.00  0.00    +0.000 OA
ATOM     20  C   UNL     1       6.980   5.625  15.910  0.00  0.00    +0.000 A 
ENDBRANCH   7  16
BRANCH   1  22
ATOM     21  N   UNL     1       4.813   2.251  17.605  0.00  0.00    +0.000 NA
ATOM     22  C   UNL     1       4.499   3.369  17.656  0.00  0.00    +0.000 C 
ENDBRANCH   1  22
TORSDOF 3
ENDMDL
MODEL 9
REMARK VINA RESULT:      -6.6      2.141      5.892
REMARK  Name = 
REMARK  3 active torsions:
REMARK  status: ('A' for Active; 'I' for Inactive)
REMARK    1  A    between atoms: C_2  and  C_3
REMARK    2  A    between atoms: C_4  and  C_5
REMARK    3  A    between atoms: C_15  and  C_16
REMARK                            x       y       z     vdW  Elec       q    Type
REMARK                         _______ _______ _______ _____ _____    ______ ____
ROOT
ATOM      1  C   UNL     1       4.804   4.247  17.733  0.00  0.00    +0.000 A 
ATOM      2  C   UNL     1       5.970   4.598  17.065  0.00  0.00    +0.000 A 
ATOM      3  N   UNL     1       7.044   5.099  17.735  0.00  0.00    +0.000 NA
ATOM      4  C   UNL     1       6.978   5.188  19.062  0.00  0.00    +0.000 A 
ATOM      5  N   UNL     1       8.095   5.631  19.729  0.00  0.00    +0.000 N 
ATOM      6  N   UNL     1       5.906   4.862  19.781  0.00  0.00    +0.000 NA
ATOM      7  C   UNL     1       4.824   4.393  19.111  0.00  0.00    +0.000 A 
ATOM      8  H   UNL     1       8.723   6.153  19.136  0.00  0.00    +0.000 HD
ATOM      9  H   UNL     1       7.889   5.989  20.651  0.00  0.00    +0.000 HD
ENDROOT
BRANCH   2  10
ATOM     10  C   UNL     1       6.188   4.465  15.600  0.00  0.00    +0.000 A 
ATOM     11  C   UNL     1       7.259   5.128  14.970  0.00  0.00    +0.000 A 
ATOM     12  C   UNL     1       7.482   5.014  13.593  0.00  0.00    +0.000 A 
ATOM     13  C   UNL     1       6.630   4.245  12.806  0.00  0.00    +0.000 A 
ATOM     14  C   UNL     1       5.569   3.574  13.399  0.00  0.00    +0.000 A 
ATOM     15  C   UNL     1       5.369   3.663  14.779  0.00  0.00    +0.000 A 
ENDBRANCH   2  10
BRANCH   7  16
ATOM     16  C   UNL     1       3.699   4.026  19.975  0.00  0.00    +0.000 A 
ATOM     17  C   UNL     1       2.587   4.773  20.465  0.00  0.00    +0.000 A 
ATOM     18  C   UNL     1       1.813   3.906  21.198  0.00  0.00    +0.000 A 
ATOM     19  O   UNL     1       2.379   2.677  21.222  0.00  0.00    +0.000 OA
ATOM     20  C   UNL     1       3.521   2.754  20.491  0.00  0.00    +0.000 A 
ENDBRANCH   7  16
BRANCH   1  22
ATOM     21  N   UNL     1       2.718   3.347  16.498  0.00  0.00    +0.000 NA
ATOM     22  C   UNL     1       3.663   3.751  17.043  0.00  0.00    +0.000 C 
ENDBRANCH   1  22
TORSDOF 3
ENDMDL
