MODEL 1
REMARK VINA RESULT:      -8.9      0.000      0.000
REMARK  Name = 
REMARK  5 active torsions:
REMARK  status: ('A' for Active; 'I' for Inactive)
REMARK    1  A    between atoms: N_1  and  C_2
REMARK    2  A    between atoms: C_9  and  C_10
REMARK    3  A    between atoms: C_13  and  C_14
REMARK    4  A    between atoms: C_26  and  C_27
REMARK    5  A    between atoms: C_27  and  O_29
REMARK                            x       y       z     vdW  Elec       q    Type
REMARK                         _______ _______ _______ _____ _____    ______ ____
ROOT
ATOM      1  C   UNL     1      -0.743  11.127  20.771  0.00  0.00    +0.000 A 
ATOM      2  N   UNL     1      -0.249   9.925  21.179  0.00  0.00    +0.000 NA
ATOM      3  C   UNL     1       0.604   9.259  20.354  0.00  0.00    +0.000 A 
ATOM      4  O   UNL     1       1.059   8.027  20.808  0.00  0.00    +0.000 OA
ATOM      5  C   UNL     1       1.954   7.333  20.014  0.00  0.00    +0.000 A 
ATOM      6  C   UNL     1       2.422   6.085  20.471  0.00  0.00    +0.000 A 
ATOM      7  C   UNL     1       3.339   5.354  19.692  0.00  0.00    +0.000 A 
ATOM      8  C   UNL     1       3.793   5.846  18.458  0.00  0.00    +0.000 A 
ATOM      9  C   UNL     1       3.314   7.068  18.009  0.00  0.00    +0.000 A 
ATOM     10  C   UNL     1       2.407   7.789  18.783  0.00  0.00    +0.000 A 
ATOM     11  C   UNL     1       1.920   9.071  18.296  0.00  0.00    +0.000 A 
ATOM     12  O   UNL     1       2.288   9.531  17.218  0.00  0.00    +0.000 OA
ATOM     13  C   UNL     1       0.985   9.793  19.142  0.00  0.00    +0.000 A 
ATOM     14  C   UNL     1       0.486  11.022  18.727  0.00  0.00    +0.000 A 
ATOM     15  C   UNL     1      -0.402  11.706  19.545  0.00  0.00    +0.000 A 
ENDROOT
BRANCH   8  16
ATOM     16  C   UNL     1       4.739   5.106  17.614  0.00  0.00    +0.000 C 
ATOM     17  C   UNL     1       6.045   5.425  17.635  0.00  0.00    +0.000 C 
ATOM     18  C   UNL     1       7.070   4.726  16.788  0.00  0.00    +0.000 C 
ATOM     19  C   UNL     1       6.444   3.920  15.638  0.00  0.00    +0.000 C 
ATOM     20  C   UNL     1       5.278   3.080  16.184  0.00  0.00    +0.000 C 
ATOM     21  C   UNL     1       4.182   3.954  16.814  0.00  0.00    +0.000 C 
BRANCH  19  22
ATOM     22  C   UNL     1       6.021   4.815  14.470  0.00  0.00    +0.000 C 
ATOM     23  F   UNL     1       5.529   6.007  14.870  0.00  0.00    +0.000 F 
ATOM     24  F   UNL     1       7.087   5.076  13.678  0.00  0.00    +0.000 F 
ATOM     25  F   UNL     1       5.089   4.242  13.676  0.00  0.00    +0.000 F 
ENDBRANCH  19  22
ENDBRANCH   8  16
BRANCH   1  26
ATOM     26  N   UNL     1      -1.590  11.750  21.692  0.00  0.00    +0.000 N 
ATOM     27  H   UNL     1      -1.027  11.907  22.533  0.00  0.00    +0.000 HD
ATOM     28  H   UNL     1      -2.387  11.161  21.928  0.00  0.00    +0.000 HD
ENDBRANCH   1  26
BRANCH  15  29
ATOM     29  C   UNL     1      -0.924  12.988  19.002  0.00  0.00    +0.000 C 
ATOM     30  O   UNL     1      -1.260  13.898  19.743  0.00  0.00    +0.000 OA
BRANCH  29  31
ATOM     31  O   UNL     1      -1.055  13.053  17.667  0.00  0.00    +0.000 OA
ATOM     32  H   UNL     1      -0.665  12.294  17.184  0.00  0.00    +0.000 HD
ENDBRANCH  29  31
ENDBRANCH  15  29
TORSDOF 5
ENDMDL
MODEL 2
REMARK VINA RESULT:      -8.8      2.694      3.925
REMARK  Name = 
REMARK  5 active torsions:
REMARK  status: ('A' for Active; 'I' for Inactive)
REMARK    1  A    between atoms: N_1  and  C_2
REMARK    2  A    between atoms: C_9  and  C_10
REMARK    3  A    between atoms: C_13  and  C_14
REMARK    4  A    between atoms: C_26  and  C_27
REMARK    5  A    between atoms: C_27  and  O_29
REMARK                            x       y       z     vdW  Elec       q    Type
REMARK                         _______ _______ _______ _____ _____    ______ ____
ROOT
ATOM      1  C   UNL     1      -0.941  13.338  20.440  0.00  0.00    +0.000 A 
ATOM      2  N   UNL     1      -0.358  12.629  19.433  0.00  0.00    +0.000 NA
ATOM      3  C   UNL     1       0.168  11.407  19.719  0.00  0.00    +0.000 A 
ATOM      4  O   UNL     1       0.772  10.737  18.660  0.00  0.00    +0.000 OA
ATOM      5  C   UNL     1       1.289   9.478  18.901  0.00  0.00    +0.000 A 
ATOM      6  C   UNL     1       1.899   8.792  17.832  0.00  0.00    +0.000 A 
ATOM      7  C   UNL     1       2.431   7.504  18.038  0.00  0.00    +0.000 A 
ATOM      8  C   UNL     1       2.370   6.892  19.300  0.00  0.00    +0.000 A 
ATOM      9  C   UNL     1       1.782   7.581  20.350  0.00  0.00    +0.000 A 
ATOM     10  C   UNL     1       1.256   8.854  20.142  0.00  0.00    +0.000 A 
ATOM     11  C   UNL     1       0.640   9.558  21.255  0.00  0.00    +0.000 A 
ATOM     12  O   UNL     1       0.574   9.058  22.376  0.00  0.00    +0.000 OA
ATOM     13  C   UNL     1       0.095  10.879  20.989  0.00  0.00    +0.000 A 
ATOM     14  C   UNL     1      -0.504  11.598  22.016  0.00  0.00    +0.000 A 
ATOM     15  C   UNL     1      -1.028  12.856  21.750  0.00  0.00    +0.000 A 
ENDROOT
BRANCH   8  16
ATOM     16  C   UNL     1       2.924   5.556  19.554  0.00  0.00    +0.000 C 
ATOM     17  C   UNL     1       4.190   5.277  19.195  0.00  0.00    +0.000 C 
ATOM     18  C   UNL     1       4.820   3.930  19.405  0.00  0.00    +0.000 C 
ATOM     19  C   UNL     1       3.788   2.826  19.684  0.00  0.00    +0.000 C 
ATOM     20  C   UNL     1       2.791   3.319  20.745  0.00  0.00    +0.000 C 
ATOM     21  C   UNL     1       2.039   4.579  20.289  0.00  0.00    +0.000 C 
BRANCH  19  22
ATOM     22  C   UNL     1       3.092   2.351  18.405  0.00  0.00    +0.000 C 
ATOM     23  F   UNL     1       3.206   3.229  17.385  0.00  0.00    +0.000 F 
ATOM     24  F   UNL     1       3.639   1.187  17.985  0.00  0.00    +0.000 F 
ATOM     25  F   UNL     1       1.773   2.109  18.580  0.00  0.00    +0.000 F 
ENDBRANCH  19  22
ENDBRANCH   8  16
BRANCH   1  26
ATOM     26  N   UNL     1      -1.475  14.569  20.050  0.00  0.00    +0.000 N 
ATOM     27  H   UNL     1      -2.484  14.503  20.212  0.00  0.00    +0.000 HD
ATOM     28  H   UNL     1      -1.306  14.757  19.064  0.00  0.00    +0.000 HD
ENDBRANCH   1  26
BRANCH  15  29
ATOM     29  C   UNL     1      -1.605  13.576  22.915  0.00  0.00    +0.000 C 
ATOM     30  O   UNL     1      -0.914  13.885  23.873  0.00  0.00    +0.000 OA
BRANCH  29  31
ATOM     31  O   UNL     1      -2.927  13.807  22.869  0.00  0.00    +0.000 OA
ATOM     32  H   UNL     1      -3.237  14.511  23.477  0.00  0.00    +0.000 HD
ENDBRANCH  29  31
ENDBRANCH  15  29
TORSDOF 5
ENDMDL
MODEL 3
REMARK VINA RESULT:      -8.5      1.598      2.076
REMARK  Name = 
REMARK  5 active torsions:
REMARK  status: ('A' for Active; 'I' for Inactive)
REMARK    1  A    between atoms: N_1  and  C_2
REMARK    2  A    between atoms: C_9  and  C_10
REMARK    3  A    between atoms: C_13  and  C_14
REMARK    4  A    between atoms: C_26  and  C_27
REMARK    5  A    between atoms: C_27  and  O_29
REMARK                            x       y       z     vdW  Elec       q    Type
REMARK                         _______ _______ _______ _____ _____    ______ ____
ROOT
ATOM      1  C   UNL     1      -1.269  11.637  21.795  0.00  0.00    +0.000 A 
ATOM      2  N   UNL     1      -0.787  10.387  22.041  0.00  0.00    +0.000 NA
ATOM      3  C   UNL     1       0.006   9.801  21.104  0.00  0.00    +0.000 A 
ATOM      4  O   UNL     1       0.450   8.516  21.394  0.00  0.00    +0.000 OA
ATOM      5  C   UNL     1       1.286   7.898  20.483  0.00  0.00    +0.000 A 
ATOM      6  C   UNL     1       1.743   6.596  20.773  0.00  0.00    +0.000 A 
ATOM      7  C   UNL     1       2.601   5.938  19.872  0.00  0.00    +0.000 A 
ATOM      8  C   UNL     1       3.007   6.557  18.678  0.00  0.00    +0.000 A 
ATOM      9  C   UNL     1       2.540   7.831  18.393  0.00  0.00    +0.000 A 
ATOM     10  C   UNL     1       1.691   8.479  19.288  0.00  0.00    +0.000 A 
ATOM     11  C   UNL     1       1.215   9.818  18.973  0.00  0.00    +0.000 A 
ATOM     12  O   UNL     1       1.542  10.389  17.936  0.00  0.00    +0.000 OA
ATOM     13  C   UNL     1       0.342  10.459  19.941  0.00  0.00    +0.000 A 
ATOM     14  C   UNL     1      -0.144  11.737  19.691  0.00  0.00    +0.000 A 
ATOM     15  C   UNL     1      -0.973  12.344  20.625  0.00  0.00    +0.000 A 
ENDROOT
BRANCH   8  16
ATOM     16  C   UNL     1       3.891   5.896  17.710  0.00  0.00    +0.000 C 
ATOM     17  C   UNL     1       3.913   4.554  17.631  0.00  0.00    +0.000 C 
ATOM     18  C   UNL     1       4.803   3.807  16.679  0.00  0.00    +0.000 C 
ATOM     19  C   UNL     1       5.939   4.676  16.117  0.00  0.00    +0.000 C 
ATOM     20  C   UNL     1       5.362   6.021  15.646  0.00  0.00    +0.000 C 
ATOM     21  C   UNL     1       4.684   6.792  16.790  0.00  0.00    +0.000 C 
BRANCH  19  22
ATOM     22  C   UNL     1       7.082   4.852  17.121  0.00  0.00    +0.000 C 
ATOM     23  F   UNL     1       6.719   4.562  18.390  0.00  0.00    +0.000 F 
ATOM     24  F   UNL     1       8.105   4.024  16.806  0.00  0.00    +0.000 F 
ATOM     25  F   UNL     1       7.593   6.104  17.126  0.00  0.00    +0.000 F 
ENDBRANCH  19  22
ENDBRANCH   8  16
BRANCH   1  26
ATOM     26  N   UNL     1      -2.053  12.170  22.822  0.00  0.00    +0.000 N 
ATOM     27  H   UNL     1      -2.208  11.405  23.485  0.00  0.00    +0.000 HD
ATOM     28  H   UNL     1      -2.952  12.501  22.476  0.00  0.00    +0.000 HD
ENDBRANCH   1  26
BRANCH  15  29
ATOM     29  C   UNL     1      -1.486  13.689  20.256  0.00  0.00    +0.000 C 
ATOM     30  O   UNL     1      -0.740  14.554  19.826  0.00  0.00    +0.000 OA
BRANCH  29  31
ATOM     31  O   UNL     1      -2.793  13.903  20.479  0.00  0.00    +0.000 OA
ATOM     32  H   UNL     1      -3.010  14.170  21.397  0.00  0.00    +0.000 HD
ENDBRANCH  29  31
ENDBRANCH  15  29
TORSDOF 5
ENDMDL
MODEL 4
REMARK VINA RESULT:      -8.4      3.148      5.072
REMARK  Name = 
REMARK  5 active torsions:
REMARK  status: ('A' for Active; 'I' for Inactive)
REMARK    1  A    between atoms: N_1  and  C_2
REMARK    2  A    between atoms: C_9  and  C_10
REMARK    3  A    between atoms: C_13  and  C_14
REMARK    4  A    between atoms: C_26  and  C_27
REMARK    5  A    between atoms: C_27  and  O_29
REMARK                            x       y       z     vdW  Elec       q    Type
REMARK                         _______ _______ _______ _____ _____    ______ ____
ROOT
ATOM      1  C   UNL     1      -2.808  13.975  22.399  0.00  0.00    +0.000 A 
ATOM      2  N   UNL     1      -2.077  13.768  21.269  0.00  0.00    +0.000 NA
ATOM      3  C   UNL     1      -1.396  12.596  21.140  0.00  0.00    +0.000 A 
ATOM      4  O   UNL     1      -0.647  12.448  19.979  0.00  0.00    +0.000 OA
ATOM      5  C   UNL     1       0.033  11.258  19.795  0.00  0.00    +0.000 A 
ATOM      6  C   UNL     1       0.792  11.099  18.618  0.00  0.00    +0.000 A 
ATOM      7  C   UNL     1       1.491   9.898  18.393  0.00  0.00    +0.000 A 
ATOM      8  C   UNL     1       1.451   8.852  19.329  0.00  0.00    +0.000 A 
ATOM      9  C   UNL     1       0.715   9.024  20.492  0.00  0.00    +0.000 A 
ATOM     10  C   UNL     1       0.024  10.213  20.710  0.00  0.00    +0.000 A 
ATOM     11  C   UNL     1      -0.747  10.372  21.934  0.00  0.00    +0.000 A 
ATOM     12  O   UNL     1      -0.800   9.483  22.781  0.00  0.00    +0.000 OA
ATOM     13  C   UNL     1      -1.461  11.624  22.115  0.00  0.00    +0.000 A 
ATOM     14  C   UNL     1      -2.212  11.832  23.266  0.00  0.00    +0.000 A 
ATOM     15  C   UNL     1      -2.896  13.029  23.425  0.00  0.00    +0.000 A 
ENDROOT
BRANCH   8  16
ATOM     16  C   UNL     1       2.178   7.591  19.133  0.00  0.00    +0.000 C 
ATOM     17  C   UNL     1       2.921   7.413  18.027  0.00  0.00    +0.000 C 
ATOM     18  C   UNL     1       3.677   6.145  17.747  0.00  0.00    +0.000 C 
ATOM     19  C   UNL     1       3.206   4.966  18.615  0.00  0.00    +0.000 C 
ATOM     20  C   UNL     1       3.101   5.424  20.078  0.00  0.00    +0.000 C 
ATOM     21  C   UNL     1       2.101   6.580  20.251  0.00  0.00    +0.000 C 
BRANCH  19  22
ATOM     22  C   UNL     1       1.900   4.356  18.099  0.00  0.00    +0.000 C 
ATOM     23  F   UNL     1       1.230   5.175  17.260  0.00  0.00    +0.000 F 
ATOM     24  F   UNL     1       2.161   3.219  17.413  0.00  0.00    +0.000 F 
ATOM     25  F   UNL     1       1.048   4.014  19.092  0.00  0.00    +0.000 F 
ENDBRANCH  19  22
ENDBRANCH   8  16
BRANCH   1  26
ATOM     26  N   UNL     1      -3.493  15.193  22.433  0.00  0.00    +0.000 N 
ATOM     27  H   UNL     1      -3.931  15.297  21.513  0.00  0.00    +0.000 HD
ATOM     28  H   UNL     1      -2.861  15.975  22.594  0.00  0.00    +0.000 HD
ENDBRANCH   1  26
BRANCH  15  29
ATOM     29  C   UNL     1      -3.632  13.187  24.706  0.00  0.00    +0.000 C 
ATOM     30  O   UNL     1      -4.290  12.271  25.174  0.00  0.00    +0.000 OA
BRANCH  29  31
ATOM     31  O   UNL     1      -3.574  14.403  25.274  0.00  0.00    +0.000 OA
ATOM     32  H   UNL     1      -3.817  15.141  24.677  0.00  0.00    +0.000 HD
ENDBRANCH  29  31
ENDBRANCH  15  29
TORSDOF 5
ENDMDL
MODEL 5
REMARK VINA RESULT:      -8.4      5.246      9.516
REMARK  Name = 
REMARK  5 active torsions:
REMARK  status: ('A' for Active; 'I' for Inactive)
REMARK    1  A    between atoms: N_1  and  C_2
REMARK    2  A    between atoms: C_9  and  C_10
REMARK    3  A    between atoms: C_13  and  C_14
REMARK    4  A    between atoms: C_26  and  C_27
REMARK    5  A    between atoms: C_27  and  O_29
REMARK                            x       y       z     vdW  Elec       q    Type
REMARK                         _______ _______ _______ _____ _____    ______ ____
ROOT
ATOM      1  C   UNL     1       4.410   3.992  17.561  0.00  0.00    +0.000 A 
ATOM      2  N   UNL     1       4.095   5.258  17.169  0.00  0.00    +0.000 NA
ATOM      3  C   UNL     1       3.374   6.041  18.017  0.00  0.00    +0.000 A 
ATOM      4  O   UNL     1       3.059   7.314  17.557  0.00  0.00    +0.000 OA
ATOM      5  C   UNL     1       2.355   8.152  18.402  0.00  0.00    +0.000 A 
ATOM      6  C   UNL     1       2.036   9.446  17.943  0.00  0.00    +0.000 A 
ATOM      7  C   UNL     1       1.327  10.331  18.778  0.00  0.00    +0.000 A 
ATOM      8  C   UNL     1       0.924   9.941  20.066  0.00  0.00    +0.000 A 
ATOM      9  C   UNL     1       1.229   8.660  20.503  0.00  0.00    +0.000 A 
ATOM     10  C   UNL     1       1.931   7.789  19.674  0.00  0.00    +0.000 A 
ATOM     11  C   UNL     1       2.245   6.451  20.152  0.00  0.00    +0.000 A 
ATOM     12  O   UNL     1       1.904   6.071  21.269  0.00  0.00    +0.000 OA
ATOM     13  C   UNL     1       2.989   5.581  19.258  0.00  0.00    +0.000 A 
ATOM     14  C   UNL     1       3.315   4.291  19.662  0.00  0.00    +0.000 A 
ATOM     15  C   UNL     1       4.032   3.470  18.802  0.00  0.00    +0.000 A 
ENDROOT
BRANCH   8  16
ATOM     16  C   UNL     1       0.174  10.832  20.959  0.00  0.00    +0.000 C 
ATOM     17  C   UNL     1      -0.583  10.312  21.941  0.00  0.00    +0.000 C 
ATOM     18  C   UNL     1      -1.393  11.158  22.882  0.00  0.00    +0.000 C 
ATOM     19  C   UNL     1      -1.587  12.595  22.376  0.00  0.00    +0.000 C 
ATOM     20  C   UNL     1      -0.236  13.153  21.901  0.00  0.00    +0.000 C 
ATOM     21  C   UNL     1       0.366  12.316  20.760  0.00  0.00    +0.000 C 
BRANCH  19  22
ATOM     22  C   UNL     1      -2.667  12.684  21.293  0.00  0.00    +0.000 C 
ATOM     23  F   UNL     1      -2.497  11.783  20.302  0.00  0.00    +0.000 F 
ATOM     24  F   UNL     1      -3.885  12.448  21.835  0.00  0.00    +0.000 F 
ATOM     25  F   UNL     1      -2.738  13.905  20.716  0.00  0.00    +0.000 F 
ENDBRANCH  19  22
ENDBRANCH   8  16
BRANCH   1  26
ATOM     26  N   UNL     1       5.173   3.271  16.638  0.00  0.00    +0.000 N 
ATOM     27  H   UNL     1       4.664   3.320  15.751  0.00  0.00    +0.000 HD
ATOM     28  H   UNL     1       5.273   2.296  16.914  0.00  0.00    +0.000 HD
ENDBRANCH   1  26
BRANCH  15  29
ATOM     29  C   UNL     1       4.294   2.093  19.294  0.00  0.00    +0.000 C 
ATOM     30  O   UNL     1       4.870   1.899  20.353  0.00  0.00    +0.000 OA
BRANCH  29  31
ATOM     31  O   UNL     1       3.913   1.094  18.481  0.00  0.00    +0.000 OA
ATOM     32  H   UNL     1       3.149   1.308  17.906  0.00  0.00    +0.000 HD
ENDBRANCH  29  31
ENDBRANCH  15  29
TORSDOF 5
ENDMDL
MODEL 6
REMARK VINA RESULT:      -8.4      2.970      4.384
REMARK  Name = 
REMARK  5 active torsions:
REMARK  status: ('A' for Active; 'I' for Inactive)
REMARK    1  A    between atoms: N_1  and  C_2
REMARK    2  A    between atoms: C_9  and  C_10
REMARK    3  A    between atoms: C_13  and  C_14
REMARK    4  A    between atoms: C_26  and  C_27
REMARK    5  A    between atoms: C_27  and  O_29
REMARK                            x       y       z     vdW  Elec       q    Type
REMARK                         _______ _______ _______ _____ _____    ______ ____
ROOT
ATOM      1  C   UNL     1      -0.826  14.040  20.204  0.00  0.00    +0.000 A 
ATOM      2  N   UNL     1      -0.179  13.292  19.268  0.00  0.00    +0.000 NA
ATOM      3  C   UNL     1       0.217  12.033  19.602  0.00  0.00    +0.000 A 
ATOM      4  O   UNL     1       0.894  11.323  18.617  0.00  0.00    +0.000 OA
ATOM      5  C   UNL     1       1.284  10.028  18.905  0.00  0.00    +0.000 A 
ATOM      6  C   UNL     1       1.967   9.300  17.910  0.00  0.00    +0.000 A 
ATOM      7  C   UNL     1       2.373   7.977  18.165  0.00  0.00    +0.000 A 
ATOM      8  C   UNL     1       2.114   7.368  19.404  0.00  0.00    +0.000 A 
ATOM      9  C   UNL     1       1.455   8.097  20.383  0.00  0.00    +0.000 A 
ATOM     10  C   UNL     1       1.054   9.406  20.126  0.00  0.00    +0.000 A 
ATOM     11  C   UNL     1       0.360  10.152  21.164  0.00  0.00    +0.000 A 
ATOM     12  O   UNL     1       0.122   9.656  22.263  0.00  0.00    +0.000 OA
ATOM     13  C   UNL     1      -0.050  11.510  20.848  0.00  0.00    +0.000 A 
ATOM     14  C   UNL     1      -0.714  12.270  21.803  0.00  0.00    +0.000 A 
ATOM     15  C   UNL     1      -1.107  13.564  21.488  0.00  0.00    +0.000 A 
ENDROOT
BRANCH   8  16
ATOM     16  C   UNL     1       2.534   5.994  19.708  0.00  0.00    +0.000 C 
ATOM     17  C   UNL     1       3.685   5.518  19.202  0.00  0.00    +0.000 C 
ATOM     18  C   UNL     1       4.170   4.119  19.454  0.00  0.00    +0.000 C 
ATOM     19  C   UNL     1       3.067   3.191  19.987  0.00  0.00    +0.000 C 
ATOM     20  C   UNL     1       2.314   3.899  21.125  0.00  0.00    +0.000 C 
ATOM     21  C   UNL     1       1.660   5.209  20.656  0.00  0.00    +0.000 C 
BRANCH  19  22
ATOM     22  C   UNL     1       2.128   2.714  18.875  0.00  0.00    +0.000 C 
ATOM     23  F   UNL     1       2.334   1.425  18.527  0.00  0.00    +0.000 F 
ATOM     24  F   UNL     1       0.842   2.811  19.283  0.00  0.00    +0.000 F 
ATOM     25  F   UNL     1       2.226   3.454  17.747  0.00  0.00    +0.000 F 
ENDBRANCH  19  22
ENDBRANCH   8  16
BRANCH   1  26
ATOM     26  N   UNL     1      -1.217  15.309  19.766  0.00  0.00    +0.000 N 
ATOM     27  H   UNL     1      -1.366  15.867  20.612  0.00  0.00    +0.000 HD
ATOM     28  H   UNL     1      -2.083  15.272  19.232  0.00  0.00    +0.000 HD
ENDBRANCH   1  26
BRANCH  15  29
ATOM     29  C   UNL     1      -1.767  14.323  22.583  0.00  0.00    +0.000 C 
ATOM     30  O   UNL     1      -1.314  14.320  23.716  0.00  0.00    +0.000 OA
BRANCH  29  31
ATOM     31  O   UNL     1      -2.909  14.952  22.259  0.00  0.00    +0.000 OA
ATOM     32  H   UNL     1      -3.507  14.434  21.680  0.00  0.00    +0.000 HD
ENDBRANCH  29  31
ENDBRANCH  15  29
TORSDOF 5
ENDMDL
MODEL 7
REMARK VINA RESULT:      -8.3      2.605      3.290
REMARK  Name = 
REMARK  5 active torsions:
REMARK  status: ('A' for Active; 'I' for Inactive)
REMARK    1  A    between atoms: N_1  and  C_2
REMARK    2  A    between atoms: C_9  and  C_10
REMARK    3  A    between atoms: C_13  and  C_14
REMARK    4  A    between atoms: C_26  and  C_27
REMARK    5  A    between atoms: C_27  and  O_29
REMARK                            x       y       z     vdW  Elec       q    Type
REMARK                         _______ _______ _______ _____ _____    ______ ____
ROOT
ATOM      1  C   UNL     1       0.196  13.336  20.896  0.00  0.00    +0.000 A 
ATOM      2  N   UNL     1       0.246  12.103  21.471  0.00  0.00    +0.000 NA
ATOM      3  C   UNL     1       0.708  11.058  20.731  0.00  0.00    +0.000 A 
ATOM      4  O   UNL     1       0.714   9.818  21.360  0.00  0.00    +0.000 OA
ATOM      5  C   UNL     1       1.207   8.737  20.653  0.00  0.00    +0.000 A 
ATOM      6  C   UNL     1       1.220   7.477  21.286  0.00  0.00    +0.000 A 
ATOM      7  C   UNL     1       1.721   6.354  20.600  0.00  0.00    +0.000 A 
ATOM      8  C   UNL     1       2.205   6.467  19.286  0.00  0.00    +0.000 A 
ATOM      9  C   UNL     1       2.173   7.707  18.666  0.00  0.00    +0.000 A 
ATOM     10  C   UNL     1       1.677   8.816  19.349  0.00  0.00    +0.000 A 
ATOM     11  C   UNL     1       1.657  10.109  18.682  0.00  0.00    +0.000 A 
ATOM     12  O   UNL     1       2.064  10.246  17.531  0.00  0.00    +0.000 OA
ATOM     13  C   UNL     1       1.142  11.239  19.436  0.00  0.00    +0.000 A 
ATOM     14  C   UNL     1       1.096  12.498  18.849  0.00  0.00    +0.000 A 
ATOM     15  C   UNL     1       0.609  13.572  19.581  0.00  0.00    +0.000 A 
ENDROOT
BRANCH   8  16
ATOM     16  C   UNL     1       2.723   5.316  18.537  0.00  0.00    +0.000 C 
ATOM     17  C   UNL     1       1.877   4.530  17.848  0.00  0.00    +0.000 C 
ATOM     18  C   UNL     1       2.331   3.325  17.073  0.00  0.00    +0.000 C 
ATOM     19  C   UNL     1       3.742   2.860  17.464  0.00  0.00    +0.000 C 
ATOM     20  C   UNL     1       4.683   4.075  17.506  0.00  0.00    +0.000 C 
ATOM     21  C   UNL     1       4.221   5.128  18.527  0.00  0.00    +0.000 C 
BRANCH  19  22
ATOM     22  C   UNL     1       3.746   2.074  18.778  0.00  0.00    +0.000 C 
ATOM     23  F   UNL     1       3.973   0.754  18.602  0.00  0.00    +0.000 F 
ATOM     24  F   UNL     1       4.725   2.536  19.591  0.00  0.00    +0.000 F 
ATOM     25  F   UNL     1       2.591   2.193  19.470  0.00  0.00    +0.000 F 
ENDBRANCH  19  22
ENDBRANCH   8  16
BRANCH   1  26
ATOM     26  N   UNL     1      -0.267  14.352  21.737  0.00  0.00    +0.000 N 
ATOM     27  H   UNL     1       0.470  14.501  22.432  0.00  0.00    +0.000 HD
ATOM     28  H   UNL     1      -1.127  14.084  22.212  0.00  0.00    +0.000 HD
ENDBRANCH   1  26
BRANCH  15  29
ATOM     29  C   UNL     1       0.550  14.871  18.860  0.00  0.00    +0.000 C 
ATOM     30  O   UNL     1       1.569  15.453  18.522  0.00  0.00    +0.000 OA
BRANCH  29  31
ATOM     31  O   UNL     1      -0.677  15.380  18.661  0.00  0.00    +0.000 OA
ATOM     32  H   UNL     1      -1.036  15.881  19.424  0.00  0.00    +0.000 HD
ENDBRANCH  29  31
ENDBRANCH  15  29
TORSDOF 5
ENDMDL
MODEL 8
REMARK VINA RESULT:      -8.3      2.878      4.405
REMARK  Name = 
REMARK  5 active torsions:
REMARK  status: ('A' for Active; 'I' for Inactive)
REMARK    1  A    between atoms: N_1  and  C_2
REMARK    2  A    between atoms: C_9  and  C_10
REMARK    3  A    between atoms: C_13  and  C_14
REMARK    4  A    between atoms: C_26  and  C_27
REMARK    5  A    between atoms: C_27  and  O_29
REMARK                            x       y       z     vdW  Elec       q    Type
REMARK                         _______ _______ _______ _____ _____    ______ ____
ROOT
ATOM      1  C   UNL     1      -1.344  13.911  21.429  0.00  0.00    +0.000 A 
ATOM      2  N   UNL     1      -0.655  13.444  20.351  0.00  0.00    +0.000 NA
ATOM      3  C   UNL     1      -0.171  12.173  20.389  0.00  0.00    +0.000 A 
ATOM      4  O   UNL     1       0.544  11.756  19.272  0.00  0.00    +0.000 OA
ATOM      5  C   UNL     1       1.024  10.460  19.258  0.00  0.00    +0.000 A 
ATOM      6  C   UNL     1       1.746  10.029  18.127  0.00  0.00    +0.000 A 
ATOM      7  C   UNL     1       2.245   8.713  18.073  0.00  0.00    +0.000 A 
ATOM      8  C   UNL     1       2.039   7.819  19.137  0.00  0.00    +0.000 A 
ATOM      9  C   UNL     1       1.340   8.257  20.253  0.00  0.00    +0.000 A 
ATOM     10  C   UNL     1       0.848   9.559  20.301  0.00  0.00    +0.000 A 
ATOM     11  C   UNL     1       0.114   9.997  21.478  0.00  0.00    +0.000 A 
ATOM     12  O   UNL     1      -0.080   9.247  22.431  0.00  0.00    +0.000 OA
ATOM     13  C   UNL     1      -0.390  11.360  21.480  0.00  0.00    +0.000 A 
ATOM     14  C   UNL     1      -1.097  11.833  22.579  0.00  0.00    +0.000 A 
ATOM     15  C   UNL     1      -1.580  13.135  22.568  0.00  0.00    +0.000 A 
ENDROOT
BRANCH   8  16
ATOM     16  C   UNL     1       2.554   6.444  19.120  0.00  0.00    +0.000 C 
ATOM     17  C   UNL     1       3.422   6.066  18.166  0.00  0.00    +0.000 C 
ATOM     18  C   UNL     1       3.978   4.674  18.073  0.00  0.00    +0.000 C 
ATOM     19  C   UNL     1       3.174   3.655  18.896  0.00  0.00    +0.000 C 
ATOM     20  C   UNL     1       2.916   4.226  20.299  0.00  0.00    +0.000 C 
ATOM     21  C   UNL     1       2.121   5.541  20.250  0.00  0.00    +0.000 C 
BRANCH  19  22
ATOM     22  C   UNL     1       1.881   3.235  18.190  0.00  0.00    +0.000 C 
ATOM     23  F   UNL     1       0.834   3.113  19.035  0.00  0.00    +0.000 F 
ATOM     24  F   UNL     1       1.536   4.163  17.268  0.00  0.00    +0.000 F 
ATOM     25  F   UNL     1       1.998   2.064  17.525  0.00  0.00    +0.000 F 
ENDBRANCH  19  22
ENDBRANCH   8  16
BRANCH   1  26
ATOM     26  N   UNL     1      -1.824  15.217  21.292  0.00  0.00    +0.000 N 
ATOM     27  H   UNL     1      -0.997  15.817  21.229  0.00  0.00    +0.000 HD
ATOM     28  H   UNL     1      -2.383  15.499  22.095  0.00  0.00    +0.000 HD
ENDBRANCH   1  26
BRANCH  15  29
ATOM     29  C   UNL     1      -2.281  13.574  23.802  0.00  0.00    +0.000 C 
ATOM     30  O   UNL     1      -1.889  14.536  24.443  0.00  0.00    +0.000 OA
BRANCH  29  31
ATOM     31  O   UNL     1      -3.322  12.818  24.190  0.00  0.00    +0.000 OA
ATOM     32  H   UNL     1      -3.371  11.941  23.755  0.00  0.00    +0.000 HD
ENDBRANCH  29  31
ENDBRANCH  15  29
TORSDOF 5
ENDMDL
MODEL 9
REMARK VINA RESULT:      -8.3      5.287      9.486
REMARK  Name = 
REMARK  5 active torsions:
REMARK  status: ('A' for Active; 'I' for Inactive)
REMARK    1  A    between atoms: N_1  and  C_2
REMARK    2  A    between atoms: C_9  and  C_10
REMARK    3  A    between atoms: C_13  and  C_14
REMARK    4  A    between atoms: C_26  and  C_27
REMARK    5  A    between atoms: C_27  and  O_29
REMARK                            x       y       z     vdW  Elec       q    Type
REMARK                         _______ _______ _______ _____ _____    ______ ____
ROOT
ATOM      1  C   UNL     1       4.784   4.292  17.727  0.00  0.00    +0.000 A 
ATOM      2  N   UNL     1       4.490   5.553  17.306  0.00  0.00    +0.000 NA
ATOM      3  C   UNL     1       3.597   6.287  18.026  0.00  0.00    +0.000 A 
ATOM      4  O   UNL     1       3.315   7.558  17.538  0.00  0.00    +0.000 OA
ATOM      5  C   UNL     1       2.438   8.348  18.258  0.00  0.00    +0.000 A 
ATOM      6  C   UNL     1       2.151   9.639  17.772  0.00  0.00    +0.000 A 
ATOM      7  C   UNL     1       1.268  10.475  18.482  0.00  0.00    +0.000 A 
ATOM      8  C   UNL     1       0.661  10.039  19.670  0.00  0.00    +0.000 A 
ATOM      9  C   UNL     1       0.937   8.761  20.133  0.00  0.00    +0.000 A 
ATOM     10  C   UNL     1       1.811   7.938  19.428  0.00  0.00    +0.000 A 
ATOM     11  C   UNL     1       2.092   6.602  19.932  0.00  0.00    +0.000 A 
ATOM     12  O   UNL     1       1.574   6.182  20.964  0.00  0.00    +0.000 OA
ATOM     13  C   UNL     1       3.019   5.783  19.170  0.00  0.00    +0.000 A 
ATOM     14  C   UNL     1       3.322   4.498  19.604  0.00  0.00    +0.000 A 
ATOM     15  C   UNL     1       4.214   3.726  18.872  0.00  0.00    +0.000 A 
ENDROOT
BRANCH   8  16
ATOM     16  C   UNL     1      -0.274  10.879  20.431  0.00  0.00    +0.000 C 
ATOM     17  C   UNL     1      -1.323  11.444  19.809  0.00  0.00    +0.000 C 
ATOM     18  C   UNL     1      -2.310  12.329  20.515  0.00  0.00    +0.000 C 
ATOM     19  C   UNL     1      -1.793  12.837  21.870  0.00  0.00    +0.000 C 
ATOM     20  C   UNL     1      -1.200  11.660  22.661  0.00  0.00    +0.000 C 
ATOM     21  C   UNL     1      -0.031  10.995  21.916  0.00  0.00    +0.000 C 
BRANCH  19  22
ATOM     22  C   UNL     1      -0.801  13.993  21.712  0.00  0.00    +0.000 C 
ATOM     23  F   UNL     1      -0.374  14.152  20.441  0.00  0.00    +0.000 F 
ATOM     24  F   UNL     1      -1.384  15.157  22.080  0.00  0.00    +0.000 F 
ATOM     25  F   UNL     1       0.297  13.856  22.489  0.00  0.00    +0.000 F 
ENDBRANCH  19  22
ENDBRANCH   8  16
BRANCH   1  26
ATOM     26  N   UNL     1       5.728   3.623  16.943  0.00  0.00    +0.000 N 
ATOM     27  H   UNL     1       5.370   2.670  16.821  0.00  0.00    +0.000 HD
ATOM     28  H   UNL     1       6.637   3.583  17.400  0.00  0.00    +0.000 HD
ENDBRANCH   1  26
BRANCH  15  29
ATOM     29  C   UNL     1       4.443   2.348  19.379  0.00  0.00    +0.000 C 
ATOM     30  O   UNL     1       4.975   2.153  20.461  0.00  0.00    +0.000 OA
BRANCH  29  31
ATOM     31  O   UNL     1       4.084   1.349  18.557  0.00  0.00    +0.000 OA
ATOM     32  H   UNL     1       3.346   1.569  17.949  0.00  0.00    +0.000 HD
ENDBRANCH  29  31
ENDBRANCH  15  29
TORSDOF 5
ENDMDL
