MODEL 1
REMARK VINA RESULT:      -8.1      0.000      0.000
REMARK  Name = 
REMARK  4 active torsions:
REMARK  status: ('A' for Active; 'I' for Inactive)
REMARK    1  A    between atoms: C_2  and  O_3
REMARK    2  A    between atoms: O_3  and  C_4
REMARK    3  A    between atoms: C_4  and  C_5
REMARK    4  A    between atoms: N_19  and  S_20
REMARK                            x       y       z     vdW  Elec       q    Type
REMARK                         _______ _______ _______ _____ _____    ______ ____
ROOT
ATOM      1  O   UNL     1       7.480   4.780  18.377  0.00  0.00    +0.000 OA
ATOM      2  C   UNL     1       6.558   5.194  17.677  0.00  0.00    +0.000 C 
ATOM      3  N   UNL     1       5.234   5.095  18.017  0.00  0.00    +0.000 N 
ATOM      4  C   UNL     1       4.116   5.623  17.230  0.00  0.00    +0.000 C 
ATOM      5  C   UNL     1       2.859   5.098  17.928  0.00  0.00    +0.000 C 
ATOM      6  F   UNL     1       1.828   5.951  17.729  0.00  0.00    +0.000 F 
ATOM      7  C   UNL     1       3.228   5.092  19.415  0.00  0.00    +0.000 C 
ATOM      8  C   UNL     1       4.766   4.826  19.404  0.00  0.00    +0.000 C 
ATOM      9  C   UNL     1       4.343   3.358  19.810  0.00  0.00    +0.000 C 
ATOM     10  O   UNL     1       4.836   2.251  19.839  0.00  0.00    +0.000 OA
ATOM     11  N   UNL     1       3.077   3.820  20.124  0.00  0.00    +0.000 N 
ENDROOT
BRANCH  11  12
ATOM     12  S   UNL     1       1.768   3.026  20.727  0.00  0.00    +0.000 S 
ATOM     13  O   UNL     1       0.753   4.073  20.693  0.00  0.00    +0.000 OA
ATOM     14  O   UNL     1       1.575   1.948  19.769  0.00  0.00    +0.000 OA
ATOM     15  O   UNL     1       2.193   2.627  22.062  0.00  0.00    +0.000 OA
ENDBRANCH  11  12
BRANCH   2  16
ATOM     16  O   UNL     1       6.743   5.788  16.473  0.00  0.00    +0.000 OA
BRANCH  16  17
ATOM     17  C   UNL     1       7.642   5.135  15.556  0.00  0.00    +0.000 C 
BRANCH  17  18
ATOM     18  C   UNL     1       6.979   4.673  14.277  0.00  0.00    +0.000 A 
ATOM     19  C   UNL     1       7.633   4.759  13.040  0.00  0.00    +0.000 A 
ATOM     20  C   UNL     1       7.049   4.228  11.887  0.00  0.00    +0.000 A 
ATOM     21  C   UNL     1       5.809   3.598  11.954  0.00  0.00    +0.000 A 
ATOM     22  C   UNL     1       5.156   3.484  13.177  0.00  0.00    +0.000 A 
ATOM     23  C   UNL     1       5.739   4.012  14.333  0.00  0.00    +0.000 A 
ENDBRANCH  17  18
ENDBRANCH  16  17
ENDBRANCH   2  16
TORSDOF 4
ENDMDL
MODEL 2
REMARK VINA RESULT:      -7.9      0.170      1.350
REMARK  Name = 
REMARK  4 active torsions:
REMARK  status: ('A' for Active; 'I' for Inactive)
REMARK    1  A    between atoms: C_2  and  O_3
REMARK    2  A    between atoms: O_3  and  C_4
REMARK    3  A    between atoms: C_4  and  C_5
REMARK    4  A    between atoms: N_19  and  S_20
REMARK                            x       y       z     vdW  Elec       q    Type
REMARK                         _______ _______ _______ _____ _____    ______ ____
ROOT
ATOM      1  O   UNL     1       7.468   4.513  18.217  0.00  0.00    +0.000 OA
ATOM      2  C   UNL     1       6.558   5.048  17.586  0.00  0.00    +0.000 C 
ATOM      3  N   UNL     1       5.246   5.052  17.987  0.00  0.00    +0.000 N 
ATOM      4  C   UNL     1       4.149   5.723  17.284  0.00  0.00    +0.000 C 
ATOM      5  C   UNL     1       2.881   5.278  18.017  0.00  0.00    +0.000 C 
ATOM      6  F   UNL     1       1.927   6.231  17.913  0.00  0.00    +0.000 F 
ATOM      7  C   UNL     1       3.314   5.156  19.481  0.00  0.00    +0.000 C 
ATOM      8  C   UNL     1       4.818   4.751  19.380  0.00  0.00    +0.000 C 
ATOM      9  C   UNL     1       4.278   3.308  19.732  0.00  0.00    +0.000 C 
ATOM     10  O   UNL     1       4.666   2.161  19.680  0.00  0.00    +0.000 OA
ATOM     11  N   UNL     1       3.076   3.866  20.131  0.00  0.00    +0.000 N 
ENDROOT
BRANCH  11  12
ATOM     12  S   UNL     1       1.728   3.163  20.758  0.00  0.00    +0.000 S 
ATOM     13  O   UNL     1       2.185   2.804  22.097  0.00  0.00    +0.000 OA
ATOM     14  O   UNL     1       0.750   4.239  20.708  0.00  0.00    +0.000 OA
ATOM     15  O   UNL     1       1.484   2.034  19.872  0.00  0.00    +0.000 OA
ENDBRANCH  11  12
BRANCH   2  16
ATOM     16  O   UNL     1       6.743   5.688  16.406  0.00  0.00    +0.000 OA
BRANCH  16  17
ATOM     17  C   UNL     1       7.658   5.082  15.474  0.00  0.00    +0.000 C 
BRANCH  17  18
ATOM     18  C   UNL     1       6.985   4.484  14.258  0.00  0.00    +0.000 A 
ATOM     19  C   UNL     1       5.694   3.942  14.328  0.00  0.00    +0.000 A 
ATOM     20  C   UNL     1       5.046   3.494  13.173  0.00  0.00    +0.000 A 
ATOM     21  C   UNL     1       5.674   3.588  11.933  0.00  0.00    +0.000 A 
ATOM     22  C   UNL     1       6.947   4.144  11.844  0.00  0.00    +0.000 A 
ATOM     23  C   UNL     1       7.596   4.596  12.997  0.00  0.00    +0.000 A 
ENDBRANCH  17  18
ENDBRANCH  16  17
ENDBRANCH   2  16
TORSDOF 4
ENDMDL
MODEL 3
REMARK VINA RESULT:      -7.4      6.007      7.939
REMARK  Name = 
REMARK  4 active torsions:
REMARK  status: ('A' for Active; 'I' for Inactive)
REMARK    1  A    between atoms: C_2  and  O_3
REMARK    2  A    between atoms: O_3  and  C_4
REMARK    3  A    between atoms: C_4  and  C_5
REMARK    4  A    between atoms: N_19  and  S_20
REMARK                            x       y       z     vdW  Elec       q    Type
REMARK                         _______ _______ _______ _____ _____    ______ ____
ROOT
ATOM      1  O   UNL     1       2.297   8.792  17.341  0.00  0.00    +0.000 OA
ATOM      2  C   UNL     1       2.203   8.337  18.480  0.00  0.00    +0.000 C 
ATOM      3  N   UNL     1       1.462   8.916  19.478  0.00  0.00    +0.000 N 
ATOM      4  C   UNL     1       1.290   8.372  20.828  0.00  0.00    +0.000 C 
ATOM      5  C   UNL     1       0.547   9.465  21.601  0.00  0.00    +0.000 C 
ATOM      6  F   UNL     1      -0.196   8.911  22.587  0.00  0.00    +0.000 F 
ATOM      7  C   UNL     1      -0.385  10.096  20.562  0.00  0.00    +0.000 C 
ATOM      8  C   UNL     1       0.401   9.929  19.224  0.00  0.00    +0.000 C 
ATOM      9  C   UNL     1       0.729  11.463  19.422  0.00  0.00    +0.000 C 
ATOM     10  O   UNL     1       1.513  12.282  18.994  0.00  0.00    +0.000 OA
ATOM     11  N   UNL     1      -0.274  11.543  20.373  0.00  0.00    +0.000 N 
ENDROOT
BRANCH  11  12
ATOM     12  S   UNL     1      -0.822  12.829  21.241  0.00  0.00    +0.000 S 
ATOM     13  O   UNL     1      -1.219  13.747  20.178  0.00  0.00    +0.000 OA
ATOM     14  O   UNL     1      -1.920  12.257  22.005  0.00  0.00    +0.000 OA
ATOM     15  O   UNL     1       0.342  13.248  22.008  0.00  0.00    +0.000 OA
ENDBRANCH  11  12
BRANCH   2  16
ATOM     16  O   UNL     1       2.836   7.211  18.889  0.00  0.00    +0.000 OA
BRANCH  16  17
ATOM     17  C   UNL     1       2.712   6.052  18.043  0.00  0.00    +0.000 C 
BRANCH  17  18
ATOM     18  C   UNL     1       2.006   4.887  18.704  0.00  0.00    +0.000 A 
ATOM     19  C   UNL     1       1.628   3.751  17.976  0.00  0.00    +0.000 A 
ATOM     20  C   UNL     1       1.076   2.641  18.623  0.00  0.00    +0.000 A 
ATOM     21  C   UNL     1       0.903   2.648  20.005  0.00  0.00    +0.000 A 
ATOM     22  C   UNL     1       1.293   3.760  20.745  0.00  0.00    +0.000 A 
ATOM     23  C   UNL     1       1.848   4.870  20.101  0.00  0.00    +0.000 A 
ENDBRANCH  17  18
ENDBRANCH  16  17
ENDBRANCH   2  16
TORSDOF 4
ENDMDL
MODEL 4
REMARK VINA RESULT:      -7.4      5.982      7.994
REMARK  Name = 
REMARK  4 active torsions:
REMARK  status: ('A' for Active; 'I' for Inactive)
REMARK    1  A    between atoms: C_2  and  O_3
REMARK    2  A    between atoms: O_3  and  C_4
REMARK    3  A    between atoms: C_4  and  C_5
REMARK    4  A    between atoms: N_19  and  S_20
REMARK                            x       y       z     vdW  Elec       q    Type
REMARK                         _______ _______ _______ _____ _____    ______ ____
ROOT
ATOM      1  O   UNL     1       2.294   8.784  17.304  0.00  0.00    +0.000 OA
ATOM      2  C   UNL     1       2.213   8.323  18.441  0.00  0.00    +0.000 C 
ATOM      3  N   UNL     1       1.480   8.895  19.449  0.00  0.00    +0.000 N 
ATOM      4  C   UNL     1       1.323   8.344  20.798  0.00  0.00    +0.000 C 
ATOM      5  C   UNL     1       0.583   9.430  21.583  0.00  0.00    +0.000 C 
ATOM      6  F   UNL     1      -0.148   8.869  22.573  0.00  0.00    +0.000 F 
ATOM      7  C   UNL     1      -0.361  10.062  20.556  0.00  0.00    +0.000 C 
ATOM      8  C   UNL     1       0.413   9.904  19.210  0.00  0.00    +0.000 C 
ATOM      9  C   UNL     1       0.736  11.439  19.412  0.00  0.00    +0.000 C 
ATOM     10  O   UNL     1       1.513  12.263  18.981  0.00  0.00    +0.000 OA
ATOM     11  N   UNL     1      -0.257  11.511  20.373  0.00  0.00    +0.000 N 
ENDROOT
BRANCH  11  12
ATOM     12  S   UNL     1      -0.802  12.790  21.252  0.00  0.00    +0.000 S 
ATOM     13  O   UNL     1      -1.224  13.707  20.198  0.00  0.00    +0.000 OA
ATOM     14  O   UNL     1      -1.883  12.208  22.033  0.00  0.00    +0.000 OA
ATOM     15  O   UNL     1       0.371  13.218  22.002  0.00  0.00    +0.000 OA
ENDBRANCH  11  12
BRANCH   2  16
ATOM     16  O   UNL     1       2.854   7.197  18.839  0.00  0.00    +0.000 OA
BRANCH  16  17
ATOM     17  C   UNL     1       2.570   5.993  18.101  0.00  0.00    +0.000 C 
BRANCH  17  18
ATOM     18  C   UNL     1       2.144   4.831  18.971  0.00  0.00    +0.000 A 
ATOM     19  C   UNL     1       2.306   4.860  20.364  0.00  0.00    +0.000 A 
ATOM     20  C   UNL     1       1.808   3.824  21.160  0.00  0.00    +0.000 A 
ATOM     21  C   UNL     1       1.135   2.752  20.579  0.00  0.00    +0.000 A 
ATOM     22  C   UNL     1       0.946   2.719  19.201  0.00  0.00    +0.000 A 
ATOM     23  C   UNL     1       1.441   3.755  18.402  0.00  0.00    +0.000 A 
ENDBRANCH  17  18
ENDBRANCH  16  17
ENDBRANCH   2  16
TORSDOF 4
ENDMDL
MODEL 5
REMARK VINA RESULT:      -7.3      4.104      7.851
REMARK  Name = 
REMARK  4 active torsions:
REMARK  status: ('A' for Active; 'I' for Inactive)
REMARK    1  A    between atoms: C_2  and  O_3
REMARK    2  A    between atoms: O_3  and  C_4
REMARK    3  A    between atoms: C_4  and  C_5
REMARK    4  A    between atoms: N_19  and  S_20
REMARK                            x       y       z     vdW  Elec       q    Type
REMARK                         _______ _______ _______ _____ _____    ______ ____
ROOT
ATOM      1  O   UNL     1       2.468   5.271  20.837  0.00  0.00    +0.000 OA
ATOM      2  C   UNL     1       2.445   6.187  20.016  0.00  0.00    +0.000 C 
ATOM      3  N   UNL     1       3.265   6.252  18.919  0.00  0.00    +0.000 N 
ATOM      4  C   UNL     1       3.229   7.302  17.897  0.00  0.00    +0.000 C 
ATOM      5  C   UNL     1       4.444   7.029  17.008  0.00  0.00    +0.000 C 
ATOM      6  F   UNL     1       4.209   7.474  15.752  0.00  0.00    +0.000 F 
ATOM      7  C   UNL     1       4.561   5.501  16.986  0.00  0.00    +0.000 C 
ATOM      8  C   UNL     1       4.005   5.078  18.382  0.00  0.00    +0.000 C 
ATOM      9  C   UNL     1       5.533   4.891  18.744  0.00  0.00    +0.000 C 
ATOM     10  O   UNL     1       6.219   4.778  19.737  0.00  0.00    +0.000 OA
ATOM     11  N   UNL     1       5.847   4.935  17.397  0.00  0.00    +0.000 N 
ENDROOT
BRANCH  11  12
ATOM     12  S   UNL     1       7.296   4.782  16.633  0.00  0.00    +0.000 S 
ATOM     13  O   UNL     1       6.935   3.941  15.496  0.00  0.00    +0.000 OA
ATOM     14  O   UNL     1       7.632   6.158  16.300  0.00  0.00    +0.000 OA
ATOM     15  O   UNL     1       8.143   4.137  17.626  0.00  0.00    +0.000 OA
ENDBRANCH  11  12
BRANCH   2  16
ATOM     16  O   UNL     1       1.612   7.251  20.107  0.00  0.00    +0.000 OA
BRANCH  16  17
ATOM     17  C   UNL     1       1.133   7.592  21.422  0.00  0.00    +0.000 C 
BRANCH  17  18
ATOM     18  C   UNL     1       0.470   8.950  21.497  0.00  0.00    +0.000 A 
ATOM     19  C   UNL     1       0.247   9.721  20.348  0.00  0.00    +0.000 A 
ATOM     20  C   UNL     1      -0.463  10.923  20.423  0.00  0.00    +0.000 A 
ATOM     21  C   UNL     1      -0.968  11.366  21.644  0.00  0.00    +0.000 A 
ATOM     22  C   UNL     1      -0.775  10.601  22.790  0.00  0.00    +0.000 A 
ATOM     23  C   UNL     1      -0.068   9.397  22.717  0.00  0.00    +0.000 A 
ENDBRANCH  17  18
ENDBRANCH  16  17
ENDBRANCH   2  16
TORSDOF 4
ENDMDL
MODEL 6
REMARK VINA RESULT:      -7.3      4.092      7.909
REMARK  Name = 
REMARK  4 active torsions:
REMARK  status: ('A' for Active; 'I' for Inactive)
REMARK    1  A    between atoms: C_2  and  O_3
REMARK    2  A    between atoms: O_3  and  C_4
REMARK    3  A    between atoms: C_4  and  C_5
REMARK    4  A    between atoms: N_19  and  S_20
REMARK                            x       y       z     vdW  Elec       q    Type
REMARK                         _______ _______ _______ _____ _____    ______ ____
ROOT
ATOM      1  O   UNL     1       2.563   5.287  20.885  0.00  0.00    +0.000 OA
ATOM      2  C   UNL     1       2.498   6.191  20.053  0.00  0.00    +0.000 C 
ATOM      3  N   UNL     1       3.288   6.260  18.934  0.00  0.00    +0.000 N 
ATOM      4  C   UNL     1       3.201   7.294  17.900  0.00  0.00    +0.000 C 
ATOM      5  C   UNL     1       4.399   7.037  16.983  0.00  0.00    +0.000 C 
ATOM      6  F   UNL     1       4.122   7.459  15.728  0.00  0.00    +0.000 F 
ATOM      7  C   UNL     1       4.551   5.512  16.979  0.00  0.00    +0.000 C 
ATOM      8  C   UNL     1       4.042   5.096  18.394  0.00  0.00    +0.000 C 
ATOM      9  C   UNL     1       5.582   4.949  18.719  0.00  0.00    +0.000 C 
ATOM     10  O   UNL     1       6.295   4.866  19.695  0.00  0.00    +0.000 OA
ATOM     11  N   UNL     1       5.860   4.982  17.364  0.00  0.00    +0.000 N 
ENDROOT
BRANCH  11  12
ATOM     12  S   UNL     1       7.292   4.851  16.564  0.00  0.00    +0.000 S 
ATOM     13  O   UNL     1       6.900   4.073  15.394  0.00  0.00    +0.000 OA
ATOM     14  O   UNL     1       7.639   6.239  16.295  0.00  0.00    +0.000 OA
ATOM     15  O   UNL     1       8.151   4.149  17.507  0.00  0.00    +0.000 OA
ENDBRANCH  11  12
BRANCH   2  16
ATOM     16  O   UNL     1       1.643   7.237  20.151  0.00  0.00    +0.000 OA
BRANCH  16  17
ATOM     17  C   UNL     1       1.083   7.499  21.452  0.00  0.00    +0.000 C 
BRANCH  17  18
ATOM     18  C   UNL     1       0.333   8.811  21.540  0.00  0.00    +0.000 A 
ATOM     19  C   UNL     1      -0.154   9.296  22.762  0.00  0.00    +0.000 A 
ATOM     20  C   UNL     1      -0.748  10.559  22.841  0.00  0.00    +0.000 A 
ATOM     21  C   UNL     1      -0.854  11.358  21.705  0.00  0.00    +0.000 A 
ATOM     22  C   UNL     1      -0.355  10.901  20.489  0.00  0.00    +0.000 A 
ATOM     23  C   UNL     1       0.242   9.639  20.407  0.00  0.00    +0.000 A 
ENDBRANCH  17  18
ENDBRANCH  16  17
ENDBRANCH   2  16
TORSDOF 4
ENDMDL
MODEL 7
REMARK VINA RESULT:      -7.2      6.181      8.186
REMARK  Name = 
REMARK  4 active torsions:
REMARK  status: ('A' for Active; 'I' for Inactive)
REMARK    1  A    between atoms: C_2  and  O_3
REMARK    2  A    between atoms: O_3  and  C_4
REMARK    3  A    between atoms: C_4  and  C_5
REMARK    4  A    between atoms: N_19  and  S_20
REMARK                            x       y       z     vdW  Elec       q    Type
REMARK                         _______ _______ _______ _____ _____    ______ ____
ROOT
ATOM      1  O   UNL     1       1.702   8.906  17.666  0.00  0.00    +0.000 OA
ATOM      2  C   UNL     1       1.838   8.484  18.813  0.00  0.00    +0.000 C 
ATOM      3  N   UNL     1       1.275   9.071  19.917  0.00  0.00    +0.000 N 
ATOM      4  C   UNL     1       1.376   8.565  21.288  0.00  0.00    +0.000 C 
ATOM      5  C   UNL     1       0.752   9.658  22.159  0.00  0.00    +0.000 C 
ATOM      6  F   UNL     1       0.225   9.113  23.280  0.00  0.00    +0.000 F 
ATOM      7  C   UNL     1      -0.379  10.228  21.297  0.00  0.00    +0.000 C 
ATOM      8  C   UNL     1       0.151  10.043  19.840  0.00  0.00    +0.000 C 
ATOM      9  C   UNL     1       0.455  11.592  19.935  0.00  0.00    +0.000 C 
ATOM     10  O   UNL     1       1.116  12.420  19.348  0.00  0.00    +0.000 OA
ATOM     11  N   UNL     1      -0.356  11.672  21.054  0.00  0.00    +0.000 N 
ENDROOT
BRANCH  11  12
ATOM     12  S   UNL     1      -0.778  12.967  21.977  0.00  0.00    +0.000 S 
ATOM     13  O   UNL     1      -1.486  12.319  23.077  0.00  0.00    +0.000 OA
ATOM     14  O   UNL     1       0.509  13.546  22.328  0.00  0.00    +0.000 OA
ATOM     15  O   UNL     1      -1.618  13.761  21.092  0.00  0.00    +0.000 OA
ENDBRANCH  11  12
BRANCH   2  16
ATOM     16  O   UNL     1       2.575   7.391  19.125  0.00  0.00    +0.000 OA
BRANCH  16  17
ATOM     17  C   UNL     1       2.523   6.286  18.201  0.00  0.00    +0.000 C 
BRANCH  17  18
ATOM     18  C   UNL     1       2.030   4.996  18.820  0.00  0.00    +0.000 A 
ATOM     19  C   UNL     1       1.786   4.890  20.196  0.00  0.00    +0.000 A 
ATOM     20  C   UNL     1       1.228   3.726  20.732  0.00  0.00    +0.000 A 
ATOM     21  C   UNL     1       0.900   2.657  19.902  0.00  0.00    +0.000 A 
ATOM     22  C   UNL     1       1.115   2.755  18.531  0.00  0.00    +0.000 A 
ATOM     23  C   UNL     1       1.670   3.919  17.991  0.00  0.00    +0.000 A 
ENDBRANCH  17  18
ENDBRANCH  16  17
ENDBRANCH   2  16
TORSDOF 4
ENDMDL
MODEL 8
REMARK VINA RESULT:      -7.2      0.589      1.137
REMARK  Name = 
REMARK  4 active torsions:
REMARK  status: ('A' for Active; 'I' for Inactive)
REMARK    1  A    between atoms: C_2  and  O_3
REMARK    2  A    between atoms: O_3  and  C_4
REMARK    3  A    between atoms: C_4  and  C_5
REMARK    4  A    between atoms: N_19  and  S_20
REMARK                            x       y       z     vdW  Elec       q    Type
REMARK                         _______ _______ _______ _____ _____    ______ ____
ROOT
ATOM      1  O   UNL     1       7.625   4.404  18.088  0.00  0.00    +0.000 OA
ATOM      2  C   UNL     1       6.706   4.963  17.492  0.00  0.00    +0.000 C 
ATOM      3  N   UNL     1       5.412   5.002  17.942  0.00  0.00    +0.000 N 
ATOM      4  C   UNL     1       4.307   5.702  17.282  0.00  0.00    +0.000 C 
ATOM      5  C   UNL     1       3.056   5.290  18.062  0.00  0.00    +0.000 C 
ATOM      6  F   UNL     1       2.124   6.268  17.994  0.00  0.00    +0.000 F 
ATOM      7  C   UNL     1       3.541   5.156  19.509  0.00  0.00    +0.000 C 
ATOM      8  C   UNL     1       5.029   4.711  19.351  0.00  0.00    +0.000 C 
ATOM      9  C   UNL     1       4.464   3.282  19.723  0.00  0.00    +0.000 C 
ATOM     10  O   UNL     1       4.819   2.125  19.656  0.00  0.00    +0.000 OA
ATOM     11  N   UNL     1       3.294   3.872  20.168  0.00  0.00    +0.000 N 
ENDROOT
BRANCH  11  12
ATOM     12  S   UNL     1       1.952   3.204  20.846  0.00  0.00    +0.000 S 
ATOM     13  O   UNL     1       1.019   4.325  20.806  0.00  0.00    +0.000 OA
ATOM     14  O   UNL     1       1.641   2.111  19.936  0.00  0.00    +0.000 OA
ATOM     15  O   UNL     1       2.393   2.821  22.179  0.00  0.00    +0.000 OA
ENDBRANCH  11  12
BRANCH   2  16
ATOM     16  O   UNL     1       6.863   5.600  16.306  0.00  0.00    +0.000 OA
BRANCH  16  17
ATOM     17  C   UNL     1       5.797   5.461  15.347  0.00  0.00    +0.000 C 
BRANCH  17  18
ATOM     18  C   UNL     1       6.201   4.730  14.086  0.00  0.00    +0.000 A 
ATOM     19  C   UNL     1       5.373   3.760  13.504  0.00  0.00    +0.000 A 
ATOM     20  C   UNL     1       5.714   3.173  12.282  0.00  0.00    +0.000 A 
ATOM     21  C   UNL     1       6.879   3.553  11.621  0.00  0.00    +0.000 A 
ATOM     22  C   UNL     1       7.701   4.531  12.174  0.00  0.00    +0.000 A 
ATOM     23  C   UNL     1       7.361   5.121  13.395  0.00  0.00    +0.000 A 
ENDBRANCH  17  18
ENDBRANCH  16  17
ENDBRANCH   2  16
TORSDOF 4
ENDMDL
MODEL 9
REMARK VINA RESULT:      -7.2      4.295      8.017
REMARK  Name = 
REMARK  4 active torsions:
REMARK  status: ('A' for Active; 'I' for Inactive)
REMARK    1  A    between atoms: C_2  and  O_3
REMARK    2  A    between atoms: O_3  and  C_4
REMARK    3  A    between atoms: C_4  and  C_5
REMARK    4  A    between atoms: N_19  and  S_20
REMARK                            x       y       z     vdW  Elec       q    Type
REMARK                         _______ _______ _______ _____ _____    ______ ____
ROOT
ATOM      1  O   UNL     1       2.797   9.053  17.616  0.00  0.00    +0.000 OA
ATOM      2  C   UNL     1       2.624   7.995  18.220  0.00  0.00    +0.000 C 
ATOM      3  N   UNL     1       3.482   6.927  18.155  0.00  0.00    +0.000 N 
ATOM      4  C   UNL     1       3.330   5.674  18.900  0.00  0.00    +0.000 C 
ATOM      5  C   UNL     1       4.419   4.752  18.346  0.00  0.00    +0.000 C 
ATOM      6  F   UNL     1       4.800   3.864  19.293  0.00  0.00    +0.000 F 
ATOM      7  C   UNL     1       5.588   5.691  18.036  0.00  0.00    +0.000 C 
ATOM      8  C   UNL     1       4.883   7.034  17.666  0.00  0.00    +0.000 C 
ATOM      9  C   UNL     1       5.223   6.607  16.182  0.00  0.00    +0.000 C 
ATOM     10  O   UNL     1       4.883   6.903  15.057  0.00  0.00    +0.000 OA
ATOM     11  N   UNL     1       6.109   5.661  16.668  0.00  0.00    +0.000 N 
ENDROOT
BRANCH  11  12
ATOM     12  S   UNL     1       7.097   4.615  15.871  0.00  0.00    +0.000 S 
ATOM     13  O   UNL     1       7.671   5.483  14.848  0.00  0.00    +0.000 OA
ATOM     14  O   UNL     1       8.023   4.191  16.910  0.00  0.00    +0.000 OA
ATOM     15  O   UNL     1       6.187   3.596  15.369  0.00  0.00    +0.000 OA
ENDBRANCH  11  12
BRANCH   2  16
ATOM     16  O   UNL     1       1.553   7.755  19.014  0.00  0.00    +0.000 OA
BRANCH  16  17
ATOM     17  C   UNL     1       1.717   8.010  20.422  0.00  0.00    +0.000 C 
BRANCH  17  18
ATOM     18  C   UNL     1       0.752   9.036  20.973  0.00  0.00    +0.000 A 
ATOM     19  C   UNL     1       0.437   9.088  22.338  0.00  0.00    +0.000 A 
ATOM     20  C   UNL     1      -0.372  10.111  22.844  0.00  0.00    +0.000 A 
ATOM     21  C   UNL     1      -0.868  11.098  21.997  0.00  0.00    +0.000 A 
ATOM     22  C   UNL     1      -0.546  11.074  20.643  0.00  0.00    +0.000 A 
ATOM     23  C   UNL     1       0.264  10.055  20.135  0.00  0.00    +0.000 A 
ENDBRANCH  17  18
ENDBRANCH  16  17
ENDBRANCH   2  16
TORSDOF 4
ENDMDL
