MODEL 1
REMARK VINA RESULT:      -6.6      0.000      0.000
REMARK  Name = 
REMARK  7 active torsions:
REMARK  status: ('A' for Active; 'I' for Inactive)
REMARK    1  A    between atoms: C_1  and  O_2
REMARK    2  A    between atoms: O_2  and  C_3
REMARK    3  A    between atoms: C_6  and  C_7
REMARK    4  A    between atoms: C_8  and  C_9
REMARK    5  A    between atoms: C_9  and  C_11
REMARK    6  A    between atoms: C_18  and  O_19
REMARK    7  A    between atoms: O_19  and  C_20
REMARK                            x       y       z     vdW  Elec       q    Type
REMARK                         _______ _______ _______ _____ _____    ______ ____
ROOT
ATOM      1  C   UNL     1      10.099  11.906  19.837  0.00  0.00    +0.000 A 
ATOM      2  C   UNL     1       9.613  10.738  20.448  0.00  0.00    +0.000 A 
ATOM      3  C   UNL     1       8.958   9.755  19.706  0.00  0.00    +0.000 A 
ATOM      4  C   UNL     1       8.722   9.941  18.345  0.00  0.00    +0.000 A 
ATOM      5  C   UNL     1       9.147  11.137  17.752  0.00  0.00    +0.000 A 
ATOM      6  C   UNL     1       9.820  12.131  18.483  0.00  0.00    +0.000 A 
ENDROOT
BRANCH   1   8
ATOM      7  C   UNL     1      10.056  13.862  21.164  0.00  0.00    +0.000 C 
ATOM      8  O   UNL     1      10.823  12.825  20.548  0.00  0.00    +0.000 OA
ENDBRANCH   1   8
BRANCH   4   9
ATOM      9  C   UNL     1       8.083   8.861  17.579  0.00  0.00    +0.000 C 
ATOM     10  C   UNL     1       7.935   7.613  18.046  0.00  0.00    +0.000 C 
BRANCH  10  11
ATOM     11  C   UNL     1       7.293   6.547  17.219  0.00  0.00    +0.000 C 
ATOM     12  O   UNL     1       7.668   6.388  16.053  0.00  0.00    +0.000 OA
BRANCH  11  13
ATOM     13  C   UNL     1       6.248   5.742  17.851  0.00  0.00    +0.000 A 
ATOM     14  C   UNL     1       5.889   5.611  19.186  0.00  0.00    +0.000 A 
ATOM     15  C   UNL     1       4.802   4.704  19.379  0.00  0.00    +0.000 A 
ATOM     16  C   UNL     1       4.375   4.183  18.187  0.00  0.00    +0.000 A 
ATOM     17 BR   UNL     1       2.968   2.956  18.039  0.00  0.00    +0.000 Br
ATOM     18  S   UNL     1       5.244   4.758  16.855  0.00  0.00    +0.000 S 
ENDBRANCH  11  13
ENDBRANCH  10  11
ENDBRANCH   4   9
BRANCH   6  19
ATOM     19  O   UNL     1      10.129  13.209  17.696  0.00  0.00    +0.000 OA
ATOM     20  C   UNL     1      11.453  13.361  17.214  0.00  0.00    +0.000 C 
ENDBRANCH   6  19
TORSDOF 5
ENDMDL
MODEL 2
REMARK VINA RESULT:      -6.5      6.365      7.502
REMARK  Name = 
REMARK  7 active torsions:
REMARK  status: ('A' for Active; 'I' for Inactive)
REMARK    1  A    between atoms: C_1  and  O_2
REMARK    2  A    between atoms: O_2  and  C_3
REMARK    3  A    between atoms: C_6  and  C_7
REMARK    4  A    between atoms: C_8  and  C_9
REMARK    5  A    between atoms: C_9  and  C_11
REMARK    6  A    between atoms: C_18  and  O_19
REMARK    7  A    between atoms: O_19  and  C_20
REMARK                            x       y       z     vdW  Elec       q    Type
REMARK                         _______ _______ _______ _____ _____    ______ ____
ROOT
ATOM      1  C   UNL     1       0.961   9.436  19.345  0.00  0.00    +0.000 A 
ATOM      2  C   UNL     1       1.637   9.362  18.116  0.00  0.00    +0.000 A 
ATOM      3  C   UNL     1       2.469   8.284  17.814  0.00  0.00    +0.000 A 
ATOM      4  C   UNL     1       2.689   7.280  18.756  0.00  0.00    +0.000 A 
ATOM      5  C   UNL     1       2.067   7.391  20.006  0.00  0.00    +0.000 A 
ATOM      6  C   UNL     1       1.216   8.464  20.320  0.00  0.00    +0.000 A 
ENDROOT
BRANCH   1   8
ATOM      7  C   UNL     1      -1.094  10.458  18.778  0.00  0.00    +0.000 C 
ATOM      8  O   UNL     1       0.074  10.447  19.603  0.00  0.00    +0.000 OA
ENDBRANCH   1   8
BRANCH   4   9
ATOM      9  C   UNL     1       3.521   6.126  18.385  0.00  0.00    +0.000 C 
ATOM     10  C   UNL     1       4.262   5.437  19.266  0.00  0.00    +0.000 C 
BRANCH  10  11
ATOM     11  C   UNL     1       5.104   4.281  18.832  0.00  0.00    +0.000 C 
ATOM     12  O   UNL     1       5.218   3.310  19.586  0.00  0.00    +0.000 OA
BRANCH  11  13
ATOM     13  C   UNL     1       5.746   4.370  17.521  0.00  0.00    +0.000 A 
ATOM     14  C   UNL     1       6.962   4.924  17.144  0.00  0.00    +0.000 A 
ATOM     15  C   UNL     1       7.212   4.805  15.742  0.00  0.00    +0.000 A 
ATOM     16  C   UNL     1       6.181   4.163  15.109  0.00  0.00    +0.000 A 
ATOM     17 BR   UNL     1       6.151   3.823  13.267  0.00  0.00    +0.000 Br
ATOM     18  S   UNL     1       4.934   3.706  16.154  0.00  0.00    +0.000 S 
ENDBRANCH  11  13
ENDBRANCH  10  11
ENDBRANCH   4   9
BRANCH   6  19
ATOM     19  O   UNL     1       0.732   8.362  21.598  0.00  0.00    +0.000 OA
ATOM     20  C   UNL     1       0.654   9.524  22.406  0.00  0.00    +0.000 C 
ENDBRANCH   6  19
TORSDOF 5
ENDMDL
MODEL 3
REMARK VINA RESULT:      -6.5      1.272      1.385
REMARK  Name = 
REMARK  7 active torsions:
REMARK  status: ('A' for Active; 'I' for Inactive)
REMARK    1  A    between atoms: C_1  and  O_2
REMARK    2  A    between atoms: O_2  and  C_3
REMARK    3  A    between atoms: C_6  and  C_7
REMARK    4  A    between atoms: C_8  and  C_9
REMARK    5  A    between atoms: C_9  and  C_11
REMARK    6  A    between atoms: C_18  and  O_19
REMARK    7  A    between atoms: O_19  and  C_20
REMARK                            x       y       z     vdW  Elec       q    Type
REMARK                         _______ _______ _______ _____ _____    ______ ____
ROOT
ATOM      1  C   UNL     1      10.140  12.080  19.524  0.00  0.00    +0.000 A 
ATOM      2  C   UNL     1       9.977  10.807  20.097  0.00  0.00    +0.000 A 
ATOM      3  C   UNL     1       9.249   9.811  19.447  0.00  0.00    +0.000 A 
ATOM      4  C   UNL     1       8.617  10.080  18.233  0.00  0.00    +0.000 A 
ATOM      5  C   UNL     1       8.725  11.369  17.697  0.00  0.00    +0.000 A 
ATOM      6  C   UNL     1       9.466  12.380  18.333  0.00  0.00    +0.000 A 
ENDROOT
BRANCH   1   8
ATOM      7  C   UNL     1      12.333  12.892  19.867  0.00  0.00    +0.000 C 
ATOM      8  O   UNL     1      10.932  13.025  20.118  0.00  0.00    +0.000 OA
ENDBRANCH   1   8
BRANCH   4   9
ATOM      9  C   UNL     1       7.909   8.992  17.543  0.00  0.00    +0.000 C 
ATOM     10  C   UNL     1       7.787   7.755  18.046  0.00  0.00    +0.000 C 
BRANCH  10  11
ATOM     11  C   UNL     1       7.070   6.680  17.295  0.00  0.00    +0.000 C 
ATOM     12  O   UNL     1       7.643   6.127  16.352  0.00  0.00    +0.000 OA
BRANCH  11  13
ATOM     13  C   UNL     1       5.716   6.342  17.733  0.00  0.00    +0.000 A 
ATOM     14  C   UNL     1       4.481   6.800  17.293  0.00  0.00    +0.000 A 
ATOM     15  C   UNL     1       3.389   6.212  18.002  0.00  0.00    +0.000 A 
ATOM     16  C   UNL     1       3.834   5.329  18.950  0.00  0.00    +0.000 A 
ATOM     17 BR   UNL     1       2.694   4.363  20.079  0.00  0.00    +0.000 Br
ATOM     18  S   UNL     1       5.518   5.194  19.002  0.00  0.00    +0.000 S 
ENDBRANCH  11  13
ENDBRANCH  10  11
ENDBRANCH   4   9
BRANCH   6  19
ATOM     19  O   UNL     1       9.421  13.554  17.629  0.00  0.00    +0.000 OA
ATOM     20  C   UNL     1      10.616  14.083  17.083  0.00  0.00    +0.000 C 
ENDBRANCH   6  19
TORSDOF 5
ENDMDL
MODEL 4
REMARK VINA RESULT:      -6.5      6.895      9.513
REMARK  Name = 
REMARK  7 active torsions:
REMARK  status: ('A' for Active; 'I' for Inactive)
REMARK    1  A    between atoms: C_1  and  O_2
REMARK    2  A    between atoms: O_2  and  C_3
REMARK    3  A    between atoms: C_6  and  C_7
REMARK    4  A    between atoms: C_8  and  C_9
REMARK    5  A    between atoms: C_9  and  C_11
REMARK    6  A    between atoms: C_18  and  O_19
REMARK    7  A    between atoms: O_19  and  C_20
REMARK                            x       y       z     vdW  Elec       q    Type
REMARK                         _______ _______ _______ _____ _____    ______ ____
ROOT
ATOM      1  C   UNL     1       4.385   4.868  17.046  0.00  0.00    +0.000 A 
ATOM      2  C   UNL     1       4.808   6.199  16.886  0.00  0.00    +0.000 A 
ATOM      3  C   UNL     1       4.058   7.260  17.391  0.00  0.00    +0.000 A 
ATOM      4  C   UNL     1       2.837   7.021  18.022  0.00  0.00    +0.000 A 
ATOM      5  C   UNL     1       2.386   5.699  18.121  0.00  0.00    +0.000 A 
ATOM      6  C   UNL     1       3.136   4.618  17.628  0.00  0.00    +0.000 A 
ENDROOT
BRANCH   1   8
ATOM      7  C   UNL     1       5.971   4.085  15.479  0.00  0.00    +0.000 C 
ATOM      8  O   UNL     1       5.168   3.825  16.632  0.00  0.00    +0.000 OA
ENDBRANCH   1   8
BRANCH   4   9
ATOM      9  C   UNL     1       2.100   8.155  18.598  0.00  0.00    +0.000 C 
ATOM     10  C   UNL     1       1.452   9.067  17.858  0.00  0.00    +0.000 C 
BRANCH  10  11
ATOM     11  C   UNL     1       0.731  10.211  18.495  0.00  0.00    +0.000 C 
ATOM     12  O   UNL     1       1.360  10.978  19.230  0.00  0.00    +0.000 OA
BRANCH  11  13
ATOM     13  C   UNL     1      -0.694  10.356  18.200  0.00  0.00    +0.000 A 
ATOM     14  C   UNL     1      -1.492   9.726  17.254  0.00  0.00    +0.000 A 
ATOM     15  C   UNL     1      -2.850  10.168  17.295  0.00  0.00    +0.000 A 
ATOM     16  C   UNL     1      -3.034  11.113  18.269  0.00  0.00    +0.000 A 
ATOM     17 BR   UNL     1      -4.683  11.927  18.621  0.00  0.00    +0.000 Br
ATOM     18  S   UNL     1      -1.622  11.473  19.126  0.00  0.00    +0.000 S 
ENDBRANCH  11  13
ENDBRANCH  10  11
ENDBRANCH   4   9
BRANCH   6  19
ATOM     19  O   UNL     1       2.492   3.427  17.831  0.00  0.00    +0.000 OA
ATOM     20  C   UNL     1       2.733   2.700  19.022  0.00  0.00    +0.000 C 
ENDBRANCH   6  19
TORSDOF 5
ENDMDL
MODEL 5
REMARK VINA RESULT:      -6.4      8.166     10.725
REMARK  Name = 
REMARK  7 active torsions:
REMARK  status: ('A' for Active; 'I' for Inactive)
REMARK    1  A    between atoms: C_1  and  O_2
REMARK    2  A    between atoms: O_2  and  C_3
REMARK    3  A    between atoms: C_6  and  C_7
REMARK    4  A    between atoms: C_8  and  C_9
REMARK    5  A    between atoms: C_9  and  C_11
REMARK    6  A    between atoms: C_18  and  O_19
REMARK    7  A    between atoms: O_19  and  C_20
REMARK                            x       y       z     vdW  Elec       q    Type
REMARK                         _______ _______ _______ _____ _____    ______ ____
ROOT
ATOM      1  C   UNL     1       2.040   3.762  18.507  0.00  0.00    +0.000 A 
ATOM      2  C   UNL     1       2.415   4.965  17.886  0.00  0.00    +0.000 A 
ATOM      3  C   UNL     1       2.378   6.176  18.578  0.00  0.00    +0.000 A 
ATOM      4  C   UNL     1       1.912   6.221  19.892  0.00  0.00    +0.000 A 
ATOM      5  C   UNL     1       1.475   5.031  20.485  0.00  0.00    +0.000 A 
ATOM      6  C   UNL     1       1.519   3.801  19.806  0.00  0.00    +0.000 A 
ENDROOT
BRANCH   1   8
ATOM      7  C   UNL     1       3.368   1.841  18.136  0.00  0.00    +0.000 C 
ATOM      8  O   UNL     1       2.166   2.564  17.857  0.00  0.00    +0.000 OA
ENDBRANCH   1   8
BRANCH   4   9
ATOM      9  C   UNL     1       1.944   7.501  20.614  0.00  0.00    +0.000 C 
ATOM     10  C   UNL     1       0.882   8.014  21.254  0.00  0.00    +0.000 C 
BRANCH  10  11
ATOM     11  C   UNL     1       0.963   9.329  21.960  0.00  0.00    +0.000 C 
ATOM     12  O   UNL     1       1.856   9.505  22.794  0.00  0.00    +0.000 OA
BRANCH  11  13
ATOM     13  C   UNL     1      -0.031  10.343  21.610  0.00  0.00    +0.000 A 
ATOM     14  C   UNL     1      -0.379  10.883  20.379  0.00  0.00    +0.000 A 
ATOM     15  C   UNL     1      -1.409  11.867  20.479  0.00  0.00    +0.000 A 
ATOM     16  C   UNL     1      -1.808  12.036  21.779  0.00  0.00    +0.000 A 
ATOM     17 BR   UNL     1      -3.140  13.243  22.304  0.00  0.00    +0.000 Br
ATOM     18  S   UNL     1      -0.977  11.044  22.867  0.00  0.00    +0.000 S 
ENDBRANCH  11  13
ENDBRANCH  10  11
ENDBRANCH   4   9
BRANCH   6  19
ATOM     19  O   UNL     1       1.034   2.782  20.582  0.00  0.00    +0.000 OA
ATOM     20  C   UNL     1       1.620   2.534  21.848  0.00  0.00    +0.000 C 
ENDBRANCH   6  19
TORSDOF 5
ENDMDL
MODEL 6
REMARK VINA RESULT:      -6.4      1.538      1.794
REMARK  Name = 
REMARK  7 active torsions:
REMARK  status: ('A' for Active; 'I' for Inactive)
REMARK    1  A    between atoms: C_1  and  O_2
REMARK    2  A    between atoms: O_2  and  C_3
REMARK    3  A    between atoms: C_6  and  C_7
REMARK    4  A    between atoms: C_8  and  C_9
REMARK    5  A    between atoms: C_9  and  C_11
REMARK    6  A    between atoms: C_18  and  O_19
REMARK    7  A    between atoms: O_19  and  C_20
REMARK                            x       y       z     vdW  Elec       q    Type
REMARK                         _______ _______ _______ _____ _____    ______ ____
ROOT
ATOM      1  C   UNL     1       9.812  12.610  19.265  0.00  0.00    +0.000 A 
ATOM      2  C   UNL     1      10.130  11.481  20.039  0.00  0.00    +0.000 A 
ATOM      3  C   UNL     1       9.673  10.212  19.684  0.00  0.00    +0.000 A 
ATOM      4  C   UNL     1       8.841  10.047  18.578  0.00  0.00    +0.000 A 
ATOM      5  C   UNL     1       8.471  11.184  17.847  0.00  0.00    +0.000 A 
ATOM      6  C   UNL     1       8.933  12.467  18.184  0.00  0.00    +0.000 A 
ENDROOT
BRANCH   1   8
ATOM      7  C   UNL     1      11.370  14.289  18.681  0.00  0.00    +0.000 C 
ATOM      8  O   UNL     1      10.338  13.839  19.561  0.00  0.00    +0.000 OA
ENDBRANCH   1   8
BRANCH   4   9
ATOM      9  C   UNL     1       8.426   8.690  18.194  0.00  0.00    +0.000 C 
ATOM     10  C   UNL     1       7.285   8.424  17.541  0.00  0.00    +0.000 C 
BRANCH  10  11
ATOM     11  C   UNL     1       6.903   7.022  17.190  0.00  0.00    +0.000 C 
ATOM     12  O   UNL     1       7.686   6.339  16.523  0.00  0.00    +0.000 OA
BRANCH  11  13
ATOM     13  C   UNL     1       5.609   6.537  17.669  0.00  0.00    +0.000 A 
ATOM     14  C   UNL     1       4.317   6.912  17.323  0.00  0.00    +0.000 A 
ATOM     15  C   UNL     1       3.320   6.184  18.042  0.00  0.00    +0.000 A 
ATOM     16  C   UNL     1       3.890   5.283  18.903  0.00  0.00    +0.000 A 
ATOM     17 BR   UNL     1       2.900   4.148  20.015  0.00  0.00    +0.000 Br
ATOM     18  S   UNL     1       5.580   5.295  18.862  0.00  0.00    +0.000 S 
ENDBRANCH  11  13
ENDBRANCH  10  11
ENDBRANCH   4   9
BRANCH   6  19
ATOM     19  O   UNL     1       8.434  13.419  17.334  0.00  0.00    +0.000 OA
ATOM     20  C   UNL     1       7.357  14.234  17.761  0.00  0.00    +0.000 C 
ENDBRANCH   6  19
TORSDOF 5
ENDMDL
MODEL 7
REMARK VINA RESULT:      -6.4      7.874     10.165
REMARK  Name = 
REMARK  7 active torsions:
REMARK  status: ('A' for Active; 'I' for Inactive)
REMARK    1  A    between atoms: C_1  and  O_2
REMARK    2  A    between atoms: O_2  and  C_3
REMARK    3  A    between atoms: C_6  and  C_7
REMARK    4  A    between atoms: C_8  and  C_9
REMARK    5  A    between atoms: C_9  and  C_11
REMARK    6  A    between atoms: C_18  and  O_19
REMARK    7  A    between atoms: O_19  and  C_20
REMARK                            x       y       z     vdW  Elec       q    Type
REMARK                         _______ _______ _______ _____ _____    ______ ____
ROOT
ATOM      1  C   UNL     1       3.177   4.203  18.899  0.00  0.00    +0.000 A 
ATOM      2  C   UNL     1       3.096   5.320  18.051  0.00  0.00    +0.000 A 
ATOM      3  C   UNL     1       2.638   6.551  18.522  0.00  0.00    +0.000 A 
ATOM      4  C   UNL     1       2.197   6.681  19.838  0.00  0.00    +0.000 A 
ATOM      5  C   UNL     1       2.215   5.548  20.662  0.00  0.00    +0.000 A 
ATOM      6  C   UNL     1       2.686   4.305  20.207  0.00  0.00    +0.000 A 
ENDROOT
BRANCH   1   8
ATOM      7  C   UNL     1       2.787   2.120  17.851  0.00  0.00    +0.000 C 
ATOM      8  O   UNL     1       3.713   3.022  18.460  0.00  0.00    +0.000 OA
ENDBRANCH   1   8
BRANCH   4   9
ATOM      9  C   UNL     1       1.779   8.005  20.321  0.00  0.00    +0.000 C 
ATOM     10  C   UNL     1       1.099   8.193  21.462  0.00  0.00    +0.000 C 
BRANCH  10  11
ATOM     11  C   UNL     1       0.683   9.561  21.899  0.00  0.00    +0.000 C 
ATOM     12  O   UNL     1       0.773   9.859  23.094  0.00  0.00    +0.000 OA
BRANCH  11  13
ATOM     13  C   UNL     1       0.193  10.477  20.869  0.00  0.00    +0.000 A 
ATOM     14  C   UNL     1      -0.739  10.286  19.857  0.00  0.00    +0.000 A 
ATOM     15  C   UNL     1      -0.925  11.451  19.052  0.00  0.00    +0.000 A 
ATOM     16  C   UNL     1      -0.133  12.482  19.483  0.00  0.00    +0.000 A 
ATOM     17 BR   UNL     1      -0.104  14.171  18.675  0.00  0.00    +0.000 Br
ATOM     18  S   UNL     1       0.818  12.081  20.822  0.00  0.00    +0.000 S 
ENDBRANCH  11  13
ENDBRANCH  10  11
ENDBRANCH   4   9
BRANCH   6  19
ATOM     19  O   UNL     1       2.600   3.348  21.183  0.00  0.00    +0.000 OA
ATOM     20  C   UNL     1       1.363   2.696  21.410  0.00  0.00    +0.000 C 
ENDBRANCH   6  19
TORSDOF 5
ENDMDL
MODEL 8
REMARK VINA RESULT:      -6.4      4.647      7.526
REMARK  Name = 
REMARK  7 active torsions:
REMARK  status: ('A' for Active; 'I' for Inactive)
REMARK    1  A    between atoms: C_1  and  O_2
REMARK    2  A    between atoms: O_2  and  C_3
REMARK    3  A    between atoms: C_6  and  C_7
REMARK    4  A    between atoms: C_8  and  C_9
REMARK    5  A    between atoms: C_9  and  C_11
REMARK    6  A    between atoms: C_18  and  O_19
REMARK    7  A    between atoms: O_19  and  C_20
REMARK                            x       y       z     vdW  Elec       q    Type
REMARK                         _______ _______ _______ _____ _____    ______ ____
ROOT
ATOM      1  C   UNL     1       6.749   5.097  15.460  0.00  0.00    +0.000 A 
ATOM      2  C   UNL     1       5.699   4.164  15.510  0.00  0.00    +0.000 A 
ATOM      3  C   UNL     1       4.676   4.280  16.451  0.00  0.00    +0.000 A 
ATOM      4  C   UNL     1       4.706   5.300  17.402  0.00  0.00    +0.000 A 
ATOM      5  C   UNL     1       5.789   6.188  17.392  0.00  0.00    +0.000 A 
ATOM      6  C   UNL     1       6.821   6.092  16.442  0.00  0.00    +0.000 A 
ENDROOT
BRANCH   1   8
ATOM      7  C   UNL     1       7.203   4.780  13.162  0.00  0.00    +0.000 C 
ATOM      8  O   UNL     1       7.700   5.035  14.478  0.00  0.00    +0.000 OA
ENDBRANCH   1   8
BRANCH   4   9
ATOM      9  C   UNL     1       3.582   5.432  18.340  0.00  0.00    +0.000 C 
ATOM     10  C   UNL     1       3.328   6.552  19.034  0.00  0.00    +0.000 C 
BRANCH  10  11
ATOM     11  C   UNL     1       2.181   6.627  19.989  0.00  0.00    +0.000 C 
ATOM     12  O   UNL     1       1.780   5.590  20.524  0.00  0.00    +0.000 OA
BRANCH  11  13
ATOM     13  C   UNL     1       1.598   7.946  20.238  0.00  0.00    +0.000 A 
ATOM     14  C   UNL     1       1.078   8.502  21.399  0.00  0.00    +0.000 A 
ATOM     15  C   UNL     1       0.596   9.833  21.206  0.00  0.00    +0.000 A 
ATOM     16  C   UNL     1       0.771  10.239  19.910  0.00  0.00    +0.000 A 
ATOM     17 BR   UNL     1       0.261  11.927  19.278  0.00  0.00    +0.000 Br
ATOM     18  S   UNL     1       1.495   9.065  18.933  0.00  0.00    +0.000 S 
ENDBRANCH  11  13
ENDBRANCH  10  11
ENDBRANCH   4   9
BRANCH   6  19
ATOM     19  O   UNL     1       7.771   7.060  16.634  0.00  0.00    +0.000 OA
ATOM     20  C   UNL     1       7.602   8.002  17.679  0.00  0.00    +0.000 C 
ENDBRANCH   6  19
TORSDOF 5
ENDMDL
MODEL 9
REMARK VINA RESULT:      -6.4      1.539      2.441
REMARK  Name = 
REMARK  7 active torsions:
REMARK  status: ('A' for Active; 'I' for Inactive)
REMARK    1  A    between atoms: C_1  and  O_2
REMARK    2  A    between atoms: O_2  and  C_3
REMARK    3  A    between atoms: C_6  and  C_7
REMARK    4  A    between atoms: C_8  and  C_9
REMARK    5  A    between atoms: C_9  and  C_11
REMARK    6  A    between atoms: C_18  and  O_19
REMARK    7  A    between atoms: O_19  and  C_20
REMARK                            x       y       z     vdW  Elec       q    Type
REMARK                         _______ _______ _______ _____ _____    ______ ____
ROOT
ATOM      1  C   UNL     1       9.607  12.654  19.184  0.00  0.00    +0.000 A 
ATOM      2  C   UNL     1       9.301  12.231  17.880  0.00  0.00    +0.000 A 
ATOM      3  C   UNL     1       8.928  10.913  17.617  0.00  0.00    +0.000 A 
ATOM      4  C   UNL     1       8.904   9.971  18.645  0.00  0.00    +0.000 A 
ATOM      5  C   UNL     1       9.275  10.379  19.932  0.00  0.00    +0.000 A 
ATOM      6  C   UNL     1       9.641  11.706  20.215  0.00  0.00    +0.000 A 
ENDROOT
BRANCH   1   8
ATOM      7  C   UNL     1       9.670  14.871  18.366  0.00  0.00    +0.000 C 
ATOM      8  O   UNL     1       9.882  13.968  19.454  0.00  0.00    +0.000 OA
ENDBRANCH   1   8
BRANCH   4   9
ATOM      9  C   UNL     1       8.447   8.606  18.348  0.00  0.00    +0.000 C 
ATOM     10  C   UNL     1       7.435   8.332  17.511  0.00  0.00    +0.000 C 
BRANCH  10  11
ATOM     11  C   UNL     1       6.999   6.925  17.257  0.00  0.00    +0.000 C 
ATOM     12  O   UNL     1       7.769   6.158  16.672  0.00  0.00    +0.000 OA
BRANCH  11  13
ATOM     13  C   UNL     1       5.671   6.536  17.730  0.00  0.00    +0.000 A 
ATOM     14  C   UNL     1       4.409   6.960  17.334  0.00  0.00    +0.000 A 
ATOM     15  C   UNL     1       3.359   6.326  18.067  0.00  0.00    +0.000 A 
ATOM     16  C   UNL     1       3.860   5.444  18.987  0.00  0.00    +0.000 A 
ATOM     17 BR   UNL     1       2.786   4.426  20.134  0.00  0.00    +0.000 Br
ATOM     18  S   UNL     1       5.549   5.364  18.986  0.00  0.00    +0.000 S 
ENDBRANCH  11  13
ENDBRANCH  10  11
ENDBRANCH   4   9
BRANCH   6  19
ATOM     19  O   UNL     1       9.969  11.866  21.535  0.00  0.00    +0.000 OA
ATOM     20  C   UNL     1       9.003  12.382  22.434  0.00  0.00    +0.000 C 
ENDBRANCH   6  19
TORSDOF 5
ENDMDL
