MODEL 1
REMARK VINA RESULT:      -7.5      0.000      0.000
REMARK  Name = 
REMARK  6 active torsions:
REMARK  status: ('A' for Active; 'I' for Inactive)
REMARK    1  A    between atoms: C_2  and  C_5
REMARK    2  A    between atoms: N_3  and  O_4
REMARK    3  A    between atoms: C_7  and  C_8
REMARK    4  A    between atoms: C_8  and  C_9
REMARK    5  A    between atoms: C_18  and  C_19
REMARK    6  A    between atoms: N_24  and  C_25
REMARK                            x       y       z     vdW  Elec       q    Type
REMARK                         _______ _______ _______ _____ _____    ______ ____
ROOT
ATOM      1  C   UNL     1       2.197   8.408  19.833  0.00  0.00    +0.000 C 
ATOM      2  C   UNL     1       2.415   6.913  19.486  0.00  0.00    +0.000 C 
ATOM      3  C   UNL     1       3.294   6.718  18.245  0.00  0.00    +0.000 C 
ATOM      4  C   UNL     1       2.747   7.559  17.080  0.00  0.00    +0.000 C 
ATOM      5  N   UNL     1       2.570   8.947  17.480  0.00  0.00    +0.000 NA
ATOM      6  C   UNL     1       1.605   9.103  18.601  0.00  0.00    +0.000 C 
ATOM      7  H   UNL     1       2.291   9.517  16.685  0.00  0.00    +0.000 HD
ENDROOT
BRANCH   6   8
ATOM      8  C   UNL     1       1.350  10.641  18.726  0.00  0.00    +0.000 C 
ATOM      9  O   UNL     1       2.241  11.457  18.513  0.00  0.00    +0.000 OA
ATOM     10  N   UNL     1       0.012  11.013  18.923  0.00  0.00    +0.000 N 
ATOM     11  C   UNL     1      -0.473  12.374  18.612  0.00  0.00    +0.000 C 
ATOM     12  C   UNL     1      -1.790  12.355  17.764  0.00  0.00    +0.000 C 
ATOM     13  N   UNL     1      -2.757  11.372  18.306  0.00  0.00    +0.000 N 
ATOM     14  C   UNL     1      -2.202  10.032  18.531  0.00  0.00    +0.000 C 
ATOM     15  C   UNL     1      -1.030  10.159  19.504  0.00  0.00    +0.000 C 
BRANCH  13  16
ATOM     16  C   UNL     1      -4.108  11.605  18.475  0.00  0.00    +0.000 A 
ATOM     17  C   UNL     1      -5.076  11.148  17.575  0.00  0.00    +0.000 A 
ATOM     18  C   UNL     1      -6.446  11.379  17.786  0.00  0.00    +0.000 A 
ATOM     19  C   UNL     1      -6.876  12.088  18.904  0.00  0.00    +0.000 A 
ATOM     20  C   UNL     1      -5.943  12.563  19.805  0.00  0.00    +0.000 A 
ATOM     21  C   UNL     1      -4.580  12.328  19.586  0.00  0.00    +0.000 A 
ENDBRANCH  13  16
ENDBRANCH   6   8
BRANCH   1  23
ATOM     22  O   UNL     1       0.458   7.482  21.257  0.00  0.00    +0.000 OA
ATOM     23  C   UNL     1       1.249   8.393  21.019  0.00  0.00    +0.000 C 
ATOM     24  N   UNL     1       1.504   9.404  21.921  0.00  0.00    +0.000 N 
ATOM     25  H   UNL     1       1.910  10.294  21.648  0.00  0.00    +0.000 HD
BRANCH  24  26
ATOM     26  O   UNL     1       0.774   9.385  23.129  0.00  0.00    +0.000 OA
ATOM     27  H   UNL     1       0.531   8.438  23.213  0.00  0.00    +0.000 HD
ENDBRANCH  24  26
ENDBRANCH   1  23
BRANCH   3  28
ATOM     28  C   UNL     1       3.323   5.224  17.883  0.00  0.00    +0.000 C 
BRANCH  28  29
ATOM     29  C   UNL     1       2.035   4.478  18.199  0.00  0.00    +0.000 C 
ATOM     30  O   UNL     1       1.056   4.515  17.457  0.00  0.00    +0.000 OA
ATOM     31  N   UNL     1       2.043   3.754  19.371  0.00  0.00    +0.000 N 
ATOM     32  C   UNL     1       0.877   3.026  19.831  0.00  0.00    +0.000 C 
ATOM     33  C   UNL     1       1.144   2.838  21.314  0.00  0.00    +0.000 C 
ATOM     34  C   UNL     1       2.659   2.665  21.386  0.00  0.00    +0.000 C 
ATOM     35  C   UNL     1       3.196   3.475  20.212  0.00  0.00    +0.000 C 
ENDBRANCH  28  29
ENDBRANCH   3  28
TORSDOF 6
ENDMDL
MODEL 2
REMARK VINA RESULT:      -7.2      2.783      9.107
REMARK  Name = 
REMARK  6 active torsions:
REMARK  status: ('A' for Active; 'I' for Inactive)
REMARK    1  A    between atoms: C_2  and  C_5
REMARK    2  A    between atoms: N_3  and  O_4
REMARK    3  A    between atoms: C_7  and  C_8
REMARK    4  A    between atoms: C_8  and  C_9
REMARK    5  A    between atoms: C_18  and  C_19
REMARK    6  A    between atoms: N_24  and  C_25
REMARK                            x       y       z     vdW  Elec       q    Type
REMARK                         _______ _______ _______ _____ _____    ______ ____
ROOT
ATOM      1  C   UNL     1      -0.244  11.098  18.940  0.00  0.00    +0.000 C 
ATOM      2  C   UNL     1      -1.177  11.296  20.162  0.00  0.00    +0.000 C 
ATOM      3  C   UNL     1      -0.402  11.550  21.461  0.00  0.00    +0.000 C 
ATOM      4  C   UNL     1       0.663  10.459  21.655  0.00  0.00    +0.000 C 
ATOM      5  N   UNL     1       1.499  10.333  20.470  0.00  0.00    +0.000 NA
ATOM      6  C   UNL     1       0.725   9.953  19.259  0.00  0.00    +0.000 C 
ATOM      7  H   UNL     1       2.255   9.672  20.633  0.00  0.00    +0.000 HD
ENDROOT
BRANCH   6   8
ATOM      8  C   UNL     1       1.791   9.621  18.164  0.00  0.00    +0.000 C 
ATOM      9  O   UNL     1       2.428  10.504  17.601  0.00  0.00    +0.000 OA
ATOM     10  N   UNL     1       2.083   8.258  18.005  0.00  0.00    +0.000 N 
ATOM     11  C   UNL     1       3.340   7.797  17.382  0.00  0.00    +0.000 C 
ATOM     12  C   UNL     1       4.050   6.685  18.228  0.00  0.00    +0.000 C 
ATOM     13  N   UNL     1       3.078   5.665  18.685  0.00  0.00    +0.000 N 
ATOM     14  C   UNL     1       1.885   6.211  19.343  0.00  0.00    +0.000 C 
ATOM     15  C   UNL     1       1.187   7.150  18.360  0.00  0.00    +0.000 C 
BRANCH  13  16
ATOM     16  C   UNL     1       3.288   4.300  18.644  0.00  0.00    +0.000 A 
ATOM     17  C   UNL     1       4.182   3.643  19.496  0.00  0.00    +0.000 A 
ATOM     18  C   UNL     1       4.357   2.250  19.448  0.00  0.00    +0.000 A 
ATOM     19  C   UNL     1       3.646   1.482  18.529  0.00  0.00    +0.000 A 
ATOM     20  C   UNL     1       2.766   2.104  17.665  0.00  0.00    +0.000 A 
ATOM     21  C   UNL     1       2.598   3.493  17.721  0.00  0.00    +0.000 A 
ENDBRANCH  13  16
ENDBRANCH   6   8
BRANCH   1  23
ATOM     22  O   UNL     1      -1.735   9.695  17.630  0.00  0.00    +0.000 OA
ATOM     23  C   UNL     1      -1.181  10.782  17.788  0.00  0.00    +0.000 C 
ATOM     24  N   UNL     1      -1.515  11.896  17.047  0.00  0.00    +0.000 N 
ATOM     25  H   UNL     1      -0.898  12.696  16.951  0.00  0.00    +0.000 HD
BRANCH  24  26
ATOM     26  O   UNL     1      -2.497  11.729  16.047  0.00  0.00    +0.000 OA
ATOM     27  H   UNL     1      -3.011  10.964  16.382  0.00  0.00    +0.000 HD
ENDBRANCH  24  26
ENDBRANCH   1  23
BRANCH   3  28
ATOM     28  C   UNL     1      -1.392  11.572  22.637  0.00  0.00    +0.000 C 
BRANCH  28  29
ATOM     29  C   UNL     1      -1.688  12.962  23.181  0.00  0.00    +0.000 C 
ATOM     30  O   UNL     1      -0.818  13.667  23.686  0.00  0.00    +0.000 OA
ATOM     31  N   UNL     1      -2.997  13.377  23.063  0.00  0.00    +0.000 N 
ATOM     32  C   UNL     1      -3.444  14.657  23.574  0.00  0.00    +0.000 C 
ATOM     33  C   UNL     1      -4.947  14.479  23.701  0.00  0.00    +0.000 C 
ATOM     34  C   UNL     1      -5.299  13.568  22.529  0.00  0.00    +0.000 C 
ATOM     35  C   UNL     1      -4.052  12.720  22.310  0.00  0.00    +0.000 C 
ENDBRANCH  28  29
ENDBRANCH   3  28
TORSDOF 6
ENDMDL
MODEL 3
REMARK VINA RESULT:      -7.1      1.725      2.824
REMARK  Name = 
REMARK  6 active torsions:
REMARK  status: ('A' for Active; 'I' for Inactive)
REMARK    1  A    between atoms: C_2  and  C_5
REMARK    2  A    between atoms: N_3  and  O_4
REMARK    3  A    between atoms: C_7  and  C_8
REMARK    4  A    between atoms: C_8  and  C_9
REMARK    5  A    between atoms: C_18  and  C_19
REMARK    6  A    between atoms: N_24  and  C_25
REMARK                            x       y       z     vdW  Elec       q    Type
REMARK                         _______ _______ _______ _____ _____    ______ ____
ROOT
ATOM      1  C   UNL     1       1.972   8.578  20.094  0.00  0.00    +0.000 C 
ATOM      2  C   UNL     1       2.188   7.066  19.827  0.00  0.00    +0.000 C 
ATOM      3  C   UNL     1       3.083   6.804  18.610  0.00  0.00    +0.000 C 
ATOM      4  C   UNL     1       2.554   7.584  17.396  0.00  0.00    +0.000 C 
ATOM      5  N   UNL     1       2.378   8.992  17.720  0.00  0.00    +0.000 NA
ATOM      6  C   UNL     1       1.399   9.210  18.819  0.00  0.00    +0.000 C 
ATOM      7  H   UNL     1       2.111   9.521  16.893  0.00  0.00    +0.000 HD
ENDROOT
BRANCH   6   8
ATOM      8  C   UNL     1       1.149  10.753  18.860  0.00  0.00    +0.000 C 
ATOM      9  O   UNL     1       2.058  11.555  18.672  0.00  0.00    +0.000 OA
ATOM     10  N   UNL     1      -0.196  11.140  18.953  0.00  0.00    +0.000 N 
ATOM     11  C   UNL     1      -0.649  12.489  18.552  0.00  0.00    +0.000 C 
ATOM     12  C   UNL     1      -1.908  12.440  17.620  0.00  0.00    +0.000 C 
ATOM     13  N   UNL     1      -2.915  11.487  18.139  0.00  0.00    +0.000 N 
ATOM     14  C   UNL     1      -2.387  10.154  18.458  0.00  0.00    +0.000 C 
ATOM     15  C   UNL     1      -1.281  10.318  19.500  0.00  0.00    +0.000 C 
BRANCH  13  16
ATOM     16  C   UNL     1      -4.273  11.733  18.209  0.00  0.00    +0.000 A 
ATOM     17  C   UNL     1      -4.956  11.883  19.420  0.00  0.00    +0.000 A 
ATOM     18  C   UNL     1      -6.334  12.157  19.460  0.00  0.00    +0.000 A 
ATOM     19  C   UNL     1      -7.063  12.276  18.280  0.00  0.00    +0.000 A 
ATOM     20  C   UNL     1      -6.418  12.121  17.068  0.00  0.00    +0.000 A 
ATOM     21  C   UNL     1      -5.045  11.847  17.038  0.00  0.00    +0.000 A 
ENDBRANCH  13  16
ENDBRANCH   6   8
BRANCH   1  23
ATOM     22  O   UNL     1       0.108   7.812  21.453  0.00  0.00    +0.000 OA
ATOM     23  C   UNL     1       1.009   8.628  21.266  0.00  0.00    +0.000 C 
ATOM     24  N   UNL     1       1.370   9.560  22.216  0.00  0.00    +0.000 N 
ATOM     25  H   UNL     1       1.887  10.404  21.989  0.00  0.00    +0.000 HD
BRANCH  24  26
ATOM     26  O   UNL     1       0.622   9.578  23.413  0.00  0.00    +0.000 OA
ATOM     27  H   UNL     1       1.279   9.900  24.067  0.00  0.00    +0.000 HD
ENDBRANCH  24  26
ENDBRANCH   1  23
BRANCH   3  28
ATOM     28  C   UNL     1       3.110   5.293  18.327  0.00  0.00    +0.000 C 
BRANCH  28  29
ATOM     29  C   UNL     1       4.489   4.659  18.442  0.00  0.00    +0.000 C 
ATOM     30  O   UNL     1       4.885   4.134  19.480  0.00  0.00    +0.000 OA
ATOM     31  N   UNL     1       5.260   4.709  17.301  0.00  0.00    +0.000 N 
ATOM     32  C   UNL     1       6.612   4.188  17.265  0.00  0.00    +0.000 C 
ATOM     33  C   UNL     1       7.226   4.888  16.066  0.00  0.00    +0.000 C 
ATOM     34  C   UNL     1       6.060   5.014  15.090  0.00  0.00    +0.000 C 
ATOM     35  C   UNL     1       4.824   5.116  15.975  0.00  0.00    +0.000 C 
ENDBRANCH  28  29
ENDBRANCH   3  28
TORSDOF 6
ENDMDL
MODEL 4
REMARK VINA RESULT:      -7.0      4.876      9.656
REMARK  Name = 
REMARK  6 active torsions:
REMARK  status: ('A' for Active; 'I' for Inactive)
REMARK    1  A    between atoms: C_2  and  C_5
REMARK    2  A    between atoms: N_3  and  O_4
REMARK    3  A    between atoms: C_7  and  C_8
REMARK    4  A    between atoms: C_8  and  C_9
REMARK    5  A    between atoms: C_18  and  C_19
REMARK    6  A    between atoms: N_24  and  C_25
REMARK                            x       y       z     vdW  Elec       q    Type
REMARK                         _______ _______ _______ _____ _____    ______ ____
ROOT
ATOM      1  C   UNL     1      -0.877  11.089  21.771  0.00  0.00    +0.000 C 
ATOM      2  C   UNL     1      -1.658  11.598  23.009  0.00  0.00    +0.000 C 
ATOM      3  C   UNL     1      -2.692  12.673  22.654  0.00  0.00    +0.000 C 
ATOM      4  C   UNL     1      -2.025  13.787  21.832  0.00  0.00    +0.000 C 
ATOM      5  N   UNL     1      -1.314  13.235  20.689  0.00  0.00    +0.000 NA
ATOM      6  C   UNL     1      -0.229  12.298  21.086  0.00  0.00    +0.000 C 
ATOM      7  H   UNL     1      -0.947  13.979  20.101  0.00  0.00    +0.000 HD
ENDROOT
BRANCH   6   8
ATOM      8  C   UNL     1       0.575  12.006  19.776  0.00  0.00    +0.000 C 
ATOM      9  O   UNL     1       0.103  11.322  18.874  0.00  0.00    +0.000 OA
ATOM     10  N   UNL     1       1.778  12.714  19.640  0.00  0.00    +0.000 N 
ATOM     11  C   UNL     1       2.417  12.920  18.324  0.00  0.00    +0.000 C 
ATOM     12  C   UNL     1       2.832  14.413  18.092  0.00  0.00    +0.000 C 
ATOM     13  N   UNL     1       3.499  14.971  19.291  0.00  0.00    +0.000 N 
ATOM     14  C   UNL     1       2.765  14.770  20.547  0.00  0.00    +0.000 C 
ATOM     15  C   UNL     1       2.568  13.267  20.746  0.00  0.00    +0.000 C 
BRANCH  13  16
ATOM     16  C   UNL     1       4.644  15.743  19.270  0.00  0.00    +0.000 A 
ATOM     17  C   UNL     1       4.759  16.952  19.963  0.00  0.00    +0.000 A 
ATOM     18  C   UNL     1       5.946  17.704  19.943  0.00  0.00    +0.000 A 
ATOM     19  C   UNL     1       7.046  17.263  19.212  0.00  0.00    +0.000 A 
ATOM     20  C   UNL     1       6.959  16.079  18.507  0.00  0.00    +0.000 A 
ATOM     21  C   UNL     1       5.772  15.337  18.533  0.00  0.00    +0.000 A 
ENDBRANCH  13  16
ENDBRANCH   6   8
BRANCH   1  23
ATOM     22  O   UNL     1       0.309   9.909  23.534  0.00  0.00    +0.000 OA
ATOM     23  C   UNL     1       0.138  10.110  22.333  0.00  0.00    +0.000 C 
ATOM     24  N   UNL     1       0.709   9.314  21.362  0.00  0.00    +0.000 N 
ATOM     25  H   UNL     1       0.824   9.619  20.400  0.00  0.00    +0.000 HD
BRANCH  24  26
ATOM     26  O   UNL     1       1.553   8.272  21.801  0.00  0.00    +0.000 OA
ATOM     27  H   UNL     1       2.181   8.181  21.054  0.00  0.00    +0.000 HD
ENDBRANCH  24  26
ENDBRANCH   1  23
BRANCH   3  28
ATOM     28  C   UNL     1      -3.300  13.231  23.951  0.00  0.00    +0.000 C 
BRANCH  28  29
ATOM     29  C   UNL     1      -4.764  12.873  24.162  0.00  0.00    +0.000 C 
ATOM     30  O   UNL     1      -5.117  11.772  24.577  0.00  0.00    +0.000 OA
ATOM     31  N   UNL     1      -5.666  13.870  23.859  0.00  0.00    +0.000 N 
ATOM     32  C   UNL     1      -7.097  13.668  23.965  0.00  0.00    +0.000 C 
ATOM     33  C   UNL     1      -7.672  14.764  23.084  0.00  0.00    +0.000 C 
ATOM     34  C   UNL     1      -6.698  15.924  23.275  0.00  0.00    +0.000 C 
ATOM     35  C   UNL     1      -5.357  15.259  23.560  0.00  0.00    +0.000 C 
ENDBRANCH  28  29
ENDBRANCH   3  28
TORSDOF 6
ENDMDL
MODEL 5
REMARK VINA RESULT:      -7.0      2.246      2.839
REMARK  Name = 
REMARK  6 active torsions:
REMARK  status: ('A' for Active; 'I' for Inactive)
REMARK    1  A    between atoms: C_2  and  C_5
REMARK    2  A    between atoms: N_3  and  O_4
REMARK    3  A    between atoms: C_7  and  C_8
REMARK    4  A    between atoms: C_8  and  C_9
REMARK    5  A    between atoms: C_18  and  C_19
REMARK    6  A    between atoms: N_24  and  C_25
REMARK                            x       y       z     vdW  Elec       q    Type
REMARK                         _______ _______ _______ _____ _____    ______ ____
ROOT
ATOM      1  C   UNL     1       1.710   9.518  20.773  0.00  0.00    +0.000 C 
ATOM      2  C   UNL     1       1.641   8.180  19.992  0.00  0.00    +0.000 C 
ATOM      3  C   UNL     1       2.287   8.272  18.605  0.00  0.00    +0.000 C 
ATOM      4  C   UNL     1       1.711   9.475  17.840  0.00  0.00    +0.000 C 
ATOM      5  N   UNL     1       1.812  10.691  18.633  0.00  0.00    +0.000 NA
ATOM      6  C   UNL     1       1.058  10.607  19.912  0.00  0.00    +0.000 C 
ATOM      7  H   UNL     1       1.510  11.498  18.092  0.00  0.00    +0.000 HD
ENDROOT
BRANCH   6   8
ATOM      8  C   UNL     1       1.066  12.055  20.502  0.00  0.00    +0.000 C 
ATOM      9  O   UNL     1       2.082  12.741  20.504  0.00  0.00    +0.000 OA
ATOM     10  N   UNL     1      -0.192  12.563  20.860  0.00  0.00    +0.000 N 
ATOM     11  C   UNL     1      -0.438  14.015  20.990  0.00  0.00    +0.000 C 
ATOM     12  C   UNL     1      -1.733  14.468  20.233  0.00  0.00    +0.000 C 
ATOM     13  N   UNL     1      -2.856  13.539  20.499  0.00  0.00    +0.000 N 
ATOM     14  C   UNL     1      -2.537  12.121  20.289  0.00  0.00    +0.000 C 
ATOM     15  C   UNL     1      -1.368  11.756  21.204  0.00  0.00    +0.000 C 
BRANCH  13  16
ATOM     16  C   UNL     1      -4.149  13.927  20.789  0.00  0.00    +0.000 A 
ATOM     17  C   UNL     1      -4.551  15.266  20.824  0.00  0.00    +0.000 A 
ATOM     18  C   UNL     1      -5.880  15.630  21.099  0.00  0.00    +0.000 A 
ATOM     19  C   UNL     1      -6.839  14.653  21.358  0.00  0.00    +0.000 A 
ATOM     20  C   UNL     1      -6.469  13.322  21.343  0.00  0.00    +0.000 A 
ATOM     21  C   UNL     1      -5.142  12.970  21.069  0.00  0.00    +0.000 A 
ENDBRANCH  13  16
ENDBRANCH   6   8
BRANCH   1  23
ATOM     22  O   UNL     1       1.294   9.688  23.161  0.00  0.00    +0.000 OA
ATOM     23  C   UNL     1       0.957   9.249  22.063  0.00  0.00    +0.000 C 
ATOM     24  N   UNL     1      -0.260   8.634  21.855  0.00  0.00    +0.000 N 
ATOM     25  H   UNL     1      -0.438   8.022  21.065  0.00  0.00    +0.000 HD
BRANCH  24  26
ATOM     26  O   UNL     1      -1.100   8.478  22.979  0.00  0.00    +0.000 OA
ATOM     27  H   UNL     1      -1.110   7.504  23.100  0.00  0.00    +0.000 HD
ENDBRANCH  24  26
ENDBRANCH   1  23
BRANCH   3  28
ATOM     28  C   UNL     1       2.031   6.960  17.846  0.00  0.00    +0.000 C 
BRANCH  28  29
ATOM     29  C   UNL     1       3.177   5.961  17.918  0.00  0.00    +0.000 C 
ATOM     30  O   UNL     1       4.354   6.308  17.854  0.00  0.00    +0.000 OA
ATOM     31  N   UNL     1       2.804   4.642  18.063  0.00  0.00    +0.000 N 
ATOM     32  C   UNL     1       3.778   3.570  18.102  0.00  0.00    +0.000 C 
ATOM     33  C   UNL     1       2.958   2.340  17.754  0.00  0.00    +0.000 C 
ATOM     34  C   UNL     1       1.598   2.626  18.384  0.00  0.00    +0.000 C 
ATOM     35  C   UNL     1       1.469   4.144  18.351  0.00  0.00    +0.000 C 
ENDBRANCH  28  29
ENDBRANCH   3  28
TORSDOF 6
ENDMDL
MODEL 6
REMARK VINA RESULT:      -7.0      1.405      2.294
REMARK  Name = 
REMARK  6 active torsions:
REMARK  status: ('A' for Active; 'I' for Inactive)
REMARK    1  A    between atoms: C_2  and  C_5
REMARK    2  A    between atoms: N_3  and  O_4
REMARK    3  A    between atoms: C_7  and  C_8
REMARK    4  A    between atoms: C_8  and  C_9
REMARK    5  A    between atoms: C_18  and  C_19
REMARK    6  A    between atoms: N_24  and  C_25
REMARK                            x       y       z     vdW  Elec       q    Type
REMARK                         _______ _______ _______ _____ _____    ______ ____
ROOT
ATOM      1  C   UNL     1       1.757   8.466  20.448  0.00  0.00    +0.000 C 
ATOM      2  C   UNL     1       1.901   6.926  20.347  0.00  0.00    +0.000 C 
ATOM      3  C   UNL     1       2.839   6.494  19.214  0.00  0.00    +0.000 C 
ATOM      4  C   UNL     1       2.418   7.171  17.901  0.00  0.00    +0.000 C 
ATOM      5  N   UNL     1       2.305   8.612  18.072  0.00  0.00    +0.000 NA
ATOM      6  C   UNL     1       1.286   8.992  19.086  0.00  0.00    +0.000 C 
ATOM      7  H   UNL     1       2.111   9.066  17.182  0.00  0.00    +0.000 HD
ENDROOT
BRANCH   6   8
ATOM      8  C   UNL     1       1.122  10.542  18.959  0.00  0.00    +0.000 C 
ATOM      9  O   UNL     1       2.075  11.268  18.694  0.00  0.00    +0.000 OA
ATOM     10  N   UNL     1      -0.200  11.010  18.995  0.00  0.00    +0.000 N 
ATOM     11  C   UNL     1      -0.575  12.330  18.447  0.00  0.00    +0.000 C 
ATOM     12  C   UNL     1      -1.831  12.250  17.513  0.00  0.00    +0.000 C 
ATOM     13  N   UNL     1      -2.892  11.415  18.121  0.00  0.00    +0.000 N 
ATOM     14  C   UNL     1      -2.440  10.098  18.587  0.00  0.00    +0.000 C 
ATOM     15  C   UNL     1      -1.331  10.313  19.617  0.00  0.00    +0.000 C 
BRANCH  13  16
ATOM     16  C   UNL     1      -4.234  11.742  18.150  0.00  0.00    +0.000 A 
ATOM     17  C   UNL     1      -5.009  11.871  16.993  0.00  0.00    +0.000 A 
ATOM     18  C   UNL     1      -6.378  12.181  17.054  0.00  0.00    +0.000 A 
ATOM     19  C   UNL     1      -7.001  12.382  18.284  0.00  0.00    +0.000 A 
ATOM     20  C   UNL     1      -6.258  12.274  19.443  0.00  0.00    +0.000 A 
ATOM     21  C   UNL     1      -4.895  11.965  19.372  0.00  0.00    +0.000 A 
ENDBRANCH  13  16
ENDBRANCH   6   8
BRANCH   1  23
ATOM     22  O   UNL     1      -0.313   8.060  21.655  0.00  0.00    +0.000 OA
ATOM     23  C   UNL     1       0.740   8.686  21.554  0.00  0.00    +0.000 C 
ATOM     24  N   UNL     1       1.206   9.515  22.553  0.00  0.00    +0.000 N 
ATOM     25  H   UNL     1       1.892  10.244  22.386  0.00  0.00    +0.000 HD
BRANCH  24  26
ATOM     26  O   UNL     1       0.392   9.661  23.697  0.00  0.00    +0.000 OA
ATOM     27  H   UNL     1       1.014   9.450  24.426  0.00  0.00    +0.000 HD
ENDBRANCH  24  26
ENDBRANCH   1  23
BRANCH   3  28
ATOM     28  C   UNL     1       2.795   4.963  19.086  0.00  0.00    +0.000 C 
BRANCH  28  29
ATOM     29  C   UNL     1       3.109   4.441  17.691  0.00  0.00    +0.000 C 
ATOM     30  O   UNL     1       2.251   3.934  16.973  0.00  0.00    +0.000 OA
ATOM     31  N   UNL     1       4.419   4.582  17.287  0.00  0.00    +0.000 N 
ATOM     32  C   UNL     1       4.882   4.095  16.004  0.00  0.00    +0.000 C 
ATOM     33  C   UNL     1       6.385   3.984  16.193  0.00  0.00    +0.000 C 
ATOM     34  C   UNL     1       6.715   5.149  17.122  0.00  0.00    +0.000 C 
ATOM     35  C   UNL     1       5.458   5.340  17.962  0.00  0.00    +0.000 C 
ENDBRANCH  28  29
ENDBRANCH   3  28
TORSDOF 6
ENDMDL
MODEL 7
REMARK VINA RESULT:      -6.9      3.550      6.288
REMARK  Name = 
REMARK  6 active torsions:
REMARK  status: ('A' for Active; 'I' for Inactive)
REMARK    1  A    between atoms: C_2  and  C_5
REMARK    2  A    between atoms: N_3  and  O_4
REMARK    3  A    between atoms: C_7  and  C_8
REMARK    4  A    between atoms: C_8  and  C_9
REMARK    5  A    between atoms: C_18  and  C_19
REMARK    6  A    between atoms: N_24  and  C_25
REMARK                            x       y       z     vdW  Elec       q    Type
REMARK                         _______ _______ _______ _____ _____    ______ ____
ROOT
ATOM      1  C   UNL     1       3.444   3.904  19.017  0.00  0.00    +0.000 C 
ATOM      2  C   UNL     1       4.101   3.485  17.676  0.00  0.00    +0.000 C 
ATOM      3  C   UNL     1       5.174   4.476  17.210  0.00  0.00    +0.000 C 
ATOM      4  C   UNL     1       4.602   5.903  17.209  0.00  0.00    +0.000 C 
ATOM      5  N   UNL     1       4.004   6.224  18.497  0.00  0.00    +0.000 NA
ATOM      6  C   UNL     1       2.878   5.319  18.849  0.00  0.00    +0.000 C 
ATOM      7  H   UNL     1       3.704   7.196  18.521  0.00  0.00    +0.000 HD
ENDROOT
BRANCH   6   8
ATOM      8  C   UNL     1       2.207   5.953  20.112  0.00  0.00    +0.000 C 
ATOM      9  O   UNL     1       2.345   5.459  21.226  0.00  0.00    +0.000 OA
ATOM     10  N   UNL     1       1.597   7.199  19.905  0.00  0.00    +0.000 N 
ATOM     11  C   UNL     1       1.331   8.132  21.020  0.00  0.00    +0.000 C 
ATOM     12  C   UNL     1       1.812   9.589  20.702  0.00  0.00    +0.000 C 
ATOM     13  N   UNL     1       1.408   9.995  19.336  0.00  0.00    +0.000 N 
ATOM     14  C   UNL     1       1.762   9.033  18.284  0.00  0.00    +0.000 C 
ATOM     15  C   UNL     1       1.098   7.698  18.618  0.00  0.00    +0.000 C 
BRANCH  13  16
ATOM     16  C   UNL     1       0.865  11.221  19.005  0.00  0.00    +0.000 A 
ATOM     17  C   UNL     1       1.625  12.393  18.932  0.00  0.00    +0.000 A 
ATOM     18  C   UNL     1       1.050  13.623  18.568  0.00  0.00    +0.000 A 
ATOM     19  C   UNL     1      -0.310  13.707  18.282  0.00  0.00    +0.000 A 
ATOM     20  C   UNL     1      -1.089  12.569  18.358  0.00  0.00    +0.000 A 
ATOM     21  C   UNL     1      -0.507  11.348  18.721  0.00  0.00    +0.000 A 
ENDBRANCH  13  16
ENDBRANCH   6   8
BRANCH   1  23
ATOM     22  O   UNL     1       2.170   2.318  20.347  0.00  0.00    +0.000 OA
ATOM     23  C   UNL     1       2.370   2.859  19.261  0.00  0.00    +0.000 C 
ATOM     24  N   UNL     1       1.503   2.722  18.197  0.00  0.00    +0.000 N 
ATOM     25  H   UNL     1       1.779   2.905  17.238  0.00  0.00    +0.000 HD
BRANCH  24  26
ATOM     26  O   UNL     1       0.384   1.884  18.386  0.00  0.00    +0.000 OA
ATOM     27  H   UNL     1       0.698   1.266  19.081  0.00  0.00    +0.000 HD
ENDBRANCH  24  26
ENDBRANCH   1  23
BRANCH   3  28
ATOM     28  C   UNL     1       5.653   4.071  15.807  0.00  0.00    +0.000 C 
BRANCH  28  29
ATOM     29  C   UNL     1       6.798   4.916  15.267  0.00  0.00    +0.000 C 
ATOM     30  O   UNL     1       7.448   5.674  15.983  0.00  0.00    +0.000 OA
ATOM     31  N   UNL     1       7.060   4.768  13.922  0.00  0.00    +0.000 N 
ATOM     32  C   UNL     1       8.090   5.536  13.253  0.00  0.00    +0.000 C 
ATOM     33  C   UNL     1       7.694   5.452  11.789  0.00  0.00    +0.000 C 
ATOM     34  C   UNL     1       7.092   4.056  11.661  0.00  0.00    +0.000 C 
ATOM     35  C   UNL     1       6.499   3.764  13.034  0.00  0.00    +0.000 C 
ENDBRANCH  28  29
ENDBRANCH   3  28
TORSDOF 6
ENDMDL
MODEL 8
REMARK VINA RESULT:      -6.8      4.812      8.015
REMARK  Name = 
REMARK  6 active torsions:
REMARK  status: ('A' for Active; 'I' for Inactive)
REMARK    1  A    between atoms: C_2  and  C_5
REMARK    2  A    between atoms: N_3  and  O_4
REMARK    3  A    between atoms: C_7  and  C_8
REMARK    4  A    between atoms: C_8  and  C_9
REMARK    5  A    between atoms: C_18  and  C_19
REMARK    6  A    between atoms: N_24  and  C_25
REMARK                            x       y       z     vdW  Elec       q    Type
REMARK                         _______ _______ _______ _____ _____    ______ ____
ROOT
ATOM      1  C   UNL     1       1.492  11.967  19.521  0.00  0.00    +0.000 C 
ATOM      2  C   UNL     1       2.032  13.065  18.569  0.00  0.00    +0.000 C 
ATOM      3  C   UNL     1       2.680  14.233  19.321  0.00  0.00    +0.000 C 
ATOM      4  C   UNL     1       1.719  14.756  20.400  0.00  0.00    +0.000 C 
ATOM      5  N   UNL     1       1.257  13.672  21.255  0.00  0.00    +0.000 NA
ATOM      6  C   UNL     1       0.515  12.625  20.503  0.00  0.00    +0.000 C 
ATOM      7  H   UNL     1       0.691  14.033  22.019  0.00  0.00    +0.000 HD
ENDROOT
BRANCH   6   8
ATOM      8  C   UNL     1      -0.111  11.691  21.590  0.00  0.00    +0.000 C 
ATOM      9  O   UNL     1       0.567  10.868  22.197  0.00  0.00    +0.000 OA
ATOM     10  N   UNL     1      -1.440  11.980  21.935  0.00  0.00    +0.000 N 
ATOM     11  C   UNL     1      -2.028  11.532  23.215  0.00  0.00    +0.000 C 
ATOM     12  C   UNL     1      -2.778  12.689  23.961  0.00  0.00    +0.000 C 
ATOM     13  N   UNL     1      -3.632  13.457  23.026  0.00  0.00    +0.000 N 
ATOM     14  C   UNL     1      -2.950  13.909  21.807  0.00  0.00    +0.000 C 
ATOM     15  C   UNL     1      -2.407  12.679  21.081  0.00  0.00    +0.000 C 
BRANCH  13  16
ATOM     16  C   UNL     1      -4.928  13.858  23.289  0.00  0.00    +0.000 A 
ATOM     17  C   UNL     1      -5.366  15.174  23.112  0.00  0.00    +0.000 A 
ATOM     18  C   UNL     1      -6.696  15.549  23.364  0.00  0.00    +0.000 A 
ATOM     19  C   UNL     1      -7.619  14.609  23.816  0.00  0.00    +0.000 A 
ATOM     20  C   UNL     1      -7.213  13.303  24.013  0.00  0.00    +0.000 A 
ATOM     21  C   UNL     1      -5.885  12.940  23.758  0.00  0.00    +0.000 A 
ENDBRANCH  13  16
ENDBRANCH   6   8
BRANCH   1  23
ATOM     22  O   UNL     1       1.180   9.784  18.500  0.00  0.00    +0.000 OA
ATOM     23  C   UNL     1       0.825  10.957  18.606  0.00  0.00    +0.000 C 
ATOM     24  N   UNL     1      -0.348  11.426  18.054  0.00  0.00    +0.000 N 
ATOM     25  H   UNL     1      -0.515  12.412  17.877  0.00  0.00    +0.000 HD
BRANCH  24  26
ATOM     26  O   UNL     1      -1.118  10.508  17.308  0.00  0.00    +0.000 OA
ATOM     27  H   UNL     1      -2.033  10.827  17.462  0.00  0.00    +0.000 HD
ENDBRANCH  24  26
ENDBRANCH   1  23
BRANCH   3  28
ATOM     28  C   UNL     1       3.037  15.339  18.315  0.00  0.00    +0.000 C 
BRANCH  28  29
ATOM     29  C   UNL     1       4.035  16.363  18.837  0.00  0.00    +0.000 C 
ATOM     30  O   UNL     1       3.681  17.391  19.407  0.00  0.00    +0.000 OA
ATOM     31  N   UNL     1       5.362  16.055  18.629  0.00  0.00    +0.000 N 
ATOM     32  C   UNL     1       6.428  16.950  19.029  0.00  0.00    +0.000 C 
ATOM     33  C   UNL     1       7.605  16.493  18.184  0.00  0.00    +0.000 C 
ATOM     34  C   UNL     1       7.405  14.984  18.079  0.00  0.00    +0.000 C 
ATOM     35  C   UNL     1       5.895  14.788  18.155  0.00  0.00    +0.000 C 
ENDBRANCH  28  29
ENDBRANCH   3  28
TORSDOF 6
ENDMDL
MODEL 9
REMARK VINA RESULT:      -6.7      1.747      2.639
REMARK  Name = 
REMARK  6 active torsions:
REMARK  status: ('A' for Active; 'I' for Inactive)
REMARK    1  A    between atoms: C_2  and  C_5
REMARK    2  A    between atoms: N_3  and  O_4
REMARK    3  A    between atoms: C_7  and  C_8
REMARK    4  A    between atoms: C_8  and  C_9
REMARK    5  A    between atoms: C_18  and  C_19
REMARK    6  A    between atoms: N_24  and  C_25
REMARK                            x       y       z     vdW  Elec       q    Type
REMARK                         _______ _______ _______ _____ _____    ______ ____
ROOT
ATOM      1  C   UNL     1       1.934   8.735  20.135  0.00  0.00    +0.000 C 
ATOM      2  C   UNL     1       2.198   7.246  19.793  0.00  0.00    +0.000 C 
ATOM      3  C   UNL     1       3.079   7.073  18.551  0.00  0.00    +0.000 C 
ATOM      4  C   UNL     1       2.503   7.892  17.385  0.00  0.00    +0.000 C 
ATOM      5  N   UNL     1       2.284   9.275  17.779  0.00  0.00    +0.000 NA
ATOM      6  C   UNL     1       1.317   9.406  18.902  0.00  0.00    +0.000 C 
ATOM      7  H   UNL     1       1.984   9.833  16.983  0.00  0.00    +0.000 HD
ENDROOT
BRANCH   6   8
ATOM      8  C   UNL     1       1.015  10.936  19.022  0.00  0.00    +0.000 C 
ATOM      9  O   UNL     1       1.886  11.778  18.830  0.00  0.00    +0.000 OA
ATOM     10  N   UNL     1      -0.337  11.269  19.188  0.00  0.00    +0.000 N 
ATOM     11  C   UNL     1      -0.854  12.615  18.866  0.00  0.00    +0.000 C 
ATOM     12  C   UNL     1      -2.150  12.559  17.987  0.00  0.00    +0.000 C 
ATOM     13  N   UNL     1      -3.100  11.548  18.506  0.00  0.00    +0.000 N 
ATOM     14  C   UNL     1      -2.512  10.224  18.744  0.00  0.00    +0.000 C 
ATOM     15  C   UNL     1      -1.368  10.384  19.744  0.00  0.00    +0.000 C 
BRANCH  13  16
ATOM     16  C   UNL     1      -4.461  11.741  18.644  0.00  0.00    +0.000 A 
ATOM     17  C   UNL     1      -5.392  11.276  17.710  0.00  0.00    +0.000 A 
ATOM     18  C   UNL     1      -6.773  11.466  17.889  0.00  0.00    +0.000 A 
ATOM     19  C   UNL     1      -7.252  12.142  19.008  0.00  0.00    +0.000 A 
ATOM     20  C   UNL     1      -6.355  12.625  19.941  0.00  0.00    +0.000 A 
ATOM     21  C   UNL     1      -4.982  12.430  19.754  0.00  0.00    +0.000 A 
ENDBRANCH  13  16
ENDBRANCH   6   8
BRANCH   1  23
ATOM     22  O   UNL     1       0.150   7.817  21.507  0.00  0.00    +0.000 OA
ATOM     23  C   UNL     1       0.991   8.695  21.324  0.00  0.00    +0.000 C 
ATOM     24  N   UNL     1       1.306   9.628  22.290  0.00  0.00    +0.000 N 
ATOM     25  H   UNL     1       1.761  10.510  22.073  0.00  0.00    +0.000 HD
BRANCH  24  26
ATOM     26  O   UNL     1       0.580   9.570  23.499  0.00  0.00    +0.000 OA
ATOM     27  H   UNL     1       0.993   8.807  23.956  0.00  0.00    +0.000 HD
ENDBRANCH  24  26
ENDBRANCH   1  23
BRANCH   3  28
ATOM     28  C   UNL     1       3.153   5.579  18.195  0.00  0.00    +0.000 C 
BRANCH  28  29
ATOM     29  C   UNL     1       4.386   4.867  18.734  0.00  0.00    +0.000 C 
ATOM     30  O   UNL     1       4.307   3.862  19.436  0.00  0.00    +0.000 OA
ATOM     31  N   UNL     1       5.595   5.424  18.377  0.00  0.00    +0.000 N 
ATOM     32  C   UNL     1       6.855   4.887  18.847  0.00  0.00    +0.000 C 
ATOM     33  C   UNL     1       7.820   6.046  18.664  0.00  0.00    +0.000 C 
ATOM     34  C   UNL     1       7.311   6.738  17.402  0.00  0.00    +0.000 C 
ATOM     35  C   UNL     1       5.810   6.476  17.397  0.00  0.00    +0.000 C 
ENDBRANCH  28  29
ENDBRANCH   3  28
TORSDOF 6
ENDMDL
