MODEL 1
REMARK VINA RESULT:      -8.3      0.000      0.000
REMARK  Name = 
REMARK  9 active torsions:
REMARK  status: ('A' for Active; 'I' for Inactive)
REMARK    1  A    between atoms: C_1  and  C_2
REMARK    2  A    between atoms: C_2  and  C_4
REMARK    3  A    between atoms: C_7  and  N_8
REMARK    4  A    between atoms: C_9  and  S_10
REMARK    5  A    between atoms: N_11  and  C_12
REMARK    6  A    between atoms: C_12  and  C_13
REMARK    7  A    between atoms: C_13  and  C_14
REMARK    8  A    between atoms: N_17  and  C_18
REMARK    9  A    between atoms: C_18  and  C_19
REMARK                            x       y       z     vdW  Elec       q    Type
REMARK                         _______ _______ _______ _____ _____    ______ ____
ROOT
ATOM      1  N   UNL     1       1.333   8.918  19.874  0.00  0.00    +0.000 N 
ATOM      2  C   UNL     1       1.746   7.616  19.975  0.00  0.00    +0.000 C 
ATOM      3  N   UNL     1       1.514   6.773  20.926  0.00  0.00    +0.000 NA
ATOM      4  H   UNL     1       1.710   9.417  19.083  0.00  0.00    +0.000 HD
ENDROOT
BRANCH   1   8
ATOM      5  C   UNL     1      -1.143  11.275  22.378  0.00  0.00    +0.000 A 
ATOM      6  C   UNL     1      -0.409  10.219  22.922  0.00  0.00    +0.000 A 
ATOM      7  C   UNL     1       0.415   9.442  22.105  0.00  0.00    +0.000 A 
ATOM      8  C   UNL     1       0.550   9.700  20.742  0.00  0.00    +0.000 A 
ATOM      9  C   UNL     1      -0.182  10.768  20.206  0.00  0.00    +0.000 A 
ATOM     10  C   UNL     1      -1.023  11.550  21.010  0.00  0.00    +0.000 A 
BRANCH   5  12
ATOM     11  C   UNL     1      -1.661  13.531  23.519  0.00  0.00    +0.000 C 
ATOM     12  C   UNL     1      -2.060  12.111  23.208  0.00  0.00    +0.000 C 
ATOM     13  O   UNL     1      -3.123  11.644  23.611  0.00  0.00    +0.000 OA
ENDBRANCH   5  12
ENDBRANCH   1   8
BRANCH   2  14
ATOM     14  S   UNL     1       2.689   7.209  18.528  0.00  0.00    +0.000 S 
ATOM     15  H   UNL     1       3.191   6.067  19.013  0.00  0.00    +0.000 HD
ENDBRANCH   2  14
BRANCH   3  16
ATOM     16  C   UNL     1       2.055   5.416  20.800  0.00  0.00    +0.000 C 
BRANCH  16  17
ATOM     17  C   UNL     1       1.060   4.433  20.167  0.00  0.00    +0.000 C 
BRANCH  17  18
ATOM     18  C   UNL     1       1.729   3.041  19.973  0.00  0.00    +0.000 C 
ATOM     19  C   UNL     1       3.244   3.029  20.227  0.00  0.00    +0.000 C 
ATOM     20  C   UNL     1       4.025   3.747  19.128  0.00  0.00    +0.000 C 
ATOM     21  N   UNL     1       3.729   3.247  17.783  0.00  0.00    +0.000 NA
ATOM     22  C   UNL     1       2.301   3.117  17.485  0.00  0.00    +0.000 C 
ATOM     23  C   UNL     1       1.492   2.431  18.589  0.00  0.00    +0.000 C 
BRANCH  21  24
ATOM     24  C   UNL     1       4.453   4.002  16.735  0.00  0.00    +0.000 C 
BRANCH  24  25
ATOM     25  C   UNL     1       5.544   4.945  17.217  0.00  0.00    +0.000 A 
ATOM     26  C   UNL     1       5.516   6.307  16.874  0.00  0.00    +0.000 A 
ATOM     27  C   UNL     1       6.553   7.162  17.254  0.00  0.00    +0.000 A 
ATOM     28  C   UNL     1       7.622   6.672  17.999  0.00  0.00    +0.000 A 
ATOM     29  C   UNL     1       7.655   5.328  18.365  0.00  0.00    +0.000 A 
ATOM     30  C   UNL     1       6.622   4.471  17.981  0.00  0.00    +0.000 A 
ENDBRANCH  24  25
ENDBRANCH  21  24
ENDBRANCH  17  18
ENDBRANCH  16  17
ENDBRANCH   3  16
TORSDOF 8
ENDMDL
MODEL 2
REMARK VINA RESULT:      -7.9      0.677      1.165
REMARK  Name = 
REMARK  9 active torsions:
REMARK  status: ('A' for Active; 'I' for Inactive)
REMARK    1  A    between atoms: C_1  and  C_2
REMARK    2  A    between atoms: C_2  and  C_4
REMARK    3  A    between atoms: C_7  and  N_8
REMARK    4  A    between atoms: C_9  and  S_10
REMARK    5  A    between atoms: N_11  and  C_12
REMARK    6  A    between atoms: C_12  and  C_13
REMARK    7  A    between atoms: C_13  and  C_14
REMARK    8  A    between atoms: N_17  and  C_18
REMARK    9  A    between atoms: C_18  and  C_19
REMARK                            x       y       z     vdW  Elec       q    Type
REMARK                         _______ _______ _______ _____ _____    ______ ____
ROOT
ATOM      1  N   UNL     1       1.375   8.952  19.564  0.00  0.00    +0.000 N 
ATOM      2  C   UNL     1       1.771   7.654  19.744  0.00  0.00    +0.000 C 
ATOM      3  N   UNL     1       1.550   6.882  20.756  0.00  0.00    +0.000 NA
ATOM      4  H   UNL     1       1.740   9.390  18.731  0.00  0.00    +0.000 HD
ENDROOT
BRANCH   1   8
ATOM      5  C   UNL     1      -0.771  11.517  22.167  0.00  0.00    +0.000 A 
ATOM      6  C   UNL     1      -0.745  11.782  20.795  0.00  0.00    +0.000 A 
ATOM      7  C   UNL     1      -0.046  10.937  19.930  0.00  0.00    +0.000 A 
ATOM      8  C   UNL     1       0.623   9.805  20.392  0.00  0.00    +0.000 A 
ATOM      9  C   UNL     1       0.583   9.540  21.768  0.00  0.00    +0.000 A 
ATOM     10  C   UNL     1      -0.104  10.385  22.651  0.00  0.00    +0.000 A 
BRANCH   5  12
ATOM     11  C   UNL     1      -2.925  12.130  23.449  0.00  0.00    +0.000 C 
ATOM     12  C   UNL     1      -1.478  12.410  23.132  0.00  0.00    +0.000 C 
ATOM     13  O   UNL     1      -0.877  13.344  23.660  0.00  0.00    +0.000 OA
ENDBRANCH   5  12
ENDBRANCH   1   8
BRANCH   2  14
ATOM     14  S   UNL     1       2.675   7.135  18.308  0.00  0.00    +0.000 S 
ATOM     15  H   UNL     1       1.905   6.072  18.043  0.00  0.00    +0.000 HD
ENDBRANCH   2  14
BRANCH   3  16
ATOM     16  C   UNL     1       2.068   5.511  20.712  0.00  0.00    +0.000 C 
BRANCH  16  17
ATOM     17  C   UNL     1       1.153   4.552  19.938  0.00  0.00    +0.000 C 
BRANCH  17  18
ATOM     18  C   UNL     1       1.858   3.178  19.742  0.00  0.00    +0.000 C 
ATOM     19  C   UNL     1       3.357   3.185  20.076  0.00  0.00    +0.000 C 
ATOM     20  C   UNL     1       4.181   3.946  19.040  0.00  0.00    +0.000 C 
ATOM     21  N   UNL     1       3.966   3.480  17.668  0.00  0.00    +0.000 NA
ATOM     22  C   UNL     1       2.558   3.333  17.291  0.00  0.00    +0.000 C 
ATOM     23  C   UNL     1       1.705   2.603  18.331  0.00  0.00    +0.000 C 
BRANCH  21  24
ATOM     24  C   UNL     1       4.730   4.277  16.681  0.00  0.00    +0.000 C 
BRANCH  24  25
ATOM     25  C   UNL     1       5.792   5.208  17.245  0.00  0.00    +0.000 A 
ATOM     26  C   UNL     1       5.865   6.547  16.825  0.00  0.00    +0.000 A 
ATOM     27  C   UNL     1       6.882   7.385  17.285  0.00  0.00    +0.000 A 
ATOM     28  C   UNL     1       7.828   6.904  18.186  0.00  0.00    +0.000 A 
ATOM     29  C   UNL     1       7.758   5.585  18.628  0.00  0.00    +0.000 A 
ATOM     30  C   UNL     1       6.745   4.743  18.164  0.00  0.00    +0.000 A 
ENDBRANCH  24  25
ENDBRANCH  21  24
ENDBRANCH  17  18
ENDBRANCH  16  17
ENDBRANCH   3  16
TORSDOF 8
ENDMDL
MODEL 3
REMARK VINA RESULT:      -7.8      4.361      9.803
REMARK  Name = 
REMARK  9 active torsions:
REMARK  status: ('A' for Active; 'I' for Inactive)
REMARK    1  A    between atoms: C_1  and  C_2
REMARK    2  A    between atoms: C_2  and  C_4
REMARK    3  A    between atoms: C_7  and  N_8
REMARK    4  A    between atoms: C_9  and  S_10
REMARK    5  A    between atoms: N_11  and  C_12
REMARK    6  A    between atoms: C_12  and  C_13
REMARK    7  A    between atoms: C_13  and  C_14
REMARK    8  A    between atoms: N_17  and  C_18
REMARK    9  A    between atoms: C_18  and  C_19
REMARK                            x       y       z     vdW  Elec       q    Type
REMARK                         _______ _______ _______ _____ _____    ______ ____
ROOT
ATOM      1  N   UNL     1       7.225   5.893  15.763  0.00  0.00    +0.000 N 
ATOM      2  C   UNL     1       6.764   5.955  17.050  0.00  0.00    +0.000 C 
ATOM      3  N   UNL     1       5.838   5.244  17.605  0.00  0.00    +0.000 NA
ATOM      4  H   UNL     1       7.894   6.610  15.523  0.00  0.00    +0.000 HD
ENDROOT
BRANCH   1   8
ATOM      5  C   UNL     1       5.945   3.421  12.568  0.00  0.00    +0.000 A 
ATOM      6  C   UNL     1       7.077   4.225  12.415  0.00  0.00    +0.000 A 
ATOM      7  C   UNL     1       7.509   5.037  13.465  0.00  0.00    +0.000 A 
ATOM      8  C   UNL     1       6.851   5.059  14.694  0.00  0.00    +0.000 A 
ATOM      9  C   UNL     1       5.722   4.241  14.843  0.00  0.00    +0.000 A 
ATOM     10  C   UNL     1       5.269   3.430  13.794  0.00  0.00    +0.000 A 
BRANCH   5  12
ATOM     11  C   UNL     1       6.255   1.382  11.017  0.00  0.00    +0.000 C 
ATOM     12  C   UNL     1       5.429   2.562  11.462  0.00  0.00    +0.000 C 
ATOM     13  O   UNL     1       4.345   2.815  10.941  0.00  0.00    +0.000 OA
ENDBRANCH   5  12
ENDBRANCH   1   8
BRANCH   2  14
ATOM     14  S   UNL     1       7.671   7.209  17.917  0.00  0.00    +0.000 S 
ATOM     15  H   UNL     1       8.873   6.643  17.751  0.00  0.00    +0.000 HD
ENDBRANCH   2  14
BRANCH   3  16
ATOM     16  C   UNL     1       5.527   5.486  19.017  0.00  0.00    +0.000 C 
BRANCH  16  17
ATOM     17  C   UNL     1       4.315   4.681  19.508  0.00  0.00    +0.000 C 
BRANCH  17  18
ATOM     18  C   UNL     1       3.041   5.092  18.714  0.00  0.00    +0.000 C 
ATOM     19  C   UNL     1       2.970   6.585  18.362  0.00  0.00    +0.000 C 
ATOM     20  C   UNL     1       2.698   7.459  19.584  0.00  0.00    +0.000 C 
ATOM     21  N   UNL     1       1.506   7.056  20.335  0.00  0.00    +0.000 NA
ATOM     22  C   UNL     1       1.427   5.621  20.622  0.00  0.00    +0.000 C 
ATOM     23  C   UNL     1       1.731   4.725  19.419  0.00  0.00    +0.000 C 
BRANCH  21  24
ATOM     24  C   UNL     1       1.303   7.881  21.546  0.00  0.00    +0.000 C 
BRANCH  24  25
ATOM     25  C   UNL     1       0.489   9.154  21.366  0.00  0.00    +0.000 A 
ATOM     26  C   UNL     1      -0.048   9.823  22.478  0.00  0.00    +0.000 A 
ATOM     27  C   UNL     1      -0.855  10.951  22.313  0.00  0.00    +0.000 A 
ATOM     28  C   UNL     1      -1.120  11.436  21.035  0.00  0.00    +0.000 A 
ATOM     29  C   UNL     1      -0.578  10.797  19.922  0.00  0.00    +0.000 A 
ATOM     30  C   UNL     1       0.224   9.666  20.086  0.00  0.00    +0.000 A 
ENDBRANCH  24  25
ENDBRANCH  21  24
ENDBRANCH  17  18
ENDBRANCH  16  17
ENDBRANCH   3  16
TORSDOF 8
ENDMDL
MODEL 4
REMARK VINA RESULT:      -7.8      3.885      9.708
REMARK  Name = 
REMARK  9 active torsions:
REMARK  status: ('A' for Active; 'I' for Inactive)
REMARK    1  A    between atoms: C_1  and  C_2
REMARK    2  A    between atoms: C_2  and  C_4
REMARK    3  A    between atoms: C_7  and  N_8
REMARK    4  A    between atoms: C_9  and  S_10
REMARK    5  A    between atoms: N_11  and  C_12
REMARK    6  A    between atoms: C_12  and  C_13
REMARK    7  A    between atoms: C_13  and  C_14
REMARK    8  A    between atoms: N_17  and  C_18
REMARK    9  A    between atoms: C_18  and  C_19
REMARK                            x       y       z     vdW  Elec       q    Type
REMARK                         _______ _______ _______ _____ _____    ______ ____
ROOT
ATOM      1  N   UNL     1       3.693   3.984  19.441  0.00  0.00    +0.000 N 
ATOM      2  C   UNL     1       2.833   4.811  20.112  0.00  0.00    +0.000 C 
ATOM      3  N   UNL     1       2.473   6.013  19.805  0.00  0.00    +0.000 NA
ATOM      4  H   UNL     1       3.897   3.117  19.916  0.00  0.00    +0.000 HD
ENDROOT
BRANCH   1   8
ATOM      5  C   UNL     1       5.992   4.527  15.924  0.00  0.00    +0.000 A 
ATOM      6  C   UNL     1       4.710   3.980  15.839  0.00  0.00    +0.000 A 
ATOM      7  C   UNL     1       3.943   3.805  16.992  0.00  0.00    +0.000 A 
ATOM      8  C   UNL     1       4.413   4.182  18.250  0.00  0.00    +0.000 A 
ATOM      9  C   UNL     1       5.697   4.739  18.325  0.00  0.00    +0.000 A 
ATOM     10  C   UNL     1       6.484   4.910  17.177  0.00  0.00    +0.000 A 
BRANCH   5  12
ATOM     11  C   UNL     1       6.489   3.978  13.451  0.00  0.00    +0.000 C 
ATOM     12  C   UNL     1       6.859   4.702  14.721  0.00  0.00    +0.000 C 
ATOM     13  O   UNL     1       7.845   5.435  14.774  0.00  0.00    +0.000 OA
ENDBRANCH   5  12
ENDBRANCH   1   8
BRANCH   2  14
ATOM     14  S   UNL     1       2.227   3.955  21.544  0.00  0.00    +0.000 S 
ATOM     15  H   UNL     1       1.075   3.563  20.987  0.00  0.00    +0.000 HD
ENDBRANCH   2  14
BRANCH   3  16
ATOM     16  C   UNL     1       1.518   6.699  20.680  0.00  0.00    +0.000 C 
BRANCH  16  17
ATOM     17  C   UNL     1       1.912   8.154  20.970  0.00  0.00    +0.000 C 
BRANCH  17  18
ATOM     18  C   UNL     1       0.800   8.856  21.802  0.00  0.00    +0.000 C 
ATOM     19  C   UNL     1      -0.621   8.656  21.254  0.00  0.00    +0.000 C 
ATOM     20  C   UNL     1      -0.861   9.432  19.961  0.00  0.00    +0.000 C 
ATOM     21  N   UNL     1      -0.555  10.861  20.074  0.00  0.00    +0.000 NA
ATOM     22  C   UNL     1       0.739  11.156  20.693  0.00  0.00    +0.000 C 
ATOM     23  C   UNL     1       1.017  10.363  21.972  0.00  0.00    +0.000 C 
BRANCH  21  24
ATOM     24  C   UNL     1      -0.738  11.574  18.790  0.00  0.00    +0.000 C 
BRANCH  24  25
ATOM     25  C   UNL     1      -2.138  11.542  18.195  0.00  0.00    +0.000 A 
ATOM     26  C   UNL     1      -3.251  11.921  18.963  0.00  0.00    +0.000 A 
ATOM     27  C   UNL     1      -4.544  11.825  18.445  0.00  0.00    +0.000 A 
ATOM     28  C   UNL     1      -4.741  11.367  17.144  0.00  0.00    +0.000 A 
ATOM     29  C   UNL     1      -3.646  11.007  16.362  0.00  0.00    +0.000 A 
ATOM     30  C   UNL     1      -2.353  11.097  16.882  0.00  0.00    +0.000 A 
ENDBRANCH  24  25
ENDBRANCH  21  24
ENDBRANCH  17  18
ENDBRANCH  16  17
ENDBRANCH   3  16
TORSDOF 8
ENDMDL
MODEL 5
REMARK VINA RESULT:      -7.8      4.342      9.582
REMARK  Name = 
REMARK  9 active torsions:
REMARK  status: ('A' for Active; 'I' for Inactive)
REMARK    1  A    between atoms: C_1  and  C_2
REMARK    2  A    between atoms: C_2  and  C_4
REMARK    3  A    between atoms: C_7  and  N_8
REMARK    4  A    between atoms: C_9  and  S_10
REMARK    5  A    between atoms: N_11  and  C_12
REMARK    6  A    between atoms: C_12  and  C_13
REMARK    7  A    between atoms: C_13  and  C_14
REMARK    8  A    between atoms: N_17  and  C_18
REMARK    9  A    between atoms: C_18  and  C_19
REMARK                            x       y       z     vdW  Elec       q    Type
REMARK                         _______ _______ _______ _____ _____    ______ ____
ROOT
ATOM      1  N   UNL     1       3.230   5.438  18.771  0.00  0.00    +0.000 N 
ATOM      2  C   UNL     1       2.538   6.536  19.206  0.00  0.00    +0.000 C 
ATOM      3  N   UNL     1       2.476   7.709  18.669  0.00  0.00    +0.000 NA
ATOM      4  H   UNL     1       3.205   4.650  19.401  0.00  0.00    +0.000 HD
ENDROOT
BRANCH   1   8
ATOM      5  C   UNL     1       5.804   4.980  15.436  0.00  0.00    +0.000 A 
ATOM      6  C   UNL     1       5.051   3.893  15.888  0.00  0.00    +0.000 A 
ATOM      7  C   UNL     1       4.195   4.038  16.981  0.00  0.00    +0.000 A 
ATOM      8  C   UNL     1       4.046   5.258  17.640  0.00  0.00    +0.000 A 
ATOM      9  C   UNL     1       4.797   6.346  17.173  0.00  0.00    +0.000 A 
ATOM     10  C   UNL     1       5.669   6.214  16.084  0.00  0.00    +0.000 A 
BRANCH   5  12
ATOM     11  C   UNL     1       6.454   3.866  13.201  0.00  0.00    +0.000 C 
ATOM     12  C   UNL     1       6.755   4.863  14.291  0.00  0.00    +0.000 C 
ATOM     13  O   UNL     1       7.753   5.578  14.244  0.00  0.00    +0.000 OA
ENDBRANCH   5  12
ENDBRANCH   1   8
BRANCH   2  14
ATOM     14  S   UNL     1       1.671   6.104  20.693  0.00  0.00    +0.000 S 
ATOM     15  H   UNL     1       0.545   6.761  20.386  0.00  0.00    +0.000 HD
ENDBRANCH   2  14
BRANCH   3  16
ATOM     16  C   UNL     1       1.647   8.730  19.319  0.00  0.00    +0.000 C 
BRANCH  16  17
ATOM     17  C   UNL     1       1.042   9.730  18.324  0.00  0.00    +0.000 C 
BRANCH  17  18
ATOM     18  C   UNL     1      -0.378  10.162  18.792  0.00  0.00    +0.000 C 
ATOM     19  C   UNL     1      -0.909  11.430  18.108  0.00  0.00    +0.000 C 
ATOM     20  C   UNL     1      -0.185  12.691  18.575  0.00  0.00    +0.000 C 
ATOM     21  N   UNL     1      -0.187  12.859  20.031  0.00  0.00    +0.000 NA
ATOM     22  C   UNL     1       0.200  11.660  20.779  0.00  0.00    +0.000 C 
ATOM     23  C   UNL     1      -0.487  10.378  20.305  0.00  0.00    +0.000 C 
BRANCH  21  24
ATOM     24  C   UNL     1       0.574  14.055  20.456  0.00  0.00    +0.000 C 
BRANCH  24  25
ATOM     25  C   UNL     1       1.653  14.541  19.501  0.00  0.00    +0.000 A 
ATOM     26  C   UNL     1       1.521  15.774  18.841  0.00  0.00    +0.000 A 
ATOM     27  C   UNL     1       2.474  16.192  17.910  0.00  0.00    +0.000 A 
ATOM     28  C   UNL     1       3.582  15.392  17.640  0.00  0.00    +0.000 A 
ATOM     29  C   UNL     1       3.738  14.176  18.301  0.00  0.00    +0.000 A 
ATOM     30  C   UNL     1       2.783  13.755  19.228  0.00  0.00    +0.000 A 
ENDBRANCH  24  25
ENDBRANCH  21  24
ENDBRANCH  17  18
ENDBRANCH  16  17
ENDBRANCH   3  16
TORSDOF 8
ENDMDL
MODEL 6
REMARK VINA RESULT:      -7.7      1.091      1.360
REMARK  Name = 
REMARK  9 active torsions:
REMARK  status: ('A' for Active; 'I' for Inactive)
REMARK    1  A    between atoms: C_1  and  C_2
REMARK    2  A    between atoms: C_2  and  C_4
REMARK    3  A    between atoms: C_7  and  N_8
REMARK    4  A    between atoms: C_9  and  S_10
REMARK    5  A    between atoms: N_11  and  C_12
REMARK    6  A    between atoms: C_12  and  C_13
REMARK    7  A    between atoms: C_13  and  C_14
REMARK    8  A    between atoms: N_17  and  C_18
REMARK    9  A    between atoms: C_18  and  C_19
REMARK                            x       y       z     vdW  Elec       q    Type
REMARK                         _______ _______ _______ _____ _____    ______ ____
ROOT
ATOM      1  N   UNL     1       1.303   9.613  19.132  0.00  0.00    +0.000 N 
ATOM      2  C   UNL     1       1.786   8.334  19.200  0.00  0.00    +0.000 C 
ATOM      3  N   UNL     1       1.595   7.454  20.126  0.00  0.00    +0.000 NA
ATOM      4  H   UNL     1       1.657  10.155  18.358  0.00  0.00    +0.000 HD
ENDROOT
BRANCH   1   8
ATOM      5  C   UNL     1      -1.328  11.705  21.713  0.00  0.00    +0.000 A 
ATOM      6  C   UNL     1      -0.208  11.056  22.239  0.00  0.00    +0.000 A 
ATOM      7  C   UNL     1       0.667  10.371  21.394  0.00  0.00    +0.000 A 
ATOM      8  C   UNL     1       0.472  10.327  20.014  0.00  0.00    +0.000 A 
ATOM      9  C   UNL     1      -0.648  10.990  19.494  0.00  0.00    +0.000 A 
ATOM     10  C   UNL     1      -1.544  11.671  20.330  0.00  0.00    +0.000 A 
BRANCH   5  12
ATOM     11  C   UNL     1      -1.802  13.504  23.501  0.00  0.00    +0.000 C 
ATOM     12  C   UNL     1      -2.308  12.421  22.582  0.00  0.00    +0.000 C 
ATOM     13  O   UNL     1      -3.502  12.134  22.530  0.00  0.00    +0.000 OA
ENDBRANCH   5  12
ENDBRANCH   1   8
BRANCH   2  14
ATOM     14  S   UNL     1       2.761   8.021  17.751  0.00  0.00    +0.000 S 
ATOM     15  H   UNL     1       3.901   7.774  18.407  0.00  0.00    +0.000 HD
ENDBRANCH   2  14
BRANCH   3  16
ATOM     16  C   UNL     1       2.211   6.132  19.967  0.00  0.00    +0.000 C 
BRANCH  16  17
ATOM     17  C   UNL     1       2.102   5.267  21.231  0.00  0.00    +0.000 C 
BRANCH  17  18
ATOM     18  C   UNL     1       1.454   3.895  20.888  0.00  0.00    +0.000 C 
ATOM     19  C   UNL     1       2.369   2.686  21.131  0.00  0.00    +0.000 C 
ATOM     20  C   UNL     1       3.502   2.598  20.111  0.00  0.00    +0.000 C 
ATOM     21  N   UNL     1       3.037   2.613  18.722  0.00  0.00    +0.000 NA
ATOM     22  C   UNL     1       2.068   3.669  18.418  0.00  0.00    +0.000 C 
ATOM     23  C   UNL     1       0.942   3.799  19.447  0.00  0.00    +0.000 C 
BRANCH  21  24
ATOM     24  C   UNL     1       4.159   2.589  17.757  0.00  0.00    +0.000 C 
BRANCH  24  25
ATOM     25  C   UNL     1       4.796   3.932  17.431  0.00  0.00    +0.000 A 
ATOM     26  C   UNL     1       4.764   4.439  16.121  0.00  0.00    +0.000 A 
ATOM     27  C   UNL     1       5.408   5.636  15.802  0.00  0.00    +0.000 A 
ATOM     28  C   UNL     1       6.077   6.352  16.792  0.00  0.00    +0.000 A 
ATOM     29  C   UNL     1       6.101   5.873  18.100  0.00  0.00    +0.000 A 
ATOM     30  C   UNL     1       5.462   4.673  18.418  0.00  0.00    +0.000 A 
ENDBRANCH  24  25
ENDBRANCH  21  24
ENDBRANCH  17  18
ENDBRANCH  16  17
ENDBRANCH   3  16
TORSDOF 8
ENDMDL
MODEL 7
REMARK VINA RESULT:      -7.7      4.253      9.525
REMARK  Name = 
REMARK  9 active torsions:
REMARK  status: ('A' for Active; 'I' for Inactive)
REMARK    1  A    between atoms: C_1  and  C_2
REMARK    2  A    between atoms: C_2  and  C_4
REMARK    3  A    between atoms: C_7  and  N_8
REMARK    4  A    between atoms: C_9  and  S_10
REMARK    5  A    between atoms: N_11  and  C_12
REMARK    6  A    between atoms: C_12  and  C_13
REMARK    7  A    between atoms: C_13  and  C_14
REMARK    8  A    between atoms: N_17  and  C_18
REMARK    9  A    between atoms: C_18  and  C_19
REMARK                            x       y       z     vdW  Elec       q    Type
REMARK                         _______ _______ _______ _____ _____    ______ ____
ROOT
ATOM      1  N   UNL     1       3.082   6.059  18.814  0.00  0.00    +0.000 N 
ATOM      2  C   UNL     1       2.421   7.226  19.086  0.00  0.00    +0.000 C 
ATOM      3  N   UNL     1       2.371   8.304  18.375  0.00  0.00    +0.000 NA
ATOM      4  H   UNL     1       3.055   5.378  19.559  0.00  0.00    +0.000 HD
ENDROOT
BRANCH   1   8
ATOM      5  C   UNL     1       5.573   5.050  15.537  0.00  0.00    +0.000 A 
ATOM      6  C   UNL     1       4.926   4.042  16.255  0.00  0.00    +0.000 A 
ATOM      7  C   UNL     1       4.098   4.367  17.331  0.00  0.00    +0.000 A 
ATOM      8  C   UNL     1       3.872   5.689  17.711  0.00  0.00    +0.000 A 
ATOM      9  C   UNL     1       4.517   6.695  16.978  0.00  0.00    +0.000 A 
ATOM     10  C   UNL     1       5.361   6.385  15.903  0.00  0.00    +0.000 A 
BRANCH   5  12
ATOM     11  C   UNL     1       6.054   3.743  13.365  0.00  0.00    +0.000 C 
ATOM     12  C   UNL     1       6.492   4.748  14.401  0.00  0.00    +0.000 C 
ATOM     13  O   UNL     1       7.575   5.322  14.314  0.00  0.00    +0.000 OA
ENDBRANCH   5  12
ENDBRANCH   1   8
BRANCH   2  14
ATOM     14  S   UNL     1       1.575   7.048  20.636  0.00  0.00    +0.000 S 
ATOM     15  H   UNL     1       0.555   7.858  20.325  0.00  0.00    +0.000 HD
ENDBRANCH   2  14
BRANCH   3  16
ATOM     16  C   UNL     1       1.575   9.430  18.874  0.00  0.00    +0.000 C 
BRANCH  16  17
ATOM     17  C   UNL     1       0.339   9.716  18.010  0.00  0.00    +0.000 C 
BRANCH  17  18
ATOM     18  C   UNL     1      -0.876  10.077  18.913  0.00  0.00    +0.000 C 
ATOM     19  C   UNL     1      -1.888  11.030  18.259  0.00  0.00    +0.000 C 
ATOM     20  C   UNL     1      -1.346  12.452  18.125  0.00  0.00    +0.000 C 
ATOM     21  N   UNL     1      -0.862  13.012  19.390  0.00  0.00    +0.000 NA
ATOM     22  C   UNL     1       0.026  12.126  20.145  0.00  0.00    +0.000 C 
ATOM     23  C   UNL     1      -0.480  10.686  20.262  0.00  0.00    +0.000 C 
BRANCH  21  24
ATOM     24  C   UNL     1      -0.288  14.366  19.217  0.00  0.00    +0.000 C 
BRANCH  24  25
ATOM     25  C   UNL     1       1.227  14.470  19.302  0.00  0.00    +0.000 A 
ATOM     26  C   UNL     1       1.839  15.132  20.379  0.00  0.00    +0.000 A 
ATOM     27  C   UNL     1       3.225  15.292  20.425  0.00  0.00    +0.000 A 
ATOM     28  C   UNL     1       4.021  14.778  19.404  0.00  0.00    +0.000 A 
ATOM     29  C   UNL     1       3.431  14.101  18.339  0.00  0.00    +0.000 A 
ATOM     30  C   UNL     1       2.044  13.945  18.289  0.00  0.00    +0.000 A 
ENDBRANCH  24  25
ENDBRANCH  21  24
ENDBRANCH  17  18
ENDBRANCH  16  17
ENDBRANCH   3  16
TORSDOF 8
ENDMDL
MODEL 8
REMARK VINA RESULT:      -7.6      4.171      9.817
REMARK  Name = 
REMARK  9 active torsions:
REMARK  status: ('A' for Active; 'I' for Inactive)
REMARK    1  A    between atoms: C_1  and  C_2
REMARK    2  A    between atoms: C_2  and  C_4
REMARK    3  A    between atoms: C_7  and  N_8
REMARK    4  A    between atoms: C_9  and  S_10
REMARK    5  A    between atoms: N_11  and  C_12
REMARK    6  A    between atoms: C_12  and  C_13
REMARK    7  A    between atoms: C_13  and  C_14
REMARK    8  A    between atoms: N_17  and  C_18
REMARK    9  A    between atoms: C_18  and  C_19
REMARK                            x       y       z     vdW  Elec       q    Type
REMARK                         _______ _______ _______ _____ _____    ______ ____
ROOT
ATOM      1  N   UNL     1       3.815   4.157  19.332  0.00  0.00    +0.000 N 
ATOM      2  C   UNL     1       2.959   5.042  19.930  0.00  0.00    +0.000 C 
ATOM      3  N   UNL     1       2.708   6.265  19.596  0.00  0.00    +0.000 NA
ATOM      4  H   UNL     1       3.920   3.280  19.820  0.00  0.00    +0.000 HD
ENDROOT
BRANCH   1   8
ATOM      5  C   UNL     1       6.187   4.639  15.853  0.00  0.00    +0.000 A 
ATOM      6  C   UNL     1       6.654   5.108  17.084  0.00  0.00    +0.000 A 
ATOM      7  C   UNL     1       5.881   4.946  18.236  0.00  0.00    +0.000 A 
ATOM      8  C   UNL     1       4.645   4.303  18.206  0.00  0.00    +0.000 A 
ATOM      9  C   UNL     1       4.188   3.827  16.969  0.00  0.00    +0.000 A 
ATOM     10  C   UNL     1       4.946   3.992  15.801  0.00  0.00    +0.000 A 
BRANCH   5  12
ATOM     11  C   UNL     1       6.496   4.107  13.347  0.00  0.00    +0.000 C 
ATOM     12  C   UNL     1       6.964   4.819  14.592  0.00  0.00    +0.000 C 
ATOM     13  O   UNL     1       7.955   5.546  14.577  0.00  0.00    +0.000 OA
ENDBRANCH   5  12
ENDBRANCH   1   8
BRANCH   2  14
ATOM     14  S   UNL     1       2.178   4.234  21.303  0.00  0.00    +0.000 S 
ATOM     15  H   UNL     1       3.004   4.726  22.235  0.00  0.00    +0.000 HD
ENDBRANCH   2  14
BRANCH   3  16
ATOM     16  C   UNL     1       1.730   7.017  20.389  0.00  0.00    +0.000 C 
BRANCH  16  17
ATOM     17  C   UNL     1       1.850   8.535  20.200  0.00  0.00    +0.000 C 
BRANCH  17  18
ATOM     18  C   UNL     1       0.483   9.130  19.753  0.00  0.00    +0.000 C 
ATOM     19  C   UNL     1       0.583  10.162  18.620  0.00  0.00    +0.000 C 
ATOM     20  C   UNL     1       1.198  11.480  19.085  0.00  0.00    +0.000 C 
ATOM     21  N   UNL     1       0.518  12.063  20.245  0.00  0.00    +0.000 NA
ATOM     22  C   UNL     1       0.275  11.121  21.340  0.00  0.00    +0.000 C 
ATOM     23  C   UNL     1      -0.309   9.779  20.894  0.00  0.00    +0.000 C 
BRANCH  21  24
ATOM     24  C   UNL     1       1.173  13.306  20.710  0.00  0.00    +0.000 C 
BRANCH  24  25
ATOM     25  C   UNL     1       0.971  14.539  19.843  0.00  0.00    +0.000 A 
ATOM     26  C   UNL     1       2.047  15.102  19.138  0.00  0.00    +0.000 A 
ATOM     27  C   UNL     1       1.881  16.275  18.398  0.00  0.00    +0.000 A 
ATOM     28  C   UNL     1       0.634  16.891  18.338  0.00  0.00    +0.000 A 
ATOM     29  C   UNL     1      -0.449  16.334  19.015  0.00  0.00    +0.000 A 
ATOM     30  C   UNL     1      -0.283  15.164  19.760  0.00  0.00    +0.000 A 
ENDBRANCH  24  25
ENDBRANCH  21  24
ENDBRANCH  17  18
ENDBRANCH  16  17
ENDBRANCH   3  16
TORSDOF 8
ENDMDL
MODEL 9
REMARK VINA RESULT:      -7.6      4.622     10.321
REMARK  Name = 
REMARK  9 active torsions:
REMARK  status: ('A' for Active; 'I' for Inactive)
REMARK    1  A    between atoms: C_1  and  C_2
REMARK    2  A    between atoms: C_2  and  C_4
REMARK    3  A    between atoms: C_7  and  N_8
REMARK    4  A    between atoms: C_9  and  S_10
REMARK    5  A    between atoms: N_11  and  C_12
REMARK    6  A    between atoms: C_12  and  C_13
REMARK    7  A    between atoms: C_13  and  C_14
REMARK    8  A    between atoms: N_17  and  C_18
REMARK    9  A    between atoms: C_18  and  C_19
REMARK                            x       y       z     vdW  Elec       q    Type
REMARK                         _______ _______ _______ _____ _____    ______ ____
ROOT
ATOM      1  N   UNL     1       2.999   6.017  19.043  0.00  0.00    +0.000 N 
ATOM      2  C   UNL     1       2.268   7.127  19.372  0.00  0.00    +0.000 C 
ATOM      3  N   UNL     1       2.226   8.267  18.765  0.00  0.00    +0.000 NA
ATOM      4  H   UNL     1       2.945   5.265  19.714  0.00  0.00    +0.000 HD
ENDROOT
BRANCH   1   8
ATOM      5  C   UNL     1       5.585   5.197  15.787  0.00  0.00    +0.000 A 
ATOM      6  C   UNL     1       5.203   6.513  16.058  0.00  0.00    +0.000 A 
ATOM      7  C   UNL     1       4.358   6.792  17.133  0.00  0.00    +0.000 A 
ATOM      8  C   UNL     1       3.886   5.787  17.976  0.00  0.00    +0.000 A 
ATOM      9  C   UNL     1       4.282   4.470  17.704  0.00  0.00    +0.000 A 
ATOM     10  C   UNL     1       5.121   4.172  16.621  0.00  0.00    +0.000 A 
BRANCH   5  12
ATOM     11  C   UNL     1       5.929   3.908  13.578  0.00  0.00    +0.000 C 
ATOM     12  C   UNL     1       6.461   4.849  14.630  0.00  0.00    +0.000 C 
ATOM     13  O   UNL     1       7.586   5.337  14.540  0.00  0.00    +0.000 OA
ENDBRANCH   5  12
ENDBRANCH   1   8
BRANCH   2  14
ATOM     14  S   UNL     1       1.315   6.766  20.824  0.00  0.00    +0.000 S 
ATOM     15  H   UNL     1       2.098   7.447  21.670  0.00  0.00    +0.000 HD
ENDBRANCH   2  14
BRANCH   3  16
ATOM     16  C   UNL     1       1.346   9.309  19.304  0.00  0.00    +0.000 C 
BRANCH  16  17
ATOM     17  C   UNL     1       0.420   9.917  18.240  0.00  0.00    +0.000 C 
BRANCH  17  18
ATOM     18  C   UNL     1      -0.771  10.651  18.922  0.00  0.00    +0.000 C 
ATOM     19  C   UNL     1      -1.304  11.856  18.133  0.00  0.00    +0.000 C 
ATOM     20  C   UNL     1      -0.339  13.040  18.157  0.00  0.00    +0.000 C 
ATOM     21  N   UNL     1       0.049  13.447  19.510  0.00  0.00    +0.000 NA
ATOM     22  C   UNL     1       0.468  12.344  20.378  0.00  0.00    +0.000 C 
ATOM     23  C   UNL     1      -0.466  11.132  20.344  0.00  0.00    +0.000 C 
BRANCH  21  24
ATOM     24  C   UNL     1       1.031  14.555  19.499  0.00  0.00    +0.000 C 
BRANCH  24  25
ATOM     25  C   UNL     1       0.571  15.857  18.861  0.00  0.00    +0.000 A 
ATOM     26  C   UNL     1       1.467  16.648  18.123  0.00  0.00    +0.000 A 
ATOM     27  C   UNL     1       1.068  17.877  17.596  0.00  0.00    +0.000 A 
ATOM     28  C   UNL     1      -0.237  18.326  17.783  0.00  0.00    +0.000 A 
ATOM     29  C   UNL     1      -1.144  17.544  18.495  0.00  0.00    +0.000 A 
ATOM     30  C   UNL     1      -0.745  16.316  19.027  0.00  0.00    +0.000 A 
ENDBRANCH  24  25
ENDBRANCH  21  24
ENDBRANCH  17  18
ENDBRANCH  16  17
ENDBRANCH   3  16
TORSDOF 8
ENDMDL
