MODEL 1
REMARK VINA RESULT:      -6.0      0.000      0.000
REMARK  Name = 
REMARK  5 active torsions:
REMARK  status: ('A' for Active; 'I' for Inactive)
REMARK    1  A    between atoms: C_1  and  C_2
REMARK    2  A    between atoms: C_2  and  C_3
REMARK    3  A    between atoms: C_2  and  C_4
REMARK    4  A    between atoms: C_2  and  C_5
REMARK    5  A    between atoms: N_7  and  C_8
REMARK                            x       y       z     vdW  Elec       q    Type
REMARK                         _______ _______ _______ _____ _____    ______ ____
ROOT
ATOM      1  C   UNL     1       3.291   3.181  19.677  0.00  0.00    +0.000 C 
ATOM      2  O   UNL     1       3.957   2.179  19.915  0.00  0.00    +0.000 OA
ATOM      3  N   UNL     1       3.704   4.102  18.739  0.00  0.00    +0.000 N 
ATOM      4  H   UNL     1       3.174   4.952  18.579  0.00  0.00    +0.000 HD
ENDROOT
BRANCH   3   5
ATOM      5  C   UNL     1       4.952   3.917  18.008  0.00  0.00    +0.000 C 
ATOM      6  C   UNL     1       4.807   4.285  16.533  0.00  0.00    +0.000 C 
ATOM      7  C   UNL     1       6.198   4.477  15.961  0.00  0.00    +0.000 C 
ATOM      8  S   UNL     1       7.095   5.395  17.240  0.00  0.00    +0.000 S 
ATOM      9  C   UNL     1       6.057   4.818  18.540  0.00  0.00    +0.000 C 
ATOM     10  O   UNL     1       6.227   5.122  19.711  0.00  0.00    +0.000 OA
ENDBRANCH   3   5
BRANCH   1  12
ATOM     11  C   UNL     1       1.860   5.025  20.583  0.00  0.00    +0.000 C 
ATOM     12  C   UNL     1       1.972   3.498  20.406  0.00  0.00    +0.000 C 
ATOM     13  C   UNL     1       1.948   2.840  21.793  0.00  0.00    +0.000 C 
ATOM     14  C   UNL     1       0.782   3.009  19.570  0.00  0.00    +0.000 C 
ENDBRANCH   1  12
TORSDOF 2
ENDMDL
MODEL 2
REMARK VINA RESULT:      -6.0      0.029      1.209
REMARK  Name = 
REMARK  5 active torsions:
REMARK  status: ('A' for Active; 'I' for Inactive)
REMARK    1  A    between atoms: C_1  and  C_2
REMARK    2  A    between atoms: C_2  and  C_3
REMARK    3  A    between atoms: C_2  and  C_4
REMARK    4  A    between atoms: C_2  and  C_5
REMARK    5  A    between atoms: N_7  and  C_8
REMARK                            x       y       z     vdW  Elec       q    Type
REMARK                         _______ _______ _______ _____ _____    ______ ____
ROOT
ATOM      1  C   UNL     1       3.284   3.201  19.670  0.00  0.00    +0.000 C 
ATOM      2  O   UNL     1       3.937   2.190  19.908  0.00  0.00    +0.000 OA
ATOM      3  N   UNL     1       3.712   4.118  18.735  0.00  0.00    +0.000 N 
ATOM      4  H   UNL     1       3.193   4.976  18.575  0.00  0.00    +0.000 HD
ENDROOT
BRANCH   3   5
ATOM      5  C   UNL     1       4.959   3.918  18.007  0.00  0.00    +0.000 C 
ATOM      6  C   UNL     1       4.823   4.290  16.532  0.00  0.00    +0.000 C 
ATOM      7  C   UNL     1       6.217   4.465  15.964  0.00  0.00    +0.000 C 
ATOM      8  S   UNL     1       7.121   5.371  17.246  0.00  0.00    +0.000 S 
ATOM      9  C   UNL     1       6.073   4.805  18.543  0.00  0.00    +0.000 C 
ATOM     10  O   UNL     1       6.244   5.107  19.715  0.00  0.00    +0.000 OA
ENDBRANCH   3   5
BRANCH   1  12
ATOM     11  C   UNL     1       1.966   2.827  21.766  0.00  0.00    +0.000 C 
ATOM     12  C   UNL     1       1.967   3.534  20.397  0.00  0.00    +0.000 C 
ATOM     13  C   UNL     1       0.761   3.038  19.586  0.00  0.00    +0.000 C 
ATOM     14  C   UNL     1       1.864   5.048  20.622  0.00  0.00    +0.000 C 
ENDBRANCH   1  12
TORSDOF 2
ENDMDL
MODEL 3
REMARK VINA RESULT:      -6.0      0.163      1.210
REMARK  Name = 
REMARK  5 active torsions:
REMARK  status: ('A' for Active; 'I' for Inactive)
REMARK    1  A    between atoms: C_1  and  C_2
REMARK    2  A    between atoms: C_2  and  C_3
REMARK    3  A    between atoms: C_2  and  C_4
REMARK    4  A    between atoms: C_2  and  C_5
REMARK    5  A    between atoms: N_7  and  C_8
REMARK                            x       y       z     vdW  Elec       q    Type
REMARK                         _______ _______ _______ _____ _____    ______ ____
ROOT
ATOM      1  C   UNL     1       3.296   3.211  19.609  0.00  0.00    +0.000 C 
ATOM      2  O   UNL     1       3.851   2.117  19.647  0.00  0.00    +0.000 OA
ATOM      3  N   UNL     1       3.805   4.240  18.847  0.00  0.00    +0.000 N 
ATOM      4  H   UNL     1       3.369   5.156  18.855  0.00  0.00    +0.000 HD
ENDROOT
BRANCH   3   5
ATOM      5  C   UNL     1       5.027   4.062  18.071  0.00  0.00    +0.000 C 
ATOM      6  C   UNL     1       4.837   4.471  16.611  0.00  0.00    +0.000 C 
ATOM      7  C   UNL     1       6.210   4.664  15.999  0.00  0.00    +0.000 C 
ATOM      8  S   UNL     1       7.158   5.539  17.271  0.00  0.00    +0.000 S 
ATOM      9  C   UNL     1       6.158   4.938  18.590  0.00  0.00    +0.000 C 
ATOM     10  O   UNL     1       6.369   5.209  19.762  0.00  0.00    +0.000 OA
ENDBRANCH   3   5
BRANCH   1  12
ATOM     11  C   UNL     1       0.799   3.026  19.611  0.00  0.00    +0.000 C 
ATOM     12  C   UNL     1       2.018   3.526  20.409  0.00  0.00    +0.000 C 
ATOM     13  C   UNL     1       1.876   5.039  20.630  0.00  0.00    +0.000 C 
ATOM     14  C   UNL     1       2.056   2.798  21.760  0.00  0.00    +0.000 C 
ENDBRANCH   1  12
TORSDOF 2
ENDMDL
MODEL 4
REMARK VINA RESULT:      -5.7      2.279      5.201
REMARK  Name = 
REMARK  5 active torsions:
REMARK  status: ('A' for Active; 'I' for Inactive)
REMARK    1  A    between atoms: C_1  and  C_2
REMARK    2  A    between atoms: C_2  and  C_3
REMARK    3  A    between atoms: C_2  and  C_4
REMARK    4  A    between atoms: C_2  and  C_5
REMARK    5  A    between atoms: N_7  and  C_8
REMARK                            x       y       z     vdW  Elec       q    Type
REMARK                         _______ _______ _______ _____ _____    ______ ____
ROOT
ATOM      1  C   UNL     1       5.861   5.351  18.760  0.00  0.00    +0.000 C 
ATOM      2  O   UNL     1       6.438   5.209  19.834  0.00  0.00    +0.000 OA
ATOM      3  N   UNL     1       4.510   5.105  18.643  0.00  0.00    +0.000 N 
ATOM      4  H   UNL     1       4.046   5.178  17.743  0.00  0.00    +0.000 HD
ENDROOT
BRANCH   3   5
ATOM      5  C   UNL     1       3.728   4.661  19.791  0.00  0.00    +0.000 C 
ATOM      6  C   UNL     1       2.364   5.346  19.849  0.00  0.00    +0.000 C 
ATOM      7  C   UNL     1       1.477   4.542  20.779  0.00  0.00    +0.000 C 
ATOM      8  S   UNL     1       1.821   2.814  20.357  0.00  0.00    +0.000 S 
ATOM      9  C   UNL     1       3.426   3.171  19.725  0.00  0.00    +0.000 C 
ATOM     10  O   UNL     1       4.177   2.309  19.293  0.00  0.00    +0.000 OA
ENDBRANCH   3   5
BRANCH   1  12
ATOM     11  C   UNL     1       7.574   6.917  17.822  0.00  0.00    +0.000 C 
ATOM     12  C   UNL     1       6.587   5.786  17.474  0.00  0.00    +0.000 C 
ATOM     13  C   UNL     1       5.584   6.310  16.436  0.00  0.00    +0.000 C 
ATOM     14  C   UNL     1       7.375   4.604  16.894  0.00  0.00    +0.000 C 
ENDBRANCH   1  12
TORSDOF 2
ENDMDL
MODEL 5
REMARK VINA RESULT:      -5.7      2.278      5.244
REMARK  Name = 
REMARK  5 active torsions:
REMARK  status: ('A' for Active; 'I' for Inactive)
REMARK    1  A    between atoms: C_1  and  C_2
REMARK    2  A    between atoms: C_2  and  C_3
REMARK    3  A    between atoms: C_2  and  C_4
REMARK    4  A    between atoms: C_2  and  C_5
REMARK    5  A    between atoms: N_7  and  C_8
REMARK                            x       y       z     vdW  Elec       q    Type
REMARK                         _______ _______ _______ _____ _____    ______ ____
ROOT
ATOM      1  C   UNL     1       5.818   5.227  18.643  0.00  0.00    +0.000 C 
ATOM      2  O   UNL     1       6.387   5.168  19.728  0.00  0.00    +0.000 OA
ATOM      3  N   UNL     1       4.524   4.778  18.496  0.00  0.00    +0.000 N 
ATOM      4  H   UNL     1       4.073   4.786  17.587  0.00  0.00    +0.000 HD
ENDROOT
BRANCH   3   5
ATOM      5  C   UNL     1       3.795   4.211  19.625  0.00  0.00    +0.000 C 
ATOM      6  C   UNL     1       2.623   5.095  20.047  0.00  0.00    +0.000 C 
ATOM      7  C   UNL     1       1.692   4.258  20.902  0.00  0.00    +0.000 C 
ATOM      8  S   UNL     1       1.613   2.657  20.059  0.00  0.00    +0.000 S 
ATOM      9  C   UNL     1       3.178   2.864  19.278  0.00  0.00    +0.000 C 
ATOM     10  O   UNL     1       3.677   2.016  18.554  0.00  0.00    +0.000 OA
ENDBRANCH   3   5
BRANCH   1  12
ATOM     11  C   UNL     1       5.412   6.369  16.452  0.00  0.00    +0.000 C 
ATOM     12  C   UNL     1       6.495   5.778  17.375  0.00  0.00    +0.000 C 
ATOM     13  C   UNL     1       7.226   4.657  16.620  0.00  0.00    +0.000 C 
ATOM     14  C   UNL     1       7.483   6.890  17.751  0.00  0.00    +0.000 C 
ENDBRANCH   1  12
TORSDOF 2
ENDMDL
MODEL 6
REMARK VINA RESULT:      -5.7      2.366      5.176
REMARK  Name = 
REMARK  5 active torsions:
REMARK  status: ('A' for Active; 'I' for Inactive)
REMARK    1  A    between atoms: C_1  and  C_2
REMARK    2  A    between atoms: C_2  and  C_3
REMARK    3  A    between atoms: C_2  and  C_4
REMARK    4  A    between atoms: C_2  and  C_5
REMARK    5  A    between atoms: N_7  and  C_8
REMARK                            x       y       z     vdW  Elec       q    Type
REMARK                         _______ _______ _______ _____ _____    ______ ____
ROOT
ATOM      1  C   UNL     1       5.487   4.877  18.346  0.00  0.00    +0.000 C 
ATOM      2  O   UNL     1       6.040   4.389  19.326  0.00  0.00    +0.000 OA
ATOM      3  N   UNL     1       4.122   4.781  18.181  0.00  0.00    +0.000 N 
ATOM      4  H   UNL     1       3.674   5.145  17.347  0.00  0.00    +0.000 HD
ENDROOT
BRANCH   3   5
ATOM      5  C   UNL     1       3.296   4.088  19.163  0.00  0.00    +0.000 C 
ATOM      6  C   UNL     1       2.084   4.920  19.576  0.00  0.00    +0.000 C 
ATOM      7  C   UNL     1       1.085   3.993  20.237  0.00  0.00    +0.000 C 
ATOM      8  S   UNL     1       1.095   2.502  19.208  0.00  0.00    +0.000 S 
ATOM      9  C   UNL     1       2.724   2.793  18.605  0.00  0.00    +0.000 C 
ATOM     10  O   UNL     1       3.294   2.035  17.836  0.00  0.00    +0.000 OA
ENDBRANCH   3   5
BRANCH   1  12
ATOM     11  C   UNL     1       7.030   4.563  16.400  0.00  0.00    +0.000 C 
ATOM     12  C   UNL     1       6.257   5.606  17.230  0.00  0.00    +0.000 C 
ATOM     13  C   UNL     1       7.261   6.603  17.826  0.00  0.00    +0.000 C 
ATOM     14  C   UNL     1       5.272   6.338  16.308  0.00  0.00    +0.000 C 
ENDBRANCH   1  12
TORSDOF 2
ENDMDL
MODEL 7
REMARK VINA RESULT:      -5.6      2.395      5.208
REMARK  Name = 
REMARK  5 active torsions:
REMARK  status: ('A' for Active; 'I' for Inactive)
REMARK    1  A    between atoms: C_1  and  C_2
REMARK    2  A    between atoms: C_2  and  C_3
REMARK    3  A    between atoms: C_2  and  C_4
REMARK    4  A    between atoms: C_2  and  C_5
REMARK    5  A    between atoms: N_7  and  C_8
REMARK                            x       y       z     vdW  Elec       q    Type
REMARK                         _______ _______ _______ _____ _____    ______ ____
ROOT
ATOM      1  C   UNL     1       5.441   4.783  18.132  0.00  0.00    +0.000 C 
ATOM      2  O   UNL     1       6.027   4.262  19.076  0.00  0.00    +0.000 OA
ATOM      3  N   UNL     1       4.067   4.746  18.041  0.00  0.00    +0.000 N 
ATOM      4  H   UNL     1       3.590   5.137  17.236  0.00  0.00    +0.000 HD
ENDROOT
BRANCH   3   5
ATOM      5  C   UNL     1       3.268   4.077  19.061  0.00  0.00    +0.000 C 
ATOM      6  C   UNL     1       2.122   4.958  19.554  0.00  0.00    +0.000 C 
ATOM      7  C   UNL     1       1.120   4.068  20.261  0.00  0.00    +0.000 C 
ATOM      8  S   UNL     1       1.000   2.594  19.214  0.00  0.00    +0.000 S 
ATOM      9  C   UNL     1       2.603   2.819  18.521  0.00  0.00    +0.000 C 
ATOM     10  O   UNL     1       3.091   2.046  17.710  0.00  0.00    +0.000 OA
ENDBRANCH   3   5
BRANCH   1  12
ATOM     11  C   UNL     1       7.274   6.397  17.579  0.00  0.00    +0.000 C 
ATOM     12  C   UNL     1       6.180   5.492  16.982  0.00  0.00    +0.000 C 
ATOM     13  C   UNL     1       5.210   6.363  16.170  0.00  0.00    +0.000 C 
ATOM     14  C   UNL     1       6.843   4.452  16.069  0.00  0.00    +0.000 C 
ENDBRANCH   1  12
TORSDOF 2
ENDMDL
MODEL 8
REMARK VINA RESULT:      -5.5      1.379      1.434
REMARK  Name = 
REMARK  5 active torsions:
REMARK  status: ('A' for Active; 'I' for Inactive)
REMARK    1  A    between atoms: C_1  and  C_2
REMARK    2  A    between atoms: C_2  and  C_3
REMARK    3  A    between atoms: C_2  and  C_4
REMARK    4  A    between atoms: C_2  and  C_5
REMARK    5  A    between atoms: N_7  and  C_8
REMARK                            x       y       z     vdW  Elec       q    Type
REMARK                         _______ _______ _______ _____ _____    ______ ____
ROOT
ATOM      1  C   UNL     1       3.170   3.540  19.594  0.00  0.00    +0.000 C 
ATOM      2  O   UNL     1       4.145   2.887  19.954  0.00  0.00    +0.000 OA
ATOM      3  N   UNL     1       3.263   4.437  18.552  0.00  0.00    +0.000 N 
ATOM      4  H   UNL     1       2.467   5.008  18.288  0.00  0.00    +0.000 HD
ENDROOT
BRANCH   3   5
ATOM      5  C   UNL     1       4.525   4.643  17.851  0.00  0.00    +0.000 C 
ATOM      6  C   UNL     1       4.721   3.633  16.723  0.00  0.00    +0.000 C 
ATOM      7  C   UNL     1       5.801   4.165  15.802  0.00  0.00    +0.000 C 
ATOM      8  S   UNL     1       5.434   5.932  15.643  0.00  0.00    +0.000 S 
ATOM      9  C   UNL     1       4.581   6.009  17.182  0.00  0.00    +0.000 C 
ATOM     10  O   UNL     1       4.104   7.042  17.627  0.00  0.00    +0.000 OA
ENDBRANCH   3   5
BRANCH   1  12
ATOM     11  C   UNL     1       1.267   4.849  20.559  0.00  0.00    +0.000 C 
ATOM     12  C   UNL     1       1.794   3.429  20.276  0.00  0.00    +0.000 C 
ATOM     13  C   UNL     1       1.909   2.673  21.608  0.00  0.00    +0.000 C 
ATOM     14  C   UNL     1       0.807   2.711  19.346  0.00  0.00    +0.000 C 
ENDBRANCH   1  12
TORSDOF 2
ENDMDL
MODEL 9
REMARK VINA RESULT:      -5.5      1.378      1.846
REMARK  Name = 
REMARK  5 active torsions:
REMARK  status: ('A' for Active; 'I' for Inactive)
REMARK    1  A    between atoms: C_1  and  C_2
REMARK    2  A    between atoms: C_2  and  C_3
REMARK    3  A    between atoms: C_2  and  C_4
REMARK    4  A    between atoms: C_2  and  C_5
REMARK    5  A    between atoms: N_7  and  C_8
REMARK                            x       y       z     vdW  Elec       q    Type
REMARK                         _______ _______ _______ _____ _____    ______ ____
ROOT
ATOM      1  C   UNL     1       3.114   3.530  19.581  0.00  0.00    +0.000 C 
ATOM      2  O   UNL     1       4.094   2.915  19.989  0.00  0.00    +0.000 OA
ATOM      3  N   UNL     1       3.214   4.394  18.513  0.00  0.00    +0.000 N 
ATOM      4  H   UNL     1       2.412   4.936  18.207  0.00  0.00    +0.000 HD
ENDROOT
BRANCH   3   5
ATOM      5  C   UNL     1       4.490   4.610  17.841  0.00  0.00    +0.000 C 
ATOM      6  C   UNL     1       4.699   3.630  16.687  0.00  0.00    +0.000 C 
ATOM      7  C   UNL     1       5.799   4.180  15.802  0.00  0.00    +0.000 C 
ATOM      8  S   UNL     1       5.450   5.954  15.687  0.00  0.00    +0.000 S 
ATOM      9  C   UNL     1       4.570   5.993  17.212  0.00  0.00    +0.000 C 
ATOM     10  O   UNL     1       4.093   7.017  17.678  0.00  0.00    +0.000 OA
ENDBRANCH   3   5
BRANCH   1  12
ATOM     11  C   UNL     1       1.860   2.631  21.552  0.00  0.00    +0.000 C 
ATOM     12  C   UNL     1       1.722   3.406  20.228  0.00  0.00    +0.000 C 
ATOM     13  C   UNL     1       0.762   2.640  19.307  0.00  0.00    +0.000 C 
ATOM     14  C   UNL     1       1.161   4.802  20.529  0.00  0.00    +0.000 C 
ENDBRANCH   1  12
TORSDOF 2
ENDMDL
