MODEL 1
REMARK VINA RESULT:      -7.7      0.000      0.000
REMARK  Name = 
REMARK  4 active torsions:
REMARK  status: ('A' for Active; 'I' for Inactive)
REMARK    1  A    between atoms: C_1  and  O_2
REMARK    2  A    between atoms: O_2  and  C_3
REMARK    3  A    between atoms: C_6  and  C_7
REMARK    4  A    between atoms: C_13  and  C_14
REMARK                            x       y       z     vdW  Elec       q    Type
REMARK                         _______ _______ _______ _____ _____    ______ ____
ROOT
ATOM      1  C   UNL     1       3.467   6.149  18.142  0.00  0.00    +0.000 A 
ATOM      2  N   UNL     1       3.271   5.360  19.224  0.00  0.00    +0.000 NA
ATOM      3  C   UNL     1       2.502   5.800  20.237  0.00  0.00    +0.000 A 
ATOM      4  N   UNL     1       2.298   4.958  21.322  0.00  0.00    +0.000 N 
ATOM      5  C   UNL     1       1.951   7.086  20.163  0.00  0.00    +0.000 A 
ATOM      6  N   UNL     1       1.179   7.749  21.105  0.00  0.00    +0.000 NA
ATOM      7  C   UNL     1       0.851   8.936  20.637  0.00  0.00    +0.000 A 
ATOM      8  S   UNL     1       1.452   9.320  19.071  0.00  0.00    +0.000 S 
ATOM      9  C   UNL     1       2.219   7.795  19.005  0.00  0.00    +0.000 A 
ATOM     10  N   UNL     1       2.962   7.386  17.962  0.00  0.00    +0.000 NA
ATOM     11  H   UNL     1       3.007   4.243  21.404  0.00  0.00    +0.000 HD
ATOM     12  H   UNL     1       2.001   5.433  22.167  0.00  0.00    +0.000 HD
ENDROOT
BRANCH   1  16
ATOM     13  C   UNL     1       5.895   4.469  14.976  0.00  0.00    +0.000 A 
ATOM     14  C   UNL     1       5.265   3.644  15.902  0.00  0.00    +0.000 A 
ATOM     15  C   UNL     1       4.480   4.192  16.922  0.00  0.00    +0.000 A 
ATOM     16  C   UNL     1       4.313   5.584  17.063  0.00  0.00    +0.000 A 
ATOM     17  C   UNL     1       4.987   6.397  16.133  0.00  0.00    +0.000 A 
ATOM     18  C   UNL     1       5.768   5.849  15.100  0.00  0.00    +0.000 A 
BRANCH  13  20
ATOM     19  C   UNL     1       5.958   3.550  12.799  0.00  0.00    +0.000 C 
ATOM     20  O   UNL     1       6.631   3.819  14.024  0.00  0.00    +0.000 OA
ENDBRANCH  13  20
ENDBRANCH   1  16
BRANCH   7  21
ATOM     21  C   UNL     1       0.045   9.843  21.412  0.00  0.00    +0.000 A 
ATOM     22  C   UNL     1      -0.316   9.711  22.746  0.00  0.00    +0.000 A 
ATOM     23  C   UNL     1      -1.119  10.826  23.081  0.00  0.00    +0.000 A 
ATOM     24  C   UNL     1      -1.207  11.581  21.938  0.00  0.00    +0.000 A 
ATOM     25  O   UNL     1      -0.506  11.004  20.929  0.00  0.00    +0.000 OA
ENDBRANCH   7  21
TORSDOF 3
ENDMDL
MODEL 2
REMARK VINA RESULT:      -7.7      0.116      1.006
REMARK  Name = 
REMARK  4 active torsions:
REMARK  status: ('A' for Active; 'I' for Inactive)
REMARK    1  A    between atoms: C_1  and  O_2
REMARK    2  A    between atoms: O_2  and  C_3
REMARK    3  A    between atoms: C_6  and  C_7
REMARK    4  A    between atoms: C_13  and  C_14
REMARK                            x       y       z     vdW  Elec       q    Type
REMARK                         _______ _______ _______ _____ _____    ______ ____
ROOT
ATOM      1  C   UNL     1       3.495   6.170  18.136  0.00  0.00    +0.000 A 
ATOM      2  N   UNL     1       3.303   5.379  19.218  0.00  0.00    +0.000 NA
ATOM      3  C   UNL     1       2.533   5.815  20.232  0.00  0.00    +0.000 A 
ATOM      4  N   UNL     1       2.335   4.971  21.317  0.00  0.00    +0.000 N 
ATOM      5  C   UNL     1       1.976   7.098  20.160  0.00  0.00    +0.000 A 
ATOM      6  N   UNL     1       1.201   7.756  21.103  0.00  0.00    +0.000 NA
ATOM      7  C   UNL     1       0.868   8.942  20.636  0.00  0.00    +0.000 A 
ATOM      8  S   UNL     1       1.464   9.330  19.069  0.00  0.00    +0.000 S 
ATOM      9  C   UNL     1       2.239   7.809  19.002  0.00  0.00    +0.000 A 
ATOM     10  N   UNL     1       2.983   7.405  17.958  0.00  0.00    +0.000 NA
ATOM     11  H   UNL     1       3.048   4.259  21.397  0.00  0.00    +0.000 HD
ATOM     12  H   UNL     1       2.036   5.443  22.162  0.00  0.00    +0.000 HD
ENDROOT
BRANCH   1  16
ATOM     13  C   UNL     1       6.007   4.569  14.995  0.00  0.00    +0.000 A 
ATOM     14  C   UNL     1       5.752   5.934  15.075  0.00  0.00    +0.000 A 
ATOM     15  C   UNL     1       4.941   6.447  16.093  0.00  0.00    +0.000 A 
ATOM     16  C   UNL     1       4.342   5.610  17.055  0.00  0.00    +0.000 A 
ATOM     17  C   UNL     1       4.590   4.230  16.934  0.00  0.00    +0.000 A 
ATOM     18  C   UNL     1       5.413   3.713  15.918  0.00  0.00    +0.000 A 
BRANCH  13  20
ATOM     19  C   UNL     1       6.159   3.604  12.842  0.00  0.00    +0.000 C 
ATOM     20  O   UNL     1       6.816   4.188  13.961  0.00  0.00    +0.000 OA
ENDBRANCH  13  20
ENDBRANCH   1  16
BRANCH   7  21
ATOM     21  C   UNL     1       0.058   9.844  21.413  0.00  0.00    +0.000 A 
ATOM     22  C   UNL     1      -0.273   9.727  22.756  0.00  0.00    +0.000 A 
ATOM     23  C   UNL     1      -1.093  10.830  23.089  0.00  0.00    +0.000 A 
ATOM     24  C   UNL     1      -1.221  11.564  21.936  0.00  0.00    +0.000 A 
ATOM     25  O   UNL     1      -0.528  10.985  20.922  0.00  0.00    +0.000 OA
ENDBRANCH   7  21
TORSDOF 3
ENDMDL
MODEL 3
REMARK VINA RESULT:      -7.5      2.815      4.070
REMARK  Name = 
REMARK  4 active torsions:
REMARK  status: ('A' for Active; 'I' for Inactive)
REMARK    1  A    between atoms: C_1  and  O_2
REMARK    2  A    between atoms: O_2  and  C_3
REMARK    3  A    between atoms: C_6  and  C_7
REMARK    4  A    between atoms: C_13  and  C_14
REMARK                            x       y       z     vdW  Elec       q    Type
REMARK                         _______ _______ _______ _____ _____    ______ ____
ROOT
ATOM      1  C   UNL     1       1.797   7.705  19.980  0.00  0.00    +0.000 A 
ATOM      2  N   UNL     1       1.755   8.602  18.968  0.00  0.00    +0.000 NA
ATOM      3  C   UNL     1       1.189   9.806  19.171  0.00  0.00    +0.000 A 
ATOM      4  N   UNL     1       1.183  10.716  18.122  0.00  0.00    +0.000 N 
ATOM      5  C   UNL     1       0.621  10.089  20.421  0.00  0.00    +0.000 A 
ATOM      6  N   UNL     1      -0.048  11.234  20.825  0.00  0.00    +0.000 NA
ATOM      7  C   UNL     1      -0.411  11.100  22.084  0.00  0.00    +0.000 A 
ATOM      8  S   UNL     1       0.015   9.613  22.837  0.00  0.00    +0.000 S 
ATOM      9  C   UNL     1       0.731   9.094  21.376  0.00  0.00    +0.000 A 
ATOM     10  N   UNL     1       1.305   7.888  21.222  0.00  0.00    +0.000 NA
ATOM     11  H   UNL     1       1.297  10.276  17.220  0.00  0.00    +0.000 HD
ATOM     12  H   UNL     1       0.488  11.449  18.210  0.00  0.00    +0.000 HD
ENDROOT
BRANCH   1  16
ATOM     13  C   UNL     1       3.662   3.897  19.103  0.00  0.00    +0.000 A 
ATOM     14  C   UNL     1       2.794   4.032  20.182  0.00  0.00    +0.000 A 
ATOM     15  C   UNL     1       2.192   5.264  20.460  0.00  0.00    +0.000 A 
ATOM     16  C   UNL     1       2.452   6.408  19.680  0.00  0.00    +0.000 A 
ATOM     17  C   UNL     1       3.358   6.252  18.614  0.00  0.00    +0.000 A 
ATOM     18  C   UNL     1       3.956   5.013  18.326  0.00  0.00    +0.000 A 
BRANCH  13  20
ATOM     19  C   UNL     1       3.287   1.666  18.417  0.00  0.00    +0.000 C 
ATOM     20  O   UNL     1       4.183   2.645  18.929  0.00  0.00    +0.000 OA
ENDBRANCH  13  20
ENDBRANCH   1  16
BRANCH   7  21
ATOM     21  C   UNL     1      -1.127  12.148  22.765  0.00  0.00    +0.000 A 
ATOM     22  C   UNL     1      -2.494  12.213  22.999  0.00  0.00    +0.000 A 
ATOM     23  C   UNL     1      -2.750  13.421  23.687  0.00  0.00    +0.000 A 
ATOM     24  C   UNL     1      -1.530  14.032  23.839  0.00  0.00    +0.000 A 
ATOM     25  O   UNL     1      -0.545  13.273  23.294  0.00  0.00    +0.000 OA
ENDBRANCH   7  21
TORSDOF 3
ENDMDL
MODEL 4
REMARK VINA RESULT:      -7.5      2.843      4.197
REMARK  Name = 
REMARK  4 active torsions:
REMARK  status: ('A' for Active; 'I' for Inactive)
REMARK    1  A    between atoms: C_1  and  O_2
REMARK    2  A    between atoms: O_2  and  C_3
REMARK    3  A    between atoms: C_6  and  C_7
REMARK    4  A    between atoms: C_13  and  C_14
REMARK                            x       y       z     vdW  Elec       q    Type
REMARK                         _______ _______ _______ _____ _____    ______ ____
ROOT
ATOM      1  C   UNL     1       1.725   7.726  20.032  0.00  0.00    +0.000 A 
ATOM      2  N   UNL     1       1.724   8.630  19.025  0.00  0.00    +0.000 NA
ATOM      3  C   UNL     1       1.187   9.848  19.226  0.00  0.00    +0.000 A 
ATOM      4  N   UNL     1       1.223  10.763  18.182  0.00  0.00    +0.000 N 
ATOM      5  C   UNL     1       0.606  10.139  20.467  0.00  0.00    +0.000 A 
ATOM      6  N   UNL     1      -0.039  11.299  20.867  0.00  0.00    +0.000 NA
ATOM      7  C   UNL     1      -0.426  11.168  22.119  0.00  0.00    +0.000 A 
ATOM      8  S   UNL     1      -0.053   9.666  22.870  0.00  0.00    +0.000 S 
ATOM      9  C   UNL     1       0.673   9.136  21.418  0.00  0.00    +0.000 A 
ATOM     10  N   UNL     1       1.217   7.915  21.267  0.00  0.00    +0.000 NA
ATOM     11  H   UNL     1       1.341  10.325  17.279  0.00  0.00    +0.000 HD
ATOM     12  H   UNL     1       0.547  11.514  18.263  0.00  0.00    +0.000 HD
ENDROOT
BRANCH   1  16
ATOM     13  C   UNL     1       3.597   3.920  19.165  0.00  0.00    +0.000 A 
ATOM     14  C   UNL     1       3.817   5.023  18.347  0.00  0.00    +0.000 A 
ATOM     15  C   UNL     1       3.211   6.251  18.632  0.00  0.00    +0.000 A 
ATOM     16  C   UNL     1       2.350   6.413  19.735  0.00  0.00    +0.000 A 
ATOM     17  C   UNL     1       2.119   5.274  20.528  0.00  0.00    +0.000 A 
ATOM     18  C   UNL     1       2.734   4.042  20.250  0.00  0.00    +0.000 A 
BRANCH  13  20
ATOM     19  C   UNL     1       3.415   1.712  18.340  0.00  0.00    +0.000 C 
ATOM     20  O   UNL     1       4.246   2.777  18.788  0.00  0.00    +0.000 OA
ENDBRANCH  13  20
ENDBRANCH   1  16
BRANCH   7  21
ATOM     21  C   UNL     1      -1.125  12.231  22.794  0.00  0.00    +0.000 A 
ATOM     22  C   UNL     1      -2.490  12.319  23.028  0.00  0.00    +0.000 A 
ATOM     23  C   UNL     1      -2.727  13.536  23.709  0.00  0.00    +0.000 A 
ATOM     24  C   UNL     1      -1.497  14.128  23.857  0.00  0.00    +0.000 A 
ATOM     25  O   UNL     1      -0.524  13.350  23.317  0.00  0.00    +0.000 OA
ENDBRANCH   7  21
TORSDOF 3
ENDMDL
MODEL 5
REMARK VINA RESULT:      -7.3      1.435      8.636
REMARK  Name = 
REMARK  4 active torsions:
REMARK  status: ('A' for Active; 'I' for Inactive)
REMARK    1  A    between atoms: C_1  and  O_2
REMARK    2  A    between atoms: O_2  and  C_3
REMARK    3  A    between atoms: C_6  and  C_7
REMARK    4  A    between atoms: C_13  and  C_14
REMARK                            x       y       z     vdW  Elec       q    Type
REMARK                         _______ _______ _______ _____ _____    ______ ____
ROOT
ATOM      1  C   UNL     1       1.293   8.153  20.500  0.00  0.00    +0.000 A 
ATOM      2  N   UNL     1       1.378   6.952  21.120  0.00  0.00    +0.000 NA
ATOM      3  C   UNL     1       2.129   5.976  20.577  0.00  0.00    +0.000 A 
ATOM      4  N   UNL     1       2.217   4.764  21.249  0.00  0.00    +0.000 N 
ATOM      5  C   UNL     1       2.778   6.215  19.359  0.00  0.00    +0.000 A 
ATOM      6  N   UNL     1       3.552   5.344  18.608  0.00  0.00    +0.000 NA
ATOM      7  C   UNL     1       3.989   5.969  17.534  0.00  0.00    +0.000 A 
ATOM      8  S   UNL     1       3.494   7.608  17.364  0.00  0.00    +0.000 S 
ATOM      9  C   UNL     1       2.619   7.482  18.825  0.00  0.00    +0.000 A 
ATOM     10  N   UNL     1       1.897   8.491  19.343  0.00  0.00    +0.000 NA
ATOM     11  H   UNL     1       1.453   4.615  21.894  0.00  0.00    +0.000 HD
ATOM     12  H   UNL     1       2.509   3.987  20.668  0.00  0.00    +0.000 HD
ENDROOT
BRANCH   1  16
ATOM     13  C   UNL     1      -1.104  11.157  22.495  0.00  0.00    +0.000 A 
ATOM     14  C   UNL     1      -0.645  10.040  23.185  0.00  0.00    +0.000 A 
ATOM     15  C   UNL     1       0.131   9.073  22.537  0.00  0.00    +0.000 A 
ATOM     16  C   UNL     1       0.459   9.180  21.171  0.00  0.00    +0.000 A 
ATOM     17  C   UNL     1      -0.044  10.303  20.487  0.00  0.00    +0.000 A 
ATOM     18  C   UNL     1      -0.815  11.281  21.139  0.00  0.00    +0.000 A 
BRANCH  13  20
ATOM     19  C   UNL     1      -3.046  12.497  22.625  0.00  0.00    +0.000 C 
ATOM     20  O   UNL     1      -1.847  12.033  23.235  0.00  0.00    +0.000 OA
ENDBRANCH  13  20
ENDBRANCH   1  16
BRANCH   7  21
ATOM     21  C   UNL     1       4.824   5.297  16.573  0.00  0.00    +0.000 A 
ATOM     22  C   UNL     1       5.414   5.849  15.444  0.00  0.00    +0.000 A 
ATOM     23  C   UNL     1       6.130   4.819  14.792  0.00  0.00    +0.000 A 
ATOM     24  C   UNL     1       5.943   3.692  15.553  0.00  0.00    +0.000 A 
ATOM     25  O   UNL     1       5.164   3.967  16.631  0.00  0.00    +0.000 OA
ENDBRANCH   7  21
TORSDOF 3
ENDMDL
MODEL 6
REMARK VINA RESULT:      -7.2      1.425      8.643
REMARK  Name = 
REMARK  4 active torsions:
REMARK  status: ('A' for Active; 'I' for Inactive)
REMARK    1  A    between atoms: C_1  and  O_2
REMARK    2  A    between atoms: O_2  and  C_3
REMARK    3  A    between atoms: C_6  and  C_7
REMARK    4  A    between atoms: C_13  and  C_14
REMARK                            x       y       z     vdW  Elec       q    Type
REMARK                         _______ _______ _______ _____ _____    ______ ____
ROOT
ATOM      1  C   UNL     1       1.316   8.210  20.477  0.00  0.00    +0.000 A 
ATOM      2  N   UNL     1       1.411   7.006  21.089  0.00  0.00    +0.000 NA
ATOM      3  C   UNL     1       2.166   6.038  20.538  0.00  0.00    +0.000 A 
ATOM      4  N   UNL     1       2.264   4.823  21.201  0.00  0.00    +0.000 N 
ATOM      5  C   UNL     1       2.810   6.290  19.319  0.00  0.00    +0.000 A 
ATOM      6  N   UNL     1       3.588   5.428  18.561  0.00  0.00    +0.000 NA
ATOM      7  C   UNL     1       4.018   6.063  17.490  0.00  0.00    +0.000 A 
ATOM      8  S   UNL     1       3.512   7.700  17.332  0.00  0.00    +0.000 S 
ATOM      9  C   UNL     1       2.642   7.559  18.794  0.00  0.00    +0.000 A 
ATOM     10  N   UNL     1       1.915   8.560  19.321  0.00  0.00    +0.000 NA
ATOM     11  H   UNL     1       1.503   4.664  21.847  0.00  0.00    +0.000 HD
ATOM     12  H   UNL     1       2.558   4.051  20.614  0.00  0.00    +0.000 HD
ENDROOT
BRANCH   1  16
ATOM     13  C   UNL     1      -1.168  11.173  22.426  0.00  0.00    +0.000 A 
ATOM     14  C   UNL     1      -0.863  11.280  21.073  0.00  0.00    +0.000 A 
ATOM     15  C   UNL     1      -0.061  10.319  20.447  0.00  0.00    +0.000 A 
ATOM     16  C   UNL     1       0.478   9.228  21.157  0.00  0.00    +0.000 A 
ATOM     17  C   UNL     1       0.180   9.160  22.531  0.00  0.00    +0.000 A 
ATOM     18  C   UNL     1      -0.634  10.118  23.160  0.00  0.00    +0.000 A 
BRANCH  13  20
ATOM     19  C   UNL     1      -1.305  13.394  23.221  0.00  0.00    +0.000 C 
ATOM     20  O   UNL     1      -1.963  12.168  22.923  0.00  0.00    +0.000 OA
ENDBRANCH  13  20
ENDBRANCH   1  16
BRANCH   7  21
ATOM     21  C   UNL     1       4.854   5.402  16.521  0.00  0.00    +0.000 A 
ATOM     22  C   UNL     1       4.977   4.035  16.315  0.00  0.00    +0.000 A 
ATOM     23  C   UNL     1       5.915   3.845  15.275  0.00  0.00    +0.000 A 
ATOM     24  C   UNL     1       6.317   5.103  14.898  0.00  0.00    +0.000 A 
ATOM     25  O   UNL     1       5.681   6.049  15.635  0.00  0.00    +0.000 OA
ENDBRANCH   7  21
TORSDOF 3
ENDMDL
MODEL 7
REMARK VINA RESULT:      -7.2      2.470      4.163
REMARK  Name = 
REMARK  4 active torsions:
REMARK  status: ('A' for Active; 'I' for Inactive)
REMARK    1  A    between atoms: C_1  and  O_2
REMARK    2  A    between atoms: O_2  and  C_3
REMARK    3  A    between atoms: C_6  and  C_7
REMARK    4  A    between atoms: C_13  and  C_14
REMARK                            x       y       z     vdW  Elec       q    Type
REMARK                         _______ _______ _______ _____ _____    ______ ____
ROOT
ATOM      1  C   UNL     1       1.568   8.267  19.802  0.00  0.00    +0.000 A 
ATOM      2  N   UNL     1       1.436   9.250  18.881  0.00  0.00    +0.000 NA
ATOM      3  C   UNL     1       0.744  10.362  19.191  0.00  0.00    +0.000 A 
ATOM      4  N   UNL     1       0.647  11.363  18.235  0.00  0.00    +0.000 N 
ATOM      5  C   UNL     1       0.144  10.460  20.453  0.00  0.00    +0.000 A 
ATOM      6  N   UNL     1      -0.646  11.482  20.956  0.00  0.00    +0.000 NA
ATOM      7  C   UNL     1      -0.999  11.189  22.191  0.00  0.00    +0.000 A 
ATOM      8  S   UNL     1      -0.420   9.689  22.803  0.00  0.00    +0.000 S 
ATOM      9  C   UNL     1       0.354   9.393  21.309  0.00  0.00    +0.000 A 
ATOM     10  N   UNL     1       1.054   8.275  21.049  0.00  0.00    +0.000 NA
ATOM     11  H   UNL     1       0.812  11.028  17.296  0.00  0.00    +0.000 HD
ATOM     12  H   UNL     1      -0.122  12.007  18.383  0.00  0.00    +0.000 HD
ENDROOT
BRANCH   1  16
ATOM     13  C   UNL     1       3.919   4.840  18.589  0.00  0.00    +0.000 A 
ATOM     14  C   UNL     1       3.846   5.972  17.785  0.00  0.00    +0.000 A 
ATOM     15  C   UNL     1       3.086   7.078  18.182  0.00  0.00    +0.000 A 
ATOM     16  C   UNL     1       2.359   7.082  19.389  0.00  0.00    +0.000 A 
ATOM     17  C   UNL     1       2.425   5.912  20.169  0.00  0.00    +0.000 A 
ATOM     18  C   UNL     1       3.195   4.804  19.777  0.00  0.00    +0.000 A 
BRANCH  13  20
ATOM     19  C   UNL     1       5.143   3.984  16.757  0.00  0.00    +0.000 C 
ATOM     20  O   UNL     1       4.695   3.827  18.099  0.00  0.00    +0.000 OA
ENDBRANCH  13  20
ENDBRANCH   1  16
BRANCH   7  21
ATOM     21  C   UNL     1      -1.825  12.084  22.958  0.00  0.00    +0.000 A 
ATOM     22  C   UNL     1      -1.530  13.390  23.326  0.00  0.00    +0.000 A 
ATOM     23  C   UNL     1      -2.622  13.876  24.080  0.00  0.00    +0.000 A 
ATOM     24  C   UNL     1      -3.528  12.846  24.136  0.00  0.00    +0.000 A 
ATOM     25  O   UNL     1      -3.064  11.765  23.459  0.00  0.00    +0.000 OA
ENDBRANCH   7  21
TORSDOF 3
ENDMDL
MODEL 8
REMARK VINA RESULT:      -7.2      2.829      4.319
REMARK  Name = 
REMARK  4 active torsions:
REMARK  status: ('A' for Active; 'I' for Inactive)
REMARK    1  A    between atoms: C_1  and  O_2
REMARK    2  A    between atoms: O_2  and  C_3
REMARK    3  A    between atoms: C_6  and  C_7
REMARK    4  A    between atoms: C_13  and  C_14
REMARK                            x       y       z     vdW  Elec       q    Type
REMARK                         _______ _______ _______ _____ _____    ______ ____
ROOT
ATOM      1  C   UNL     1       1.411   8.293  19.939  0.00  0.00    +0.000 A 
ATOM      2  N   UNL     1       1.199   9.210  18.966  0.00  0.00    +0.000 NA
ATOM      3  C   UNL     1       0.485  10.317  19.241  0.00  0.00    +0.000 A 
ATOM      4  N   UNL     1       0.306  11.251  18.230  0.00  0.00    +0.000 N 
ATOM      5  C   UNL     1      -0.054  10.478  20.524  0.00  0.00    +0.000 A 
ATOM      6  N   UNL     1      -0.852  11.506  21.002  0.00  0.00    +0.000 NA
ATOM      7  C   UNL     1      -1.132  11.283  22.270  0.00  0.00    +0.000 A 
ATOM      8  S   UNL     1      -0.472   9.844  22.944  0.00  0.00    +0.000 S 
ATOM      9  C   UNL     1       0.236   9.476  21.434  0.00  0.00    +0.000 A 
ATOM     10  N   UNL     1       0.960   8.366  21.208  0.00  0.00    +0.000 NA
ATOM     11  H   UNL     1       0.435  10.861  17.306  0.00  0.00    +0.000 HD
ATOM     12  H   UNL     1      -0.477  11.879  18.377  0.00  0.00    +0.000 HD
ENDROOT
BRANCH   1  16
ATOM     13  C   UNL     1       3.730   4.807  18.836  0.00  0.00    +0.000 A 
ATOM     14  C   UNL     1       2.960   4.811  19.995  0.00  0.00    +0.000 A 
ATOM     15  C   UNL     1       2.212   5.940  20.346  0.00  0.00    +0.000 A 
ATOM     16  C   UNL     1       2.221   7.109  19.561  0.00  0.00    +0.000 A 
ATOM     17  C   UNL     1       3.032   7.090  18.411  0.00  0.00    +0.000 A 
ATOM     18  C   UNL     1       3.777   5.954  18.050  0.00  0.00    +0.000 A 
BRANCH  13  20
ATOM     19  C   UNL     1       3.694   2.638  17.898  0.00  0.00    +0.000 C 
ATOM     20  O   UNL     1       4.413   3.648  18.596  0.00  0.00    +0.000 OA
ENDBRANCH  13  20
ENDBRANCH   1  16
BRANCH   7  21
ATOM     21  C   UNL     1      -1.949  12.199  23.021  0.00  0.00    +0.000 A 
ATOM     22  C   UNL     1      -1.620  13.491  23.410  0.00  0.00    +0.000 A 
ATOM     23  C   UNL     1      -2.716  14.008  24.137  0.00  0.00    +0.000 A 
ATOM     24  C   UNL     1      -3.658  13.010  24.156  0.00  0.00    +0.000 A 
ATOM     25  O   UNL     1      -3.212  11.919  23.483  0.00  0.00    +0.000 OA
ENDBRANCH   7  21
TORSDOF 3
ENDMDL
MODEL 9
REMARK VINA RESULT:      -7.2      2.819      4.666
REMARK  Name = 
REMARK  4 active torsions:
REMARK  status: ('A' for Active; 'I' for Inactive)
REMARK    1  A    between atoms: C_1  and  O_2
REMARK    2  A    between atoms: O_2  and  C_3
REMARK    3  A    between atoms: C_6  and  C_7
REMARK    4  A    between atoms: C_13  and  C_14
REMARK                            x       y       z     vdW  Elec       q    Type
REMARK                         _______ _______ _______ _____ _____    ______ ____
ROOT
ATOM      1  C   UNL     1       1.143   9.096  19.665  0.00  0.00    +0.000 A 
ATOM      2  N   UNL     1       0.739  10.025  18.768  0.00  0.00    +0.000 NA
ATOM      3  C   UNL     1      -0.084  11.015  19.161  0.00  0.00    +0.000 A 
ATOM      4  N   UNL     1      -0.461  11.968  18.224  0.00  0.00    +0.000 N 
ATOM      5  C   UNL     1      -0.534  11.038  20.487  0.00  0.00    +0.000 A 
ATOM      6  N   UNL     1      -1.415  11.928  21.084  0.00  0.00    +0.000 NA
ATOM      7  C   UNL     1      -1.562  11.606  22.353  0.00  0.00    +0.000 A 
ATOM      8  S   UNL     1      -0.673  10.233  22.888  0.00  0.00    +0.000 S 
ATOM      9  C   UNL     1      -0.049  10.038  21.311  0.00  0.00    +0.000 A 
ATOM     10  N   UNL     1       0.790   9.045  20.965  0.00  0.00    +0.000 NA
ATOM     11  H   UNL     1      -0.358  11.646  17.272  0.00  0.00    +0.000 HD
ATOM     12  H   UNL     1      -1.302  12.479  18.466  0.00  0.00    +0.000 HD
ENDROOT
BRANCH   1  16
ATOM     13  C   UNL     1       3.865   6.076  18.176  0.00  0.00    +0.000 A 
ATOM     14  C   UNL     1       3.617   7.233  17.444  0.00  0.00    +0.000 A 
ATOM     15  C   UNL     1       2.738   8.206  17.930  0.00  0.00    +0.000 A 
ATOM     16  C   UNL     1       2.063   8.049  19.156  0.00  0.00    +0.000 A 
ATOM     17  C   UNL     1       2.306   6.856  19.862  0.00  0.00    +0.000 A 
ATOM     18  C   UNL     1       3.197   5.880  19.381  0.00  0.00    +0.000 A 
BRANCH  13  20
ATOM     19  C   UNL     1       5.194   5.544  16.295  0.00  0.00    +0.000 C 
ATOM     20  O   UNL     1       4.744   5.202  17.601  0.00  0.00    +0.000 OA
ENDBRANCH  13  20
ENDBRANCH   1  16
BRANCH   7  21
ATOM     21  C   UNL     1      -2.425  12.368  23.217  0.00  0.00    +0.000 A 
ATOM     22  C   UNL     1      -2.300  13.708  23.554  0.00  0.00    +0.000 A 
ATOM     23  C   UNL     1      -3.361  14.025  24.434  0.00  0.00    +0.000 A 
ATOM     24  C   UNL     1      -4.079  12.866  24.590  0.00  0.00    +0.000 A 
ATOM     25  O   UNL     1      -3.530  11.862  23.857  0.00  0.00    +0.000 OA
ENDBRANCH   7  21
TORSDOF 3
ENDMDL
