MODEL 1
REMARK VINA RESULT:      -8.0      0.000      0.000
REMARK  Name = 
REMARK  8 active torsions:
REMARK  status: ('A' for Active; 'I' for Inactive)
REMARK    1  A    between atoms: C_2  and  C_4
REMARK    2  A    between atoms: C_8  and  N_9
REMARK    3  A    between atoms: N_12  and  C_13
REMARK    4  A    between atoms: C_16  and  S_17
REMARK    5  A    between atoms: S_17  and  N_20
REMARK    6  A    between atoms: N_20  and  C_21
REMARK    7  A    between atoms: C_21  and  C_22
REMARK    8  A    between atoms: C_22  and  O_23
REMARK                            x       y       z     vdW  Elec       q    Type
REMARK                         _______ _______ _______ _____ _____    ______ ____
ROOT
ATOM      1  N   UNL     1       1.045   8.954  19.290  0.00  0.00    +0.000 N 
ATOM      2  C   UNL     1       2.012   8.500  18.406  0.00  0.00    +0.000 C 
ATOM      3  O   UNL     1       2.353   9.093  17.389  0.00  0.00    +0.000 OA
ATOM      4  N   UNL     1       2.531   7.262  18.777  0.00  0.00    +0.000 N 
ATOM      5  H   UNL     1       1.168   8.684  20.258  0.00  0.00    +0.000 HD
ATOM      6  H   UNL     1       1.865   6.654  19.235  0.00  0.00    +0.000 HD
ENDROOT
BRANCH   1  11
ATOM      7  C   UNL     1      -1.676  11.018  17.797  0.00  0.00    +0.000 A 
ATOM      8  C   UNL     1      -1.538  12.219  18.501  0.00  0.00    +0.000 A 
ATOM      9  C   UNL     1      -0.524  12.353  19.441  0.00  0.00    +0.000 A 
ATOM     10  C   UNL     1       0.340  11.286  19.687  0.00  0.00    +0.000 A 
ATOM     11  C   UNL     1       0.190  10.058  19.028  0.00  0.00    +0.000 A 
ATOM     12  C   UNL     1      -0.819   9.935  18.063  0.00  0.00    +0.000 A 
BRANCH   7  14
ATOM     13  N   UNL     1      -3.702  11.775  16.735  0.00  0.00    +0.000 NA
ATOM     14  C   UNL     1      -2.751  10.900  16.770  0.00  0.00    +0.000 C 
ATOM     15  N   UNL     1      -2.736   9.861  15.881  0.00  0.00    +0.000 N 
ATOM     16  H   UNL     1      -4.318  11.574  15.944  0.00  0.00    +0.000 HD
ATOM     17  H   UNL     1      -3.621   9.643  15.439  0.00  0.00    +0.000 HD
ATOM     18  H   UNL     1      -2.255   9.023  16.190  0.00  0.00    +0.000 HD
ENDBRANCH   7  14
ENDBRANCH   1  11
BRANCH   4  19
ATOM     19  C   UNL     1       3.532   6.640  17.988  0.00  0.00    +0.000 A 
ATOM     20  C   UNL     1       3.741   5.256  18.047  0.00  0.00    +0.000 A 
ATOM     21  C   UNL     1       4.783   4.658  17.337  0.00  0.00    +0.000 A 
ATOM     22  C   UNL     1       5.626   5.450  16.559  0.00  0.00    +0.000 A 
ATOM     23  C   UNL     1       5.422   6.832  16.474  0.00  0.00    +0.000 A 
ATOM     24  C   UNL     1       4.354   7.423  17.169  0.00  0.00    +0.000 A 
BRANCH  22  25
ATOM     25  S   UNL     1       7.019   4.703  15.754  0.00  0.00    +0.000 S 
ATOM     26  O   UNL     1       7.549   5.670  14.819  0.00  0.00    +0.000 OA
ATOM     27  O   UNL     1       7.855   4.063  16.746  0.00  0.00    +0.000 OA
BRANCH  25  28
ATOM     28  N   UNL     1       6.319   3.487  14.806  0.00  0.00    +0.000 NA
ATOM     29  H   UNL     1       5.783   2.883  15.430  0.00  0.00    +0.000 HD
BRANCH  28  30
ATOM     30  C   UNL     1       5.631   3.922  13.571  0.00  0.00    +0.000 C 
BRANCH  30  31
ATOM     31  C   UNL     1       6.407   3.447  12.340  0.00  0.00    +0.000 C 
BRANCH  31  32
ATOM     32  O   UNL     1       5.892   2.205  11.863  0.00  0.00    +0.000 OA
ATOM     33  H   UNL     1       5.111   2.404  11.322  0.00  0.00    +0.000 HD
ENDBRANCH  31  32
ENDBRANCH  30  31
ENDBRANCH  28  30
ENDBRANCH  25  28
ENDBRANCH  22  25
ENDBRANCH   4  19
TORSDOF 8
ENDMDL
MODEL 2
REMARK VINA RESULT:      -7.7      4.062      9.625
REMARK  Name = 
REMARK  8 active torsions:
REMARK  status: ('A' for Active; 'I' for Inactive)
REMARK    1  A    between atoms: C_2  and  C_4
REMARK    2  A    between atoms: C_8  and  N_9
REMARK    3  A    between atoms: N_12  and  C_13
REMARK    4  A    between atoms: C_16  and  S_17
REMARK    5  A    between atoms: S_17  and  N_20
REMARK    6  A    between atoms: N_20  and  C_21
REMARK    7  A    between atoms: C_21  and  C_22
REMARK    8  A    between atoms: C_22  and  O_23
REMARK                            x       y       z     vdW  Elec       q    Type
REMARK                         _______ _______ _______ _____ _____    ______ ____
ROOT
ATOM      1  N   UNL     1       3.075   5.978  19.742  0.00  0.00    +0.000 N 
ATOM      2  C   UNL     1       2.298   7.066  19.373  0.00  0.00    +0.000 C 
ATOM      3  O   UNL     1       1.959   7.317  18.223  0.00  0.00    +0.000 OA
ATOM      4  N   UNL     1       1.975   7.879  20.457  0.00  0.00    +0.000 N 
ATOM      5  H   UNL     1       2.906   5.607  20.669  0.00  0.00    +0.000 HD
ATOM      6  H   UNL     1       2.690   7.922  21.171  0.00  0.00    +0.000 HD
ENDROOT
BRANCH   1  11
ATOM      7  C   UNL     1       5.731   4.586  17.530  0.00  0.00    +0.000 A 
ATOM      8  C   UNL     1       5.096   3.459  17.000  0.00  0.00    +0.000 A 
ATOM      9  C   UNL     1       3.780   3.184  17.349  0.00  0.00    +0.000 A 
ATOM     10  C   UNL     1       3.106   4.024  18.236  0.00  0.00    +0.000 A 
ATOM     11  C   UNL     1       3.739   5.131  18.816  0.00  0.00    +0.000 A 
ATOM     12  C   UNL     1       5.059   5.419  18.442  0.00  0.00    +0.000 A 
BRANCH   7  14
ATOM     13  N   UNL     1       8.103   4.163  17.582  0.00  0.00    +0.000 NA
ATOM     14  C   UNL     1       7.135   4.885  17.122  0.00  0.00    +0.000 C 
ATOM     15  N   UNL     1       7.394   5.930  16.278  0.00  0.00    +0.000 N 
ATOM     16  H   UNL     1       8.983   4.471  17.163  0.00  0.00    +0.000 HD
ATOM     17  H   UNL     1       8.341   6.287  16.293  0.00  0.00    +0.000 HD
ATOM     18  H   UNL     1       6.711   6.681  16.282  0.00  0.00    +0.000 HD
ENDBRANCH   7  14
ENDBRANCH   1  11
BRANCH   4  19
ATOM     19  C   UNL     1       1.186   9.043  20.269  0.00  0.00    +0.000 A 
ATOM     20  C   UNL     1       0.212   9.415  21.206  0.00  0.00    +0.000 A 
ATOM     21  C   UNL     1      -0.622  10.509  20.975  0.00  0.00    +0.000 A 
ATOM     22  C   UNL     1      -0.485  11.241  19.797  0.00  0.00    +0.000 A 
ATOM     23  C   UNL     1       0.493  10.895  18.857  0.00  0.00    +0.000 A 
ATOM     24  C   UNL     1       1.348   9.810  19.109  0.00  0.00    +0.000 A 
BRANCH  22  25
ATOM     25  S   UNL     1      -1.624  12.556  19.455  0.00  0.00    +0.000 S 
ATOM     26  O   UNL     1      -2.772  12.370  20.312  0.00  0.00    +0.000 OA
ATOM     27  O   UNL     1      -0.902  13.810  19.407  0.00  0.00    +0.000 OA
BRANCH  25  28
ATOM     28  N   UNL     1      -2.163  12.212  17.887  0.00  0.00    +0.000 NA
ATOM     29  H   UNL     1      -1.363  11.864  17.357  0.00  0.00    +0.000 HD
BRANCH  28  30
ATOM     30  C   UNL     1      -3.411  11.426  17.773  0.00  0.00    +0.000 C 
BRANCH  30  31
ATOM     31  C   UNL     1      -3.464  10.716  16.418  0.00  0.00    +0.000 C 
BRANCH  31  32
ATOM     32  O   UNL     1      -3.207  11.632  15.355  0.00  0.00    +0.000 OA
ATOM     33  H   UNL     1      -3.696  12.448  15.552  0.00  0.00    +0.000 HD
ENDBRANCH  31  32
ENDBRANCH  30  31
ENDBRANCH  28  30
ENDBRANCH  25  28
ENDBRANCH  22  25
ENDBRANCH   4  19
TORSDOF 8
ENDMDL
MODEL 3
REMARK VINA RESULT:      -7.7      2.115      3.132
REMARK  Name = 
REMARK  8 active torsions:
REMARK  status: ('A' for Active; 'I' for Inactive)
REMARK    1  A    between atoms: C_2  and  C_4
REMARK    2  A    between atoms: C_8  and  N_9
REMARK    3  A    between atoms: N_12  and  C_13
REMARK    4  A    between atoms: C_16  and  S_17
REMARK    5  A    between atoms: S_17  and  N_20
REMARK    6  A    between atoms: N_20  and  C_21
REMARK    7  A    between atoms: C_21  and  C_22
REMARK    8  A    between atoms: C_22  and  O_23
REMARK                            x       y       z     vdW  Elec       q    Type
REMARK                         _______ _______ _______ _____ _____    ______ ____
ROOT
ATOM      1  N   UNL     1       0.784   8.642  20.826  0.00  0.00    +0.000 N 
ATOM      2  C   UNL     1       1.607   8.313  19.759  0.00  0.00    +0.000 C 
ATOM      3  O   UNL     1       1.866   9.065  18.827  0.00  0.00    +0.000 OA
ATOM      4  N   UNL     1       2.081   7.006  19.839  0.00  0.00    +0.000 N 
ATOM      5  H   UNL     1       1.001   8.195  21.708  0.00  0.00    +0.000 HD
ATOM      6  H   UNL     1       1.434   6.356  20.263  0.00  0.00    +0.000 HD
ENDROOT
BRANCH   1  11
ATOM      7  C   UNL     1      -1.410  11.449  19.729  0.00  0.00    +0.000 A 
ATOM      8  C   UNL     1      -1.635  12.119  20.936  0.00  0.00    +0.000 A 
ATOM      9  C   UNL     1      -1.033  11.661  22.100  0.00  0.00    +0.000 A 
ATOM     10  C   UNL     1      -0.219  10.528  22.062  0.00  0.00    +0.000 A 
ATOM     11  C   UNL     1      -0.018   9.813  20.873  0.00  0.00    +0.000 A 
ATOM     12  C   UNL     1      -0.609  10.293  19.696  0.00  0.00    +0.000 A 
BRANCH   7  14
ATOM     13  N   UNL     1      -3.323  11.916  18.342  0.00  0.00    +0.000 NA
ATOM     14  C   UNL     1      -2.040  11.971  18.482  0.00  0.00    +0.000 C 
ATOM     15  N   UNL     1      -1.258  12.490  17.487  0.00  0.00    +0.000 N 
ATOM     16  H   UNL     1      -3.586  12.360  17.459  0.00  0.00    +0.000 HD
ATOM     17  H   UNL     1      -1.678  12.523  16.566  0.00  0.00    +0.000 HD
ATOM     18  H   UNL     1      -0.304  12.148  17.451  0.00  0.00    +0.000 HD
ENDBRANCH   7  14
ENDBRANCH   1  11
BRANCH   4  19
ATOM     19  C   UNL     1       2.937   6.492  18.831  0.00  0.00    +0.000 A 
ATOM     20  C   UNL     1       3.182   5.117  18.723  0.00  0.00    +0.000 A 
ATOM     21  C   UNL     1       4.092   4.623  17.788  0.00  0.00    +0.000 A 
ATOM     22  C   UNL     1       4.766   5.511  16.951  0.00  0.00    +0.000 A 
ATOM     23  C   UNL     1       4.522   6.886  17.033  0.00  0.00    +0.000 A 
ATOM     24  C   UNL     1       3.584   7.374  17.957  0.00  0.00    +0.000 A 
BRANCH  22  25
ATOM     25  S   UNL     1       6.007   4.890  15.847  0.00  0.00    +0.000 S 
ATOM     26  O   UNL     1       5.893   3.449  15.832  0.00  0.00    +0.000 OA
ATOM     27  O   UNL     1       5.993   5.669  14.628  0.00  0.00    +0.000 OA
BRANCH  25  28
ATOM     28  N   UNL     1       7.457   5.224  16.656  0.00  0.00    +0.000 NA
ATOM     29  H   UNL     1       7.662   6.215  16.520  0.00  0.00    +0.000 HD
BRANCH  28  30
ATOM     30  C   UNL     1       7.574   4.720  18.042  0.00  0.00    +0.000 C 
BRANCH  30  31
ATOM     31  C   UNL     1       7.780   5.887  19.011  0.00  0.00    +0.000 C 
BRANCH  31  32
ATOM     32  O   UNL     1       8.065   5.411  20.325  0.00  0.00    +0.000 OA
ATOM     33  H   UNL     1       8.114   4.442  20.278  0.00  0.00    +0.000 HD
ENDBRANCH  31  32
ENDBRANCH  30  31
ENDBRANCH  28  30
ENDBRANCH  25  28
ENDBRANCH  22  25
ENDBRANCH   4  19
TORSDOF 8
ENDMDL
MODEL 4
REMARK VINA RESULT:      -7.6      1.132      1.452
REMARK  Name = 
REMARK  8 active torsions:
REMARK  status: ('A' for Active; 'I' for Inactive)
REMARK    1  A    between atoms: C_2  and  C_4
REMARK    2  A    between atoms: C_8  and  N_9
REMARK    3  A    between atoms: N_12  and  C_13
REMARK    4  A    between atoms: C_16  and  S_17
REMARK    5  A    between atoms: S_17  and  N_20
REMARK    6  A    between atoms: N_20  and  C_21
REMARK    7  A    between atoms: C_21  and  C_22
REMARK    8  A    between atoms: C_22  and  O_23
REMARK                            x       y       z     vdW  Elec       q    Type
REMARK                         _______ _______ _______ _____ _____    ______ ____
ROOT
ATOM      1  N   UNL     1       0.938   9.227  19.402  0.00  0.00    +0.000 N 
ATOM      2  C   UNL     1       1.863   8.683  18.524  0.00  0.00    +0.000 C 
ATOM      3  O   UNL     1       2.159   9.173  17.440  0.00  0.00    +0.000 OA
ATOM      4  N   UNL     1       2.395   7.483  18.990  0.00  0.00    +0.000 N 
ATOM      5  H   UNL     1       1.103   9.051  20.386  0.00  0.00    +0.000 HD
ATOM      6  H   UNL     1       1.750   6.927  19.533  0.00  0.00    +0.000 HD
ENDROOT
BRANCH   1  11
ATOM      7  C   UNL     1      -1.773  11.186  17.758  0.00  0.00    +0.000 A 
ATOM      8  C   UNL     1      -1.670  12.418  18.414  0.00  0.00    +0.000 A 
ATOM      9  C   UNL     1      -0.682  12.605  19.371  0.00  0.00    +0.000 A 
ATOM     10  C   UNL     1       0.191  11.562  19.683  0.00  0.00    +0.000 A 
ATOM     11  C   UNL     1       0.074  10.306  19.074  0.00  0.00    +0.000 A 
ATOM     12  C   UNL     1      -0.909  10.128  18.091  0.00  0.00    +0.000 A 
BRANCH   7  14
ATOM     13  N   UNL     1      -3.822  11.825  16.663  0.00  0.00    +0.000 NA
ATOM     14  C   UNL     1      -2.821  11.009  16.711  0.00  0.00    +0.000 C 
ATOM     15  N   UNL     1      -2.728   9.978  15.818  0.00  0.00    +0.000 N 
ATOM     16  H   UNL     1      -4.410  11.592  15.860  0.00  0.00    +0.000 HD
ATOM     17  H   UNL     1      -3.589   9.709  15.359  0.00  0.00    +0.000 HD
ATOM     18  H   UNL     1      -2.203   9.168  16.132  0.00  0.00    +0.000 HD
ENDBRANCH   7  14
ENDBRANCH   1  11
BRANCH   4  19
ATOM     19  C   UNL     1       3.358   6.781  18.220  0.00  0.00    +0.000 A 
ATOM     20  C   UNL     1       3.154   5.444  17.854  0.00  0.00    +0.000 A 
ATOM     21  C   UNL     1       4.141   4.730  17.174  0.00  0.00    +0.000 A 
ATOM     22  C   UNL     1       5.345   5.356  16.855  0.00  0.00    +0.000 A 
ATOM     23  C   UNL     1       5.560   6.696  17.197  0.00  0.00    +0.000 A 
ATOM     24  C   UNL     1       4.551   7.417  17.857  0.00  0.00    +0.000 A 
BRANCH  22  25
ATOM     25  S   UNL     1       6.639   4.411  16.096  0.00  0.00    +0.000 S 
ATOM     26  O   UNL     1       7.750   4.377  17.020  0.00  0.00    +0.000 OA
ATOM     27  O   UNL     1       6.078   3.203  15.532  0.00  0.00    +0.000 OA
BRANCH  25  28
ATOM     28  N   UNL     1       7.143   5.394  14.813  0.00  0.00    +0.000 NA
ATOM     29  H   UNL     1       8.096   5.700  15.017  0.00  0.00    +0.000 HD
BRANCH  28  30
ATOM     30  C   UNL     1       6.905   4.877  13.448  0.00  0.00    +0.000 C 
BRANCH  30  31
ATOM     31  C   UNL     1       8.023   5.335  12.508  0.00  0.00    +0.000 C 
BRANCH  31  32
ATOM     32  O   UNL     1       9.031   6.045  13.226  0.00  0.00    +0.000 OA
ATOM     33  H   UNL     1       9.367   5.450  13.916  0.00  0.00    +0.000 HD
ENDBRANCH  31  32
ENDBRANCH  30  31
ENDBRANCH  28  30
ENDBRANCH  25  28
ENDBRANCH  22  25
ENDBRANCH   4  19
TORSDOF 8
ENDMDL
MODEL 5
REMARK VINA RESULT:      -7.6      6.235     11.637
REMARK  Name = 
REMARK  8 active torsions:
REMARK  status: ('A' for Active; 'I' for Inactive)
REMARK    1  A    between atoms: C_2  and  C_4
REMARK    2  A    between atoms: C_8  and  N_9
REMARK    3  A    between atoms: N_12  and  C_13
REMARK    4  A    between atoms: C_16  and  S_17
REMARK    5  A    between atoms: S_17  and  N_20
REMARK    6  A    between atoms: N_20  and  C_21
REMARK    7  A    between atoms: C_21  and  C_22
REMARK    8  A    between atoms: C_22  and  O_23
REMARK                            x       y       z     vdW  Elec       q    Type
REMARK                         _______ _______ _______ _____ _____    ______ ____
ROOT
ATOM      1  N   UNL     1       1.763   8.492  20.843  0.00  0.00    +0.000 N 
ATOM      2  C   UNL     1       0.500   9.002  21.103  0.00  0.00    +0.000 C 
ATOM      3  O   UNL     1      -0.541   8.367  20.979  0.00  0.00    +0.000 OA
ATOM      4  N   UNL     1       0.536  10.341  21.484  0.00  0.00    +0.000 N 
ATOM      5  H   UNL     1       2.520   8.881  21.392  0.00  0.00    +0.000 HD
ATOM      6  H   UNL     1       1.273  10.876  21.045  0.00  0.00    +0.000 HD
ENDROOT
BRANCH   1  11
ATOM      7  C   UNL     1       1.941   4.810  20.294  0.00  0.00    +0.000 A 
ATOM      8  C   UNL     1       2.426   4.742  18.984  0.00  0.00    +0.000 A 
ATOM      9  C   UNL     1       2.726   5.914  18.301  0.00  0.00    +0.000 A 
ATOM     10  C   UNL     1       2.528   7.149  18.920  0.00  0.00    +0.000 A 
ATOM     11  C   UNL     1       1.997   7.241  20.213  0.00  0.00    +0.000 A 
ATOM     12  C   UNL     1       1.719   6.056  20.908  0.00  0.00    +0.000 A 
BRANCH   7  14
ATOM     13  N   UNL     1       2.382   3.207  22.038  0.00  0.00    +0.000 NA
ATOM     14  C   UNL     1       1.652   3.542  21.026  0.00  0.00    +0.000 C 
ATOM     15  N   UNL     1       0.629   2.733  20.614  0.00  0.00    +0.000 N 
ATOM     16  H   UNL     1       2.016   2.345  22.448  0.00  0.00    +0.000 HD
ATOM     17  H   UNL     1       0.678   1.768  20.917  0.00  0.00    +0.000 HD
ATOM     18  H   UNL     1       0.375   2.805  19.635  0.00  0.00    +0.000 HD
ENDBRANCH   7  14
ENDBRANCH   1  11
BRANCH   4  19
ATOM     19  C   UNL     1      -0.665  11.031  21.788  0.00  0.00    +0.000 A 
ATOM     20  C   UNL     1      -1.311  11.816  20.823  0.00  0.00    +0.000 A 
ATOM     21  C   UNL     1      -2.443  12.564  21.149  0.00  0.00    +0.000 A 
ATOM     22  C   UNL     1      -2.936  12.529  22.453  0.00  0.00    +0.000 A 
ATOM     23  C   UNL     1      -2.315  11.738  23.425  0.00  0.00    +0.000 A 
ATOM     24  C   UNL     1      -1.193  10.966  23.083  0.00  0.00    +0.000 A 
BRANCH  22  25
ATOM     25  S   UNL     1      -4.302  13.571  22.891  0.00  0.00    +0.000 S 
ATOM     26  O   UNL     1      -3.833  14.506  23.888  0.00  0.00    +0.000 OA
ATOM     27  O   UNL     1      -4.970  14.012  21.686  0.00  0.00    +0.000 OA
BRANCH  25  28
ATOM     28  N   UNL     1      -5.351  12.522  23.707  0.00  0.00    +0.000 NA
ATOM     29  H   UNL     1      -4.844  12.144  24.508  0.00  0.00    +0.000 HD
BRANCH  28  30
ATOM     30  C   UNL     1      -6.715  13.027  23.980  0.00  0.00    +0.000 C 
BRANCH  30  31
ATOM     31  C   UNL     1      -7.748  12.190  23.223  0.00  0.00    +0.000 C 
BRANCH  31  32
ATOM     32  O   UNL     1      -7.841  10.877  23.774  0.00  0.00    +0.000 OA
ATOM     33  H   UNL     1      -8.608  10.867  24.370  0.00  0.00    +0.000 HD
ENDBRANCH  31  32
ENDBRANCH  30  31
ENDBRANCH  28  30
ENDBRANCH  25  28
ENDBRANCH  22  25
ENDBRANCH   4  19
TORSDOF 8
ENDMDL
MODEL 6
REMARK VINA RESULT:      -7.6      6.802     10.035
REMARK  Name = 
REMARK  8 active torsions:
REMARK  status: ('A' for Active; 'I' for Inactive)
REMARK    1  A    between atoms: C_2  and  C_4
REMARK    2  A    between atoms: C_8  and  N_9
REMARK    3  A    between atoms: N_12  and  C_13
REMARK    4  A    between atoms: C_16  and  S_17
REMARK    5  A    between atoms: S_17  and  N_20
REMARK    6  A    between atoms: N_20  and  C_21
REMARK    7  A    between atoms: C_21  and  C_22
REMARK    8  A    between atoms: C_22  and  O_23
REMARK                            x       y       z     vdW  Elec       q    Type
REMARK                         _______ _______ _______ _____ _____    ______ ____
ROOT
ATOM      1  N   UNL     1       7.799   6.832  18.473  0.00  0.00    +0.000 N 
ATOM      2  C   UNL     1       7.945   8.204  18.331  0.00  0.00    +0.000 C 
ATOM      3  O   UNL     1       7.242   8.904  17.612  0.00  0.00    +0.000 OA
ATOM      4  N   UNL     1       9.017   8.702  19.067  0.00  0.00    +0.000 N 
ATOM      5  H   UNL     1       8.067   6.448  19.370  0.00  0.00    +0.000 HD
ATOM      6  H   UNL     1       9.797   8.064  19.146  0.00  0.00    +0.000 HD
ENDROOT
BRANCH   1  11
ATOM      7  C   UNL     1       6.503   4.961  15.521  0.00  0.00    +0.000 A 
ATOM      8  C   UNL     1       5.299   4.449  16.017  0.00  0.00    +0.000 A 
ATOM      9  C   UNL     1       4.905   4.754  17.313  0.00  0.00    +0.000 A 
ATOM     10  C   UNL     1       5.717   5.556  18.116  0.00  0.00    +0.000 A 
ATOM     11  C   UNL     1       6.949   6.039  17.656  0.00  0.00    +0.000 A 
ATOM     12  C   UNL     1       7.332   5.749  16.339  0.00  0.00    +0.000 A 
BRANCH   7  14
ATOM     13  N   UNL     1       7.784   5.381  13.524  0.00  0.00    +0.000 NA
ATOM     14  C   UNL     1       6.898   4.649  14.117  0.00  0.00    +0.000 C 
ATOM     15  N   UNL     1       6.313   3.604  13.457  0.00  0.00    +0.000 N 
ATOM     16  H   UNL     1       7.971   4.999  12.594  0.00  0.00    +0.000 HD
ATOM     17  H   UNL     1       6.364   3.634  12.446  0.00  0.00    +0.000 HD
ATOM     18  H   UNL     1       5.386   3.343  13.778  0.00  0.00    +0.000 HD
ENDBRANCH   7  14
ENDBRANCH   1  11
BRANCH   4  19
ATOM     19  C   UNL     1       9.321  10.087  19.042  0.00  0.00    +0.000 A 
ATOM     20  C   UNL     1       9.619  10.739  17.838  0.00  0.00    +0.000 A 
ATOM     21  C   UNL     1      10.003  12.080  17.826  0.00  0.00    +0.000 A 
ATOM     22  C   UNL     1      10.091  12.780  19.028  0.00  0.00    +0.000 A 
ATOM     23  C   UNL     1       9.780  12.150  20.239  0.00  0.00    +0.000 A 
ATOM     24  C   UNL     1       9.367  10.808  20.241  0.00  0.00    +0.000 A 
BRANCH  22  25
ATOM     25  S   UNL     1      10.692  14.448  19.019  0.00  0.00    +0.000 S 
ATOM     26  O   UNL     1      11.831  14.504  19.908  0.00  0.00    +0.000 OA
ATOM     27  O   UNL     1      10.767  14.919  17.654  0.00  0.00    +0.000 OA
BRANCH  25  28
ATOM     28  N   UNL     1       9.463  15.314  19.798  0.00  0.00    +0.000 NA
ATOM     29  H   UNL     1       9.870  15.744  20.629  0.00  0.00    +0.000 HD
BRANCH  28  30
ATOM     30  C   UNL     1       8.633  16.196  18.949  0.00  0.00    +0.000 C 
BRANCH  30  31
ATOM     31  C   UNL     1       7.429  15.424  18.405  0.00  0.00    +0.000 C 
BRANCH  31  32
ATOM     32  O   UNL     1       7.711  14.886  17.114  0.00  0.00    +0.000 OA
ATOM     33  H   UNL     1       8.302  15.512  16.663  0.00  0.00    +0.000 HD
ENDBRANCH  31  32
ENDBRANCH  30  31
ENDBRANCH  28  30
ENDBRANCH  25  28
ENDBRANCH  22  25
ENDBRANCH   4  19
TORSDOF 8
ENDMDL
MODEL 7
REMARK VINA RESULT:      -7.6      6.239     11.560
REMARK  Name = 
REMARK  8 active torsions:
REMARK  status: ('A' for Active; 'I' for Inactive)
REMARK    1  A    between atoms: C_2  and  C_4
REMARK    2  A    between atoms: C_8  and  N_9
REMARK    3  A    between atoms: N_12  and  C_13
REMARK    4  A    between atoms: C_16  and  S_17
REMARK    5  A    between atoms: S_17  and  N_20
REMARK    6  A    between atoms: N_20  and  C_21
REMARK    7  A    between atoms: C_21  and  C_22
REMARK    8  A    between atoms: C_22  and  O_23
REMARK                            x       y       z     vdW  Elec       q    Type
REMARK                         _______ _______ _______ _____ _____    ______ ____
ROOT
ATOM      1  N   UNL     1       1.745   8.407  21.059  0.00  0.00    +0.000 N 
ATOM      2  C   UNL     1       0.540   9.086  21.170  0.00  0.00    +0.000 C 
ATOM      3  O   UNL     1      -0.538   8.649  20.785  0.00  0.00    +0.000 OA
ATOM      4  N   UNL     1       0.693  10.351  21.733  0.00  0.00    +0.000 N 
ATOM      5  H   UNL     1       2.432   8.604  21.776  0.00  0.00    +0.000 HD
ATOM      6  H   UNL     1       1.568  10.803  21.503  0.00  0.00    +0.000 HD
ENDROOT
BRANCH   1  11
ATOM      7  C   UNL     1       1.757   4.789  20.167  0.00  0.00    +0.000 A 
ATOM      8  C   UNL     1       2.213   4.825  18.845  0.00  0.00    +0.000 A 
ATOM      9  C   UNL     1       2.548   6.042  18.267  0.00  0.00    +0.000 A 
ATOM     10  C   UNL     1       2.414   7.221  19.002  0.00  0.00    +0.000 A 
ATOM     11  C   UNL     1       1.913   7.212  20.310  0.00  0.00    +0.000 A 
ATOM     12  C   UNL     1       1.599   5.979  20.898  0.00  0.00    +0.000 A 
BRANCH   7  14
ATOM     13  N   UNL     1       0.568   2.693  20.214  0.00  0.00    +0.000 NA
ATOM     14  C   UNL     1       1.430   3.470  20.784  0.00  0.00    +0.000 C 
ATOM     15  N   UNL     1       2.028   3.097  21.955  0.00  0.00    +0.000 N 
ATOM     16  H   UNL     1       0.504   1.818  20.739  0.00  0.00    +0.000 HD
ATOM     17  H   UNL     1       1.552   2.378  22.487  0.00  0.00    +0.000 HD
ATOM     18  H   UNL     1       2.345   3.855  22.551  0.00  0.00    +0.000 HD
ENDBRANCH   7  14
ENDBRANCH   1  11
BRANCH   4  19
ATOM     19  C   UNL     1      -0.434  11.191  21.922  0.00  0.00    +0.000 A 
ATOM     20  C   UNL     1      -1.219  11.096  23.078  0.00  0.00    +0.000 A 
ATOM     21  C   UNL     1      -2.377  11.861  23.223  0.00  0.00    +0.000 A 
ATOM     22  C   UNL     1      -2.756  12.731  22.202  0.00  0.00    +0.000 A 
ATOM     23  C   UNL     1      -1.975  12.852  21.047  0.00  0.00    +0.000 A 
ATOM     24  C   UNL     1      -0.796  12.100  20.921  0.00  0.00    +0.000 A 
BRANCH  22  25
ATOM     25  S   UNL     1      -4.288  13.613  22.338  0.00  0.00    +0.000 S 
ATOM     26  O   UNL     1      -4.205  14.449  23.514  0.00  0.00    +0.000 OA
ATOM     27  O   UNL     1      -4.644  14.151  21.043  0.00  0.00    +0.000 OA
BRANCH  25  28
ATOM     28  N   UNL     1      -5.408  12.401  22.718  0.00  0.00    +0.000 NA
ATOM     29  H   UNL     1      -5.260  12.142  23.695  0.00  0.00    +0.000 HD
BRANCH  28  30
ATOM     30  C   UNL     1      -6.810  12.643  22.315  0.00  0.00    +0.000 C 
BRANCH  30  31
ATOM     31  C   UNL     1      -7.674  12.913  23.550  0.00  0.00    +0.000 C 
BRANCH  31  32
ATOM     32  O   UNL     1      -6.875  13.380  24.636  0.00  0.00    +0.000 OA
ATOM     33  H   UNL     1      -7.019  14.338  24.709  0.00  0.00    +0.000 HD
ENDBRANCH  31  32
ENDBRANCH  30  31
ENDBRANCH  28  30
ENDBRANCH  25  28
ENDBRANCH  22  25
ENDBRANCH   4  19
TORSDOF 8
ENDMDL
MODEL 8
REMARK VINA RESULT:      -7.5      1.817      2.884
REMARK  Name = 
REMARK  8 active torsions:
REMARK  status: ('A' for Active; 'I' for Inactive)
REMARK    1  A    between atoms: C_2  and  C_4
REMARK    2  A    between atoms: C_8  and  N_9
REMARK    3  A    between atoms: N_12  and  C_13
REMARK    4  A    between atoms: C_16  and  S_17
REMARK    5  A    between atoms: S_17  and  N_20
REMARK    6  A    between atoms: N_20  and  C_21
REMARK    7  A    between atoms: C_21  and  C_22
REMARK    8  A    between atoms: C_22  and  O_23
REMARK                            x       y       z     vdW  Elec       q    Type
REMARK                         _______ _______ _______ _____ _____    ______ ____
ROOT
ATOM      1  N   UNL     1       0.604   9.315  19.731  0.00  0.00    +0.000 N 
ATOM      2  C   UNL     1       1.535   8.771  18.858  0.00  0.00    +0.000 C 
ATOM      3  O   UNL     1       1.860   9.275  17.790  0.00  0.00    +0.000 OA
ATOM      4  N   UNL     1       2.036   7.552  19.309  0.00  0.00    +0.000 N 
ATOM      5  H   UNL     1       0.748   9.116  20.713  0.00  0.00    +0.000 HD
ATOM      6  H   UNL     1       1.369   6.997  19.829  0.00  0.00    +0.000 HD
ENDROOT
BRANCH   1  11
ATOM      7  C   UNL     1      -1.933  11.409  17.980  0.00  0.00    +0.000 A 
ATOM      8  C   UNL     1      -1.922  12.574  18.754  0.00  0.00    +0.000 A 
ATOM      9  C   UNL     1      -1.050  12.675  19.831  0.00  0.00    +0.000 A 
ATOM     10  C   UNL     1      -0.203  11.610  20.141  0.00  0.00    +0.000 A 
ATOM     11  C   UNL     1      -0.232  10.416  19.408  0.00  0.00    +0.000 A 
ATOM     12  C   UNL     1      -1.096  10.328  18.308  0.00  0.00    +0.000 A 
BRANCH   7  14
ATOM     13  N   UNL     1      -4.037  11.842  16.888  0.00  0.00    +0.000 NA
ATOM     14  C   UNL     1      -2.854  11.328  16.808  0.00  0.00    +0.000 C 
ATOM     15  N   UNL     1      -2.451  10.696  15.665  0.00  0.00    +0.000 N 
ATOM     16  H   UNL     1      -4.510  11.743  15.986  0.00  0.00    +0.000 HD
ATOM     17  H   UNL     1      -3.190  10.387  15.046  0.00  0.00    +0.000 HD
ATOM     18  H   UNL     1      -1.737   9.984  15.781  0.00  0.00    +0.000 HD
ENDBRANCH   7  14
ENDBRANCH   1  11
BRANCH   4  19
ATOM     19  C   UNL     1       2.999   6.846  18.543  0.00  0.00    +0.000 A 
ATOM     20  C   UNL     1       3.236   5.483  18.761  0.00  0.00    +0.000 A 
ATOM     21  C   UNL     1       4.245   4.812  18.068  0.00  0.00    +0.000 A 
ATOM     22  C   UNL     1       5.026   5.510  17.148  0.00  0.00    +0.000 A 
ATOM     23  C   UNL     1       4.792   6.868  16.905  0.00  0.00    +0.000 A 
ATOM     24  C   UNL     1       3.757   7.530  17.585  0.00  0.00    +0.000 A 
BRANCH  22  25
ATOM     25  S   UNL     1       6.382   4.683  16.358  0.00  0.00    +0.000 S 
ATOM     26  O   UNL     1       5.847   3.525  15.678  0.00  0.00    +0.000 OA
ATOM     27  O   UNL     1       7.200   5.660  15.673  0.00  0.00    +0.000 OA
BRANCH  25  28
ATOM     28  N   UNL     1       7.282   4.074  17.656  0.00  0.00    +0.000 NA
ATOM     29  H   UNL     1       7.725   3.209  17.343  0.00  0.00    +0.000 HD
BRANCH  28  30
ATOM     30  C   UNL     1       8.158   5.034  18.363  0.00  0.00    +0.000 C 
BRANCH  30  31
ATOM     31  C   UNL     1       7.438   5.599  19.590  0.00  0.00    +0.000 C 
BRANCH  31  32
ATOM     32  O   UNL     1       8.221   5.414  20.768  0.00  0.00    +0.000 OA
ATOM     33  H   UNL     1       7.861   6.005  21.450  0.00  0.00    +0.000 HD
ENDBRANCH  31  32
ENDBRANCH  30  31
ENDBRANCH  28  30
ENDBRANCH  25  28
ENDBRANCH  22  25
ENDBRANCH   4  19
TORSDOF 8
ENDMDL
MODEL 9
REMARK VINA RESULT:      -7.5      3.168      4.131
REMARK  Name = 
REMARK  8 active torsions:
REMARK  status: ('A' for Active; 'I' for Inactive)
REMARK    1  A    between atoms: C_2  and  C_4
REMARK    2  A    between atoms: C_8  and  N_9
REMARK    3  A    between atoms: N_12  and  C_13
REMARK    4  A    between atoms: C_16  and  S_17
REMARK    5  A    between atoms: S_17  and  N_20
REMARK    6  A    between atoms: N_20  and  C_21
REMARK    7  A    between atoms: C_21  and  C_22
REMARK    8  A    between atoms: C_22  and  O_23
REMARK                            x       y       z     vdW  Elec       q    Type
REMARK                         _______ _______ _______ _____ _____    ______ ____
ROOT
ATOM      1  N   UNL     1       0.681   9.980  22.010  0.00  0.00    +0.000 N 
ATOM      2  C   UNL     1       0.808   9.048  20.990  0.00  0.00    +0.000 C 
ATOM      3  O   UNL     1       0.151   9.061  19.956  0.00  0.00    +0.000 OA
ATOM      4  N   UNL     1       1.741   8.058  21.289  0.00  0.00    +0.000 N 
ATOM      5  H   UNL     1       1.520  10.166  22.547  0.00  0.00    +0.000 HD
ATOM      6  H   UNL     1       1.793   7.820  22.270  0.00  0.00    +0.000 HD
ENDROOT
BRANCH   1  11
ATOM      7  C   UNL     1      -1.465  12.898  21.135  0.00  0.00    +0.000 A 
ATOM      8  C   UNL     1      -2.419  12.864  22.158  0.00  0.00    +0.000 A 
ATOM      9  C   UNL     1      -2.327  11.898  23.151  0.00  0.00    +0.000 A 
ATOM     10  C   UNL     1      -1.295  10.960  23.116  0.00  0.00    +0.000 A 
ATOM     11  C   UNL     1      -0.357  10.946  22.074  0.00  0.00    +0.000 A 
ATOM     12  C   UNL     1      -0.439  11.938  21.087  0.00  0.00    +0.000 A 
BRANCH   7  14
ATOM     13  N   UNL     1      -1.009  13.774  18.938  0.00  0.00    +0.000 NA
ATOM     14  C   UNL     1      -1.559  13.961  20.092  0.00  0.00    +0.000 C 
ATOM     15  N   UNL     1      -2.211  15.131  20.365  0.00  0.00    +0.000 N 
ATOM     16  H   UNL     1      -1.213  14.573  18.333  0.00  0.00    +0.000 HD
ATOM     17  H   UNL     1      -1.974  15.918  19.774  0.00  0.00    +0.000 HD
ATOM     18  H   UNL     1      -2.252  15.397  21.343  0.00  0.00    +0.000 HD
ENDBRANCH   7  14
ENDBRANCH   1  11
BRANCH   4  19
ATOM     19  C   UNL     1       2.001   7.017  20.361  0.00  0.00    +0.000 A 
ATOM     20  C   UNL     1       1.705   5.683  20.670  0.00  0.00    +0.000 A 
ATOM     21  C   UNL     1       2.043   4.653  19.792  0.00  0.00    +0.000 A 
ATOM     22  C   UNL     1       2.684   4.956  18.593  0.00  0.00    +0.000 A 
ATOM     23  C   UNL     1       2.973   6.284  18.259  0.00  0.00    +0.000 A 
ATOM     24  C   UNL     1       2.605   7.318  19.134  0.00  0.00    +0.000 A 
BRANCH  22  25
ATOM     25  S   UNL     1       3.217   3.635  17.536  0.00  0.00    +0.000 S 
ATOM     26  O   UNL     1       4.081   2.777  18.315  0.00  0.00    +0.000 OA
ATOM     27  O   UNL     1       2.077   3.116  16.813  0.00  0.00    +0.000 OA
BRANCH  25  28
ATOM     28  N   UNL     1       4.228   4.408  16.419  0.00  0.00    +0.000 NA
ATOM     29  H   UNL     1       4.108   5.414  16.542  0.00  0.00    +0.000 HD
BRANCH  28  30
ATOM     30  C   UNL     1       5.624   3.924  16.343  0.00  0.00    +0.000 C 
BRANCH  30  31
ATOM     31  C   UNL     1       6.534   4.804  17.203  0.00  0.00    +0.000 C 
BRANCH  31  32
ATOM     32  O   UNL     1       6.855   4.155  18.432  0.00  0.00    +0.000 OA
ATOM     33  H   UNL     1       7.635   4.601  18.800  0.00  0.00    +0.000 HD
ENDBRANCH  31  32
ENDBRANCH  30  31
ENDBRANCH  28  30
ENDBRANCH  25  28
ENDBRANCH  22  25
ENDBRANCH   4  19
TORSDOF 8
ENDMDL
