MODEL 1
REMARK VINA RESULT:      -6.7      0.000      0.000
REMARK  Name = 
REMARK  5 active torsions:
REMARK  status: ('A' for Active; 'I' for Inactive)
REMARK    1  A    between atoms: C_1  and  O_2
REMARK    2  A    between atoms: O_2  and  C_3
REMARK    3  A    between atoms: C_6  and  N_7
REMARK    4  A    between atoms: N_12  and  C_13
REMARK    5  A    between atoms: C_13  and  C_14
REMARK                            x       y       z     vdW  Elec       q    Type
REMARK                         _______ _______ _______ _____ _____    ______ ____
ROOT
ATOM      1  N   UNL     1       4.254   3.896  18.247  0.00  0.00    +0.000 NA
ATOM      2  C   UNL     1       3.448   4.739  18.821  0.00  0.00    +0.000 C 
ATOM      3  C   UNL     1       3.229   6.199  18.425  0.00  0.00    +0.000 C 
ATOM      4  C   UNL     1       2.564   6.758  19.675  0.00  0.00    +0.000 C 
ATOM      5  C   UNL     1       1.755   5.581  20.198  0.00  0.00    +0.000 C 
ATOM      6  N   UNL     1       2.634   4.449  19.909  0.00  0.00    +0.000 N 
ENDROOT
BRANCH   1  10
ATOM      7  C   UNL     1       6.985   4.996  15.216  0.00  0.00    +0.000 A 
ATOM      8  C   UNL     1       7.339   5.118  16.555  0.00  0.00    +0.000 A 
ATOM      9  C   UNL     1       6.458   4.706  17.551  0.00  0.00    +0.000 A 
ATOM     10  C   UNL     1       5.159   4.289  17.245  0.00  0.00    +0.000 A 
ATOM     11  C   UNL     1       4.820   4.143  15.896  0.00  0.00    +0.000 A 
ATOM     12  C   UNL     1       5.731   4.482  14.883  0.00  0.00    +0.000 A 
BRANCH   7  14
ATOM     13  C   UNL     1       7.683   5.090  12.972  0.00  0.00    +0.000 C 
ATOM     14  O   UNL     1       7.921   5.446  14.329  0.00  0.00    +0.000 OA
ENDBRANCH   7  14
ENDBRANCH   1  10
BRANCH   6  15
ATOM     15  C   UNL     1       2.123   3.133  20.312  0.00  0.00    +0.000 C 
BRANCH  15  16
ATOM     16  C   UNL     1       1.454   2.255  19.253  0.00  0.00    +0.000 C 
ATOM     17  N   UNL     1       2.215   1.427  18.492  0.00  0.00    +0.000 N 
ATOM     18  O   UNL     1       0.237   2.303  19.057  0.00  0.00    +0.000 OA
ATOM     19  H   UNL     1       3.202   1.668  18.387  0.00  0.00    +0.000 HD
ATOM     20  H   UNL     1       1.764   1.006  17.696  0.00  0.00    +0.000 HD
ENDBRANCH  15  16
ENDBRANCH   6  15
TORSDOF 4
ENDMDL
MODEL 2
REMARK VINA RESULT:      -6.6      2.152      2.528
REMARK  Name = 
REMARK  5 active torsions:
REMARK  status: ('A' for Active; 'I' for Inactive)
REMARK    1  A    between atoms: C_1  and  O_2
REMARK    2  A    between atoms: O_2  and  C_3
REMARK    3  A    between atoms: C_6  and  N_7
REMARK    4  A    between atoms: N_12  and  C_13
REMARK    5  A    between atoms: C_13  and  C_14
REMARK                            x       y       z     vdW  Elec       q    Type
REMARK                         _______ _______ _______ _____ _____    ______ ____
ROOT
ATOM      1  N   UNL     1       4.469   4.262  18.917  0.00  0.00    +0.000 NA
ATOM      2  C   UNL     1       3.348   4.580  19.495  0.00  0.00    +0.000 C 
ATOM      3  C   UNL     1       2.763   5.985  19.633  0.00  0.00    +0.000 C 
ATOM      4  C   UNL     1       1.736   5.781  20.738  0.00  0.00    +0.000 C 
ATOM      5  C   UNL     1       1.251   4.358  20.509  0.00  0.00    +0.000 C 
ATOM      6  N   UNL     1       2.477   3.678  20.093  0.00  0.00    +0.000 N 
ENDROOT
BRANCH   1  10
ATOM      7  C   UNL     1       7.213   7.135  17.476  0.00  0.00    +0.000 A 
ATOM      8  C   UNL     1       7.527   6.364  18.590  0.00  0.00    +0.000 A 
ATOM      9  C   UNL     1       6.643   5.382  19.032  0.00  0.00    +0.000 A 
ATOM     10  C   UNL     1       5.376   5.234  18.460  0.00  0.00    +0.000 A 
ATOM     11  C   UNL     1       5.079   5.995  17.325  0.00  0.00    +0.000 A 
ATOM     12  C   UNL     1       5.996   6.933  16.824  0.00  0.00    +0.000 A 
BRANCH   7  14
ATOM     13  C   UNL     1       8.206   9.196  18.021  0.00  0.00    +0.000 C 
ATOM     14  O   UNL     1       8.146   8.075  17.145  0.00  0.00    +0.000 OA
ENDBRANCH   7  14
ENDBRANCH   1  10
BRANCH   6  15
ATOM     15  C   UNL     1       2.335   2.247  19.797  0.00  0.00    +0.000 C 
BRANCH  15  16
ATOM     16  C   UNL     1       2.784   1.739  18.425  0.00  0.00    +0.000 C 
ATOM     17  N   UNL     1       3.885   0.950  18.332  0.00  0.00    +0.000 N 
ATOM     18  O   UNL     1       2.180   2.054  17.397  0.00  0.00    +0.000 OA
ATOM     19  H   UNL     1       4.571   1.016  19.086  0.00  0.00    +0.000 HD
ATOM     20  H   UNL     1       4.245   0.788  17.404  0.00  0.00    +0.000 HD
ENDBRANCH  15  16
ENDBRANCH   6  15
TORSDOF 4
ENDMDL
MODEL 3
REMARK VINA RESULT:      -6.6      0.246      1.155
REMARK  Name = 
REMARK  5 active torsions:
REMARK  status: ('A' for Active; 'I' for Inactive)
REMARK    1  A    between atoms: C_1  and  O_2
REMARK    2  A    between atoms: O_2  and  C_3
REMARK    3  A    between atoms: C_6  and  N_7
REMARK    4  A    between atoms: N_12  and  C_13
REMARK    5  A    between atoms: C_13  and  C_14
REMARK                            x       y       z     vdW  Elec       q    Type
REMARK                         _______ _______ _______ _____ _____    ______ ____
ROOT
ATOM      1  N   UNL     1       4.208   3.844  18.431  0.00  0.00    +0.000 NA
ATOM      2  C   UNL     1       3.404   4.693  19.000  0.00  0.00    +0.000 C 
ATOM      3  C   UNL     1       3.237   6.168  18.638  0.00  0.00    +0.000 C 
ATOM      4  C   UNL     1       2.543   6.711  19.879  0.00  0.00    +0.000 C 
ATOM      5  C   UNL     1       1.686   5.542  20.341  0.00  0.00    +0.000 C 
ATOM      6  N   UNL     1       2.546   4.396  20.051  0.00  0.00    +0.000 N 
ENDROOT
BRANCH   1  10
ATOM      7  C   UNL     1       7.044   5.114  15.567  0.00  0.00    +0.000 A 
ATOM      8  C   UNL     1       5.844   4.542  15.158  0.00  0.00    +0.000 A 
ATOM      9  C   UNL     1       4.889   4.172  16.102  0.00  0.00    +0.000 A 
ATOM     10  C   UNL     1       5.158   4.240  17.472  0.00  0.00    +0.000 A 
ATOM     11  C   UNL     1       6.355   4.841  17.875  0.00  0.00    +0.000 A 
ATOM     12  C   UNL     1       7.291   5.289  16.929  0.00  0.00    +0.000 A 
BRANCH   7  14
ATOM     13  C   UNL     1       7.484   5.019  13.259  0.00  0.00    +0.000 C 
ATOM     14  O   UNL     1       7.909   5.422  14.556  0.00  0.00    +0.000 OA
ENDBRANCH   7  14
ENDBRANCH   1  10
BRANCH   6  15
ATOM     15  C   UNL     1       1.987   3.084  20.400  0.00  0.00    +0.000 C 
BRANCH  15  16
ATOM     16  C   UNL     1       1.417   2.213  19.278  0.00  0.00    +0.000 C 
ATOM     17  N   UNL     1       2.255   1.440  18.540  0.00  0.00    +0.000 N 
ATOM     18  O   UNL     1       0.213   2.218  19.013  0.00  0.00    +0.000 OA
ATOM     19  H   UNL     1       3.235   1.723  18.499  0.00  0.00    +0.000 HD
ATOM     20  H   UNL     1       1.867   1.026  17.707  0.00  0.00    +0.000 HD
ENDBRANCH  15  16
ENDBRANCH   6  15
TORSDOF 4
ENDMDL
MODEL 4
REMARK VINA RESULT:      -6.5      2.207      2.750
REMARK  Name = 
REMARK  5 active torsions:
REMARK  status: ('A' for Active; 'I' for Inactive)
REMARK    1  A    between atoms: C_1  and  O_2
REMARK    2  A    between atoms: O_2  and  C_3
REMARK    3  A    between atoms: C_6  and  N_7
REMARK    4  A    between atoms: N_12  and  C_13
REMARK    5  A    between atoms: C_13  and  C_14
REMARK                            x       y       z     vdW  Elec       q    Type
REMARK                         _______ _______ _______ _____ _____    ______ ____
ROOT
ATOM      1  N   UNL     1       4.371   4.166  18.828  0.00  0.00    +0.000 NA
ATOM      2  C   UNL     1       3.276   4.500  19.445  0.00  0.00    +0.000 C 
ATOM      3  C   UNL     1       2.762   5.920  19.678  0.00  0.00    +0.000 C 
ATOM      4  C   UNL     1       1.744   5.698  20.789  0.00  0.00    +0.000 C 
ATOM      5  C   UNL     1       1.188   4.316  20.483  0.00  0.00    +0.000 C 
ATOM      6  N   UNL     1       2.372   3.606  20.004  0.00  0.00    +0.000 N 
ENDROOT
BRANCH   1  10
ATOM      7  C   UNL     1       7.200   7.077  17.654  0.00  0.00    +0.000 A 
ATOM      8  C   UNL     1       5.970   6.997  17.010  0.00  0.00    +0.000 A 
ATOM      9  C   UNL     1       5.019   6.072  17.433  0.00  0.00    +0.000 A 
ATOM     10  C   UNL     1       5.317   5.121  18.413  0.00  0.00    +0.000 A 
ATOM     11  C   UNL     1       6.545   5.224  19.073  0.00  0.00    +0.000 A 
ATOM     12  C   UNL     1       7.481   6.206  18.707  0.00  0.00    +0.000 A 
BRANCH   7  14
ATOM     13  C   UNL     1       8.193   9.192  17.924  0.00  0.00    +0.000 C 
ATOM     14  O   UNL     1       8.057   8.010  17.143  0.00  0.00    +0.000 OA
ENDBRANCH   7  14
ENDBRANCH   1  10
BRANCH   6  15
ATOM     15  C   UNL     1       2.156   2.204  19.624  0.00  0.00    +0.000 C 
BRANCH  15  16
ATOM     16  C   UNL     1       2.739   1.710  18.299  0.00  0.00    +0.000 C 
ATOM     17  N   UNL     1       3.856   0.938  18.305  0.00  0.00    +0.000 N 
ATOM     18  O   UNL     1       2.229   2.022  17.220  0.00  0.00    +0.000 OA
ATOM     19  H   UNL     1       4.467   1.010  19.120  0.00  0.00    +0.000 HD
ATOM     20  H   UNL     1       4.303   0.787  17.414  0.00  0.00    +0.000 HD
ENDBRANCH  15  16
ENDBRANCH   6  15
TORSDOF 4
ENDMDL
MODEL 5
REMARK VINA RESULT:      -6.5      3.333      6.541
REMARK  Name = 
REMARK  5 active torsions:
REMARK  status: ('A' for Active; 'I' for Inactive)
REMARK    1  A    between atoms: C_1  and  O_2
REMARK    2  A    between atoms: O_2  and  C_3
REMARK    3  A    between atoms: C_6  and  N_7
REMARK    4  A    between atoms: N_12  and  C_13
REMARK    5  A    between atoms: C_13  and  C_14
REMARK                            x       y       z     vdW  Elec       q    Type
REMARK                         _______ _______ _______ _____ _____    ______ ____
ROOT
ATOM      1  N   UNL     1       3.455   6.755  18.170  0.00  0.00    +0.000 NA
ATOM      2  C   UNL     1       3.165   5.515  17.906  0.00  0.00    +0.000 C 
ATOM      3  C   UNL     1       1.772   4.887  17.912  0.00  0.00    +0.000 C 
ATOM      4  C   UNL     1       2.106   3.404  17.979  0.00  0.00    +0.000 C 
ATOM      5  C   UNL     1       3.403   3.300  17.192  0.00  0.00    +0.000 C 
ATOM      6  N   UNL     1       4.089   4.536  17.566  0.00  0.00    +0.000 N 
ENDROOT
BRANCH   1  10
ATOM      7  C   UNL     1       0.626   9.543  19.612  0.00  0.00    +0.000 A 
ATOM      8  C   UNL     1       1.139   8.566  20.458  0.00  0.00    +0.000 A 
ATOM      9  C   UNL     1       2.110   7.682  19.995  0.00  0.00    +0.000 A 
ATOM     10  C   UNL     1       2.494   7.662  18.651  0.00  0.00    +0.000 A 
ATOM     11  C   UNL     1       1.993   8.664  17.813  0.00  0.00    +0.000 A 
ATOM     12  C   UNL     1       1.073   9.610  18.292  0.00  0.00    +0.000 A 
BRANCH   7  14
ATOM     13  C   UNL     1      -1.004  11.201  19.256  0.00  0.00    +0.000 C 
ATOM     14  O   UNL     1      -0.330  10.343  20.169  0.00  0.00    +0.000 OA
ENDBRANCH   7  14
ENDBRANCH   1  10
BRANCH   6  15
ATOM     15  C   UNL     1       5.412   4.732  16.957  0.00  0.00    +0.000 C 
BRANCH  15  16
ATOM     16  C   UNL     1       6.650   4.586  17.842  0.00  0.00    +0.000 C 
ATOM     17  N   UNL     1       7.851   4.307  17.273  0.00  0.00    +0.000 N 
ATOM     18  O   UNL     1       6.576   4.689  19.069  0.00  0.00    +0.000 OA
ATOM     19  H   UNL     1       7.838   3.853  16.358  0.00  0.00    +0.000 HD
ATOM     20  H   UNL     1       8.595   4.044  17.899  0.00  0.00    +0.000 HD
ENDBRANCH  15  16
ENDBRANCH   6  15
TORSDOF 4
ENDMDL
MODEL 6
REMARK VINA RESULT:      -6.5      2.942      6.503
REMARK  Name = 
REMARK  5 active torsions:
REMARK  status: ('A' for Active; 'I' for Inactive)
REMARK    1  A    between atoms: C_1  and  O_2
REMARK    2  A    between atoms: O_2  and  C_3
REMARK    3  A    between atoms: C_6  and  N_7
REMARK    4  A    between atoms: N_12  and  C_13
REMARK    5  A    between atoms: C_13  and  C_14
REMARK                            x       y       z     vdW  Elec       q    Type
REMARK                         _______ _______ _______ _____ _____    ______ ____
ROOT
ATOM      1  N   UNL     1       3.471   6.520  17.930  0.00  0.00    +0.000 NA
ATOM      2  C   UNL     1       3.120   5.283  17.742  0.00  0.00    +0.000 C 
ATOM      3  C   UNL     1       1.724   4.694  17.943  0.00  0.00    +0.000 C 
ATOM      4  C   UNL     1       2.028   3.204  18.013  0.00  0.00    +0.000 C 
ATOM      5  C   UNL     1       3.212   3.043  17.073  0.00  0.00    +0.000 C 
ATOM      6  N   UNL     1       3.970   4.269  17.319  0.00  0.00    +0.000 N 
ENDROOT
BRANCH   1  10
ATOM      7  C   UNL     1       0.920   9.422  19.641  0.00  0.00    +0.000 A 
ATOM      8  C   UNL     1       1.374   8.352  20.404  0.00  0.00    +0.000 A 
ATOM      9  C   UNL     1       2.257   7.426  19.853  0.00  0.00    +0.000 A 
ATOM     10  C   UNL     1       2.601   7.467  18.499  0.00  0.00    +0.000 A 
ATOM     11  C   UNL     1       2.162   8.560  17.746  0.00  0.00    +0.000 A 
ATOM     12  C   UNL     1       1.335   9.542  18.314  0.00  0.00    +0.000 A 
BRANCH   7  14
ATOM     13  C   UNL     1      -0.064  10.046  21.684  0.00  0.00    +0.000 C 
ATOM     14  O   UNL     1       0.048  10.256  20.280  0.00  0.00    +0.000 OA
ENDBRANCH   7  14
ENDBRANCH   1  10
BRANCH   6  15
ATOM     15  C   UNL     1       5.209   4.412  16.543  0.00  0.00    +0.000 C 
BRANCH  15  16
ATOM     16  C   UNL     1       6.541   4.429  17.294  0.00  0.00    +0.000 C 
ATOM     17  N   UNL     1       6.558   4.198  18.632  0.00  0.00    +0.000 N 
ATOM     18  O   UNL     1       7.601   4.675  16.712  0.00  0.00    +0.000 OA
ATOM     19  H   UNL     1       5.696   4.381  19.147  0.00  0.00    +0.000 HD
ATOM     20  H   UNL     1       7.423   4.395  19.111  0.00  0.00    +0.000 HD
ENDBRANCH  15  16
ENDBRANCH   6  15
TORSDOF 4
ENDMDL
MODEL 7
REMARK VINA RESULT:      -6.4      1.198      1.198
REMARK  Name = 
REMARK  5 active torsions:
REMARK  status: ('A' for Active; 'I' for Inactive)
REMARK    1  A    between atoms: C_1  and  O_2
REMARK    2  A    between atoms: O_2  and  C_3
REMARK    3  A    between atoms: C_6  and  N_7
REMARK    4  A    between atoms: N_12  and  C_13
REMARK    5  A    between atoms: C_13  and  C_14
REMARK                            x       y       z     vdW  Elec       q    Type
REMARK                         _______ _______ _______ _____ _____    ______ ____
ROOT
ATOM      1  N   UNL     1       4.676   3.936  18.342  0.00  0.00    +0.000 NA
ATOM      2  C   UNL     1       3.785   4.719  18.877  0.00  0.00    +0.000 C 
ATOM      3  C   UNL     1       3.300   6.057  18.319  0.00  0.00    +0.000 C 
ATOM      4  C   UNL     1       2.645   6.679  19.545  0.00  0.00    +0.000 C 
ATOM      5  C   UNL     1       2.082   5.478  20.289  0.00  0.00    +0.000 C 
ATOM      6  N   UNL     1       3.112   4.465  20.065  0.00  0.00    +0.000 N 
ENDROOT
BRANCH   1  10
ATOM      7  C   UNL     1       6.952   4.999  14.944  0.00  0.00    +0.000 A 
ATOM      8  C   UNL     1       7.444   5.246  16.221  0.00  0.00    +0.000 A 
ATOM      9  C   UNL     1       6.715   4.847  17.340  0.00  0.00    +0.000 A 
ATOM     10  C   UNL     1       5.428   4.317  17.217  0.00  0.00    +0.000 A 
ATOM     11  C   UNL     1       4.952   4.048  15.930  0.00  0.00    +0.000 A 
ATOM     12  C   UNL     1       5.713   4.374  14.796  0.00  0.00    +0.000 A 
BRANCH   7  14
ATOM     13  C   UNL     1       7.504   4.834  12.664  0.00  0.00    +0.000 C 
ATOM     14  O   UNL     1       7.743   5.448  13.926  0.00  0.00    +0.000 OA
ENDBRANCH   7  14
ENDBRANCH   1  10
BRANCH   6  15
ATOM     15  C   UNL     1       2.855   3.157  20.681  0.00  0.00    +0.000 C 
BRANCH  15  16
ATOM     16  C   UNL     1       1.429   2.829  21.125  0.00  0.00    +0.000 C 
ATOM     17  N   UNL     1       0.421   2.857  20.216  0.00  0.00    +0.000 N 
ATOM     18  O   UNL     1       1.170   2.563  22.302  0.00  0.00    +0.000 OA
ATOM     19  H   UNL     1       0.562   3.431  19.383  0.00  0.00    +0.000 HD
ATOM     20  H   UNL     1      -0.517   2.811  20.582  0.00  0.00    +0.000 HD
ENDBRANCH  15  16
ENDBRANCH   6  15
TORSDOF 4
ENDMDL
MODEL 8
REMARK VINA RESULT:      -6.4      2.424      6.547
REMARK  Name = 
REMARK  5 active torsions:
REMARK  status: ('A' for Active; 'I' for Inactive)
REMARK    1  A    between atoms: C_1  and  O_2
REMARK    2  A    between atoms: O_2  and  C_3
REMARK    3  A    between atoms: C_6  and  N_7
REMARK    4  A    between atoms: N_12  and  C_13
REMARK    5  A    between atoms: C_13  and  C_14
REMARK                            x       y       z     vdW  Elec       q    Type
REMARK                         _______ _______ _______ _____ _____    ______ ____
ROOT
ATOM      1  N   UNL     1       4.180   5.386  17.651  0.00  0.00    +0.000 NA
ATOM      2  C   UNL     1       5.448   5.218  17.885  0.00  0.00    +0.000 C 
ATOM      3  C   UNL     1       6.175   5.506  19.197  0.00  0.00    +0.000 C 
ATOM      4  C   UNL     1       7.626   5.553  18.739  0.00  0.00    +0.000 C 
ATOM      5  C   UNL     1       7.669   4.539  17.606  0.00  0.00    +0.000 C 
ATOM      6  N   UNL     1       6.371   4.739  16.964  0.00  0.00    +0.000 N 
ENDROOT
BRANCH   1  10
ATOM      7  C   UNL     1       1.546   7.224  20.397  0.00  0.00    +0.000 A 
ATOM      8  C   UNL     1       2.070   7.953  19.335  0.00  0.00    +0.000 A 
ATOM      9  C   UNL     1       2.896   7.331  18.402  0.00  0.00    +0.000 A 
ATOM     10  C   UNL     1       3.325   6.013  18.575  0.00  0.00    +0.000 A 
ATOM     11  C   UNL     1       2.773   5.279  19.630  0.00  0.00    +0.000 A 
ATOM     12  C   UNL     1       1.877   5.875  20.532  0.00  0.00    +0.000 A 
BRANCH   7  14
ATOM     13  C   UNL     1       0.713   9.339  20.998  0.00  0.00    +0.000 C 
ATOM     14  O   UNL     1       0.763   7.940  21.256  0.00  0.00    +0.000 OA
ENDBRANCH   7  14
ENDBRANCH   1  10
BRANCH   6  15
ATOM     15  C   UNL     1       6.106   3.886  15.798  0.00  0.00    +0.000 C 
BRANCH  15  16
ATOM     16  C   UNL     1       6.665   4.315  14.440  0.00  0.00    +0.000 C 
ATOM     17  N   UNL     1       6.300   3.636  13.322  0.00  0.00    +0.000 N 
ATOM     18  O   UNL     1       7.463   5.250  14.342  0.00  0.00    +0.000 OA
ATOM     19  H   UNL     1       5.977   2.675  13.445  0.00  0.00    +0.000 HD
ATOM     20  H   UNL     1       6.824   3.834  12.484  0.00  0.00    +0.000 HD
ENDBRANCH  15  16
ENDBRANCH   6  15
TORSDOF 4
ENDMDL
MODEL 9
REMARK VINA RESULT:      -6.3      3.224      6.457
REMARK  Name = 
REMARK  5 active torsions:
REMARK  status: ('A' for Active; 'I' for Inactive)
REMARK    1  A    between atoms: C_1  and  O_2
REMARK    2  A    between atoms: O_2  and  C_3
REMARK    3  A    between atoms: C_6  and  N_7
REMARK    4  A    between atoms: N_12  and  C_13
REMARK    5  A    between atoms: C_13  and  C_14
REMARK                            x       y       z     vdW  Elec       q    Type
REMARK                         _______ _______ _______ _____ _____    ______ ____
ROOT
ATOM      1  N   UNL     1       3.515   6.459  18.047  0.00  0.00    +0.000 NA
ATOM      2  C   UNL     1       3.086   5.249  17.844  0.00  0.00    +0.000 C 
ATOM      3  C   UNL     1       1.639   4.769  17.947  0.00  0.00    +0.000 C 
ATOM      4  C   UNL     1       1.823   3.262  18.050  0.00  0.00    +0.000 C 
ATOM      5  C   UNL     1       3.057   3.000  17.199  0.00  0.00    +0.000 C 
ATOM      6  N   UNL     1       3.885   4.169  17.491  0.00  0.00    +0.000 N 
ENDROOT
BRANCH   1  10
ATOM      7  C   UNL     1       0.942   9.457  19.547  0.00  0.00    +0.000 A 
ATOM      8  C   UNL     1       1.363   9.495  18.222  0.00  0.00    +0.000 A 
ATOM      9  C   UNL     1       2.168   8.478  17.716  0.00  0.00    +0.000 A 
ATOM     10  C   UNL     1       2.680   7.476  18.545  0.00  0.00    +0.000 A 
ATOM     11  C   UNL     1       2.231   7.430  19.869  0.00  0.00    +0.000 A 
ATOM     12  C   UNL     1       1.355   8.408  20.368  0.00  0.00    +0.000 A 
BRANCH   7  14
ATOM     13  C   UNL     1       0.160  10.769  21.336  0.00  0.00    +0.000 C 
ATOM     14  O   UNL     1       0.170  10.514  19.935  0.00  0.00    +0.000 OA
ENDBRANCH   7  14
ENDBRANCH   1  10
BRANCH   6  15
ATOM     15  C   UNL     1       5.184   4.209  16.806  0.00  0.00    +0.000 C 
BRANCH  15  16
ATOM     16  C   UNL     1       6.442   4.443  17.643  0.00  0.00    +0.000 C 
ATOM     17  N   UNL     1       7.628   4.667  17.021  0.00  0.00    +0.000 N 
ATOM     18  O   UNL     1       6.407   4.406  18.876  0.00  0.00    +0.000 OA
ATOM     19  H   UNL     1       7.725   4.321  16.066  0.00  0.00    +0.000 HD
ATOM     20  H   UNL     1       8.452   4.637  17.600  0.00  0.00    +0.000 HD
ENDBRANCH  15  16
ENDBRANCH   6  15
TORSDOF 4
ENDMDL
