MODEL 1
REMARK VINA RESULT:      -6.2      0.000      0.000
REMARK  Name = 
REMARK  3 active torsions:
REMARK  status: ('A' for Active; 'I' for Inactive)
REMARK    1  A    between atoms: C_1  and  N_2
REMARK    2  A    between atoms: C_9  and  C_10
REMARK    3  A    between atoms: C_19  and  C_21
REMARK                            x       y       z     vdW  Elec       q    Type
REMARK                         _______ _______ _______ _____ _____    ______ ____
ROOT
ATOM      1  C   UNL     1      10.696  15.276  17.366  0.00  0.00    +0.000 C 
ATOM      2  N   UNL     1      10.561  14.738  18.726  0.00  0.00    +0.000 NA
ATOM      3  C   UNL     1      11.664  13.852  19.074  0.00  0.00    +0.000 C 
ATOM      4  C   UNL     1      11.686  12.480  18.424  0.00  0.00    +0.000 C 
ATOM      5  C   UNL     1      10.824  11.479  19.173  0.00  0.00    +0.000 C 
ATOM      6  C   UNL     1       9.338  11.758  19.043  0.00  0.00    +0.000 C 
ATOM      7  C   UNL     1       8.788  13.001  19.780  0.00  0.00    +0.000 C 
ATOM      8  C   UNL     1       9.161  14.316  18.988  0.00  0.00    +0.000 C 
ATOM      9  C   UNL     1       8.440  15.539  19.634  0.00  0.00    +0.000 C 
ATOM     10  C   UNL     1       8.816  15.628  21.113  0.00  0.00    +0.000 C 
ATOM     11  C   UNL     1       8.552  14.362  21.893  0.00  0.00    +0.000 C 
ATOM     12  N   UNL     1       8.877  13.076  21.269  0.00  0.00    +0.000 N 
ATOM     13  C   UNL     1       8.592  11.890  22.028  0.00  0.00    +0.000 C 
ATOM     14  O   UNL     1       8.905  10.764  21.650  0.00  0.00    +0.000 OA
ENDROOT
BRANCH   9  15
ATOM     15  C   UNL     1       6.970  15.556  19.200  0.00  0.00    +0.000 A 
ATOM     16  C   UNL     1       6.448  14.863  18.101  0.00  0.00    +0.000 A 
ATOM     17  C   UNL     1       5.154  15.118  17.638  0.00  0.00    +0.000 A 
ATOM     18  C   UNL     1       4.350  16.053  18.277  0.00  0.00    +0.000 A 
ATOM     19  C   UNL     1       4.829  16.716  19.401  0.00  0.00    +0.000 A 
ATOM     20  C   UNL     1       6.122  16.466  19.858  0.00  0.00    +0.000 A 
ENDBRANCH   9  15
BRANCH  13  21
ATOM     21  C   UNL     1       7.870  11.960  23.355  0.00  0.00    +0.000 A 
ATOM     22  C   UNL     1       6.485  11.892  23.399  0.00  0.00    +0.000 A 
ATOM     23  N   UNL     1       5.780  11.950  24.566  0.00  0.00    +0.000 NA
ATOM     24  C   UNL     1       6.517  12.110  25.688  0.00  0.00    +0.000 A 
ATOM     25  C   UNL     1       7.891  12.226  25.653  0.00  0.00    +0.000 A 
ATOM     26  N   UNL     1       8.587  12.169  24.494  0.00  0.00    +0.000 NA
ENDBRANCH  13  21
TORSDOF 2
ENDMDL
MODEL 2
REMARK VINA RESULT:      -6.2      0.499      1.049
REMARK  Name = 
REMARK  3 active torsions:
REMARK  status: ('A' for Active; 'I' for Inactive)
REMARK    1  A    between atoms: C_1  and  N_2
REMARK    2  A    between atoms: C_9  and  C_10
REMARK    3  A    between atoms: C_19  and  C_21
REMARK                            x       y       z     vdW  Elec       q    Type
REMARK                         _______ _______ _______ _____ _____    ______ ____
ROOT
ATOM      1  C   UNL     1      11.166  15.184  17.883  0.00  0.00    +0.000 C 
ATOM      2  N   UNL     1      10.899  14.638  19.220  0.00  0.00    +0.000 NA
ATOM      3  C   UNL     1      11.935  13.704  19.644  0.00  0.00    +0.000 C 
ATOM      4  C   UNL     1      11.955  12.339  18.979  0.00  0.00    +0.000 C 
ATOM      5  C   UNL     1      10.996  11.366  19.642  0.00  0.00    +0.000 C 
ATOM      6  C   UNL     1       9.538  11.707  19.396  0.00  0.00    +0.000 C 
ATOM      7  C   UNL     1       8.979  12.964  20.103  0.00  0.00    +0.000 C 
ATOM      8  C   UNL     1       9.467  14.271  19.363  0.00  0.00    +0.000 C 
ATOM      9  C   UNL     1       8.745  15.514  19.964  0.00  0.00    +0.000 C 
ATOM     10  C   UNL     1       9.002  15.573  21.470  0.00  0.00    +0.000 C 
ATOM     11  C   UNL     1       8.626  14.311  22.209  0.00  0.00    +0.000 C 
ATOM     12  N   UNL     1       8.950  13.019  21.595  0.00  0.00    +0.000 N 
ATOM     13  C   UNL     1       8.557  11.838  22.312  0.00  0.00    +0.000 C 
ATOM     14  O   UNL     1       8.855  10.704  21.946  0.00  0.00    +0.000 OA
ENDROOT
BRANCH   9  15
ATOM     15  C   UNL     1       7.317  15.596  19.414  0.00  0.00    +0.000 A 
ATOM     16  C   UNL     1       6.220  16.131  20.101  0.00  0.00    +0.000 A 
ATOM     17  C   UNL     1       4.917  15.955  19.626  0.00  0.00    +0.000 A 
ATOM     18  C   UNL     1       4.687  15.259  18.446  0.00  0.00    +0.000 A 
ATOM     19  C   UNL     1       5.765  14.763  17.721  0.00  0.00    +0.000 A 
ATOM     20  C   UNL     1       7.063  14.934  18.198  0.00  0.00    +0.000 A 
ENDBRANCH   9  15
BRANCH  13  21
ATOM     21  C   UNL     1       7.733  11.924  23.578  0.00  0.00    +0.000 A 
ATOM     22  C   UNL     1       6.349  11.872  23.512  0.00  0.00    +0.000 A 
ATOM     23  N   UNL     1       5.553  11.946  24.619  0.00  0.00    +0.000 NA
ATOM     24  C   UNL     1       6.201  12.102  25.795  0.00  0.00    +0.000 A 
ATOM     25  C   UNL     1       7.575  12.201  25.869  0.00  0.00    +0.000 A 
ATOM     26  N   UNL     1       8.360  12.130  24.770  0.00  0.00    +0.000 NA
ENDBRANCH  13  21
TORSDOF 2
ENDMDL
MODEL 3
REMARK VINA RESULT:      -6.1      9.413     12.556
REMARK  Name = 
REMARK  3 active torsions:
REMARK  status: ('A' for Active; 'I' for Inactive)
REMARK    1  A    between atoms: C_1  and  N_2
REMARK    2  A    between atoms: C_9  and  C_10
REMARK    3  A    between atoms: C_19  and  C_21
REMARK                            x       y       z     vdW  Elec       q    Type
REMARK                         _______ _______ _______ _____ _____    ______ ____
ROOT
ATOM      1  C   UNL     1      -2.001  15.298  23.296  0.00  0.00    +0.000 C 
ATOM      2  N   UNL     1      -2.382  14.891  21.936  0.00  0.00    +0.000 NA
ATOM      3  C   UNL     1      -3.591  15.568  21.484  0.00  0.00    +0.000 C 
ATOM      4  C   UNL     1      -4.908  15.125  22.095  0.00  0.00    +0.000 C 
ATOM      5  C   UNL     1      -5.486  13.911  21.388  0.00  0.00    +0.000 C 
ATOM      6  C   UNL     1      -4.690  12.642  21.638  0.00  0.00    +0.000 C 
ATOM      7  C   UNL     1      -3.296  12.543  20.977  0.00  0.00    +0.000 C 
ATOM      8  C   UNL     1      -2.250  13.420  21.771  0.00  0.00    +0.000 C 
ATOM      9  C   UNL     1      -0.818  13.161  21.213  0.00  0.00    +0.000 C 
ATOM     10  C   UNL     1      -0.795  13.452  19.712  0.00  0.00    +0.000 C 
ATOM     11  C   UNL     1      -1.836  12.694  18.923  0.00  0.00    +0.000 C 
ATOM     12  N   UNL     1      -3.183  12.562  19.488  0.00  0.00    +0.000 N 
ATOM     13  C   UNL     1      -4.142  11.815  18.723  0.00  0.00    +0.000 C 
ATOM     14  O   UNL     1      -5.323  11.715  19.047  0.00  0.00    +0.000 OA
ENDROOT
BRANCH   9  15
ATOM     15  C   UNL     1      -0.288  11.830  21.757  0.00  0.00    +0.000 A 
ATOM     16  C   UNL     1       0.672  11.029  21.127  0.00  0.00    +0.000 A 
ATOM     17  C   UNL     1       0.926   9.727  21.566  0.00  0.00    +0.000 A 
ATOM     18  C   UNL     1       0.240   9.208  22.658  0.00  0.00    +0.000 A 
ATOM     19  C   UNL     1      -0.681  10.002  23.330  0.00  0.00    +0.000 A 
ATOM     20  C   UNL     1      -0.937  11.298  22.887  0.00  0.00    +0.000 A 
ENDBRANCH   9  15
BRANCH  13  21
ATOM     21  C   UNL     1      -3.745  11.089  17.456  0.00  0.00    +0.000 A 
ATOM     22  C   UNL     1      -2.861  10.023  17.513  0.00  0.00    +0.000 A 
ATOM     23  N   UNL     1      -2.466   9.331  16.404  0.00  0.00    +0.000 NA
ATOM     24  C   UNL     1      -2.972   9.770  15.230  0.00  0.00    +0.000 A 
ATOM     25  C   UNL     1      -3.815  10.859  15.155  0.00  0.00    +0.000 A 
ATOM     26  N   UNL     1      -4.203  11.543  16.256  0.00  0.00    +0.000 NA
ENDBRANCH  13  21
TORSDOF 2
ENDMDL
MODEL 4
REMARK VINA RESULT:      -6.1      8.871     11.473
REMARK  Name = 
REMARK  3 active torsions:
REMARK  status: ('A' for Active; 'I' for Inactive)
REMARK    1  A    between atoms: C_1  and  N_2
REMARK    2  A    between atoms: C_9  and  C_10
REMARK    3  A    between atoms: C_19  and  C_21
REMARK                            x       y       z     vdW  Elec       q    Type
REMARK                         _______ _______ _______ _____ _____    ______ ____
ROOT
ATOM      1  C   UNL     1       1.761  12.432  19.832  0.00  0.00    +0.000 C 
ATOM      2  N   UNL     1       0.377  12.111  20.207  0.00  0.00    +0.000 NA
ATOM      3  C   UNL     1       0.092  10.688  20.069  0.00  0.00    +0.000 C 
ATOM      4  C   UNL     1      -0.054  10.141  18.660  0.00  0.00    +0.000 C 
ATOM      5  C   UNL     1      -1.458  10.337  18.115  0.00  0.00    +0.000 C 
ATOM      6  C   UNL     1      -1.785  11.789  17.820  0.00  0.00    +0.000 C 
ATOM      7  C   UNL     1      -1.970  12.730  19.033  0.00  0.00    +0.000 C 
ATOM      8  C   UNL     1      -0.567  13.113  19.648  0.00  0.00    +0.000 C 
ATOM      9  C   UNL     1      -0.754  14.208  20.742  0.00  0.00    +0.000 C 
ATOM     10  C   UNL     1      -1.732  13.703  21.804  0.00  0.00    +0.000 C 
ATOM     11  C   UNL     1      -3.062  13.248  21.250  0.00  0.00    +0.000 C 
ATOM     12  N   UNL     1      -3.072  12.470  20.007  0.00  0.00    +0.000 N 
ATOM     13  C   UNL     1      -4.353  12.073  19.495  0.00  0.00    +0.000 C 
ATOM     14  O   UNL     1      -4.485  11.342  18.517  0.00  0.00    +0.000 OA
ENDROOT
BRANCH   9  15
ATOM     15  C   UNL     1      -0.964  15.571  20.074  0.00  0.00    +0.000 A 
ATOM     16  C   UNL     1      -1.983  16.475  20.396  0.00  0.00    +0.000 A 
ATOM     17  C   UNL     1      -2.245  17.584  19.586  0.00  0.00    +0.000 A 
ATOM     18  C   UNL     1      -1.479  17.821  18.451  0.00  0.00    +0.000 A 
ATOM     19  C   UNL     1      -0.429  16.965  18.141  0.00  0.00    +0.000 A 
ATOM     20  C   UNL     1      -0.173  15.857  18.945  0.00  0.00    +0.000 A 
ENDBRANCH   9  15
BRANCH  13  21
ATOM     21  C   UNL     1      -5.638  12.548  20.137  0.00  0.00    +0.000 A 
ATOM     22  C   UNL     1      -6.246  13.715  19.699  0.00  0.00    +0.000 A 
ATOM     23  N   UNL     1      -7.404  14.192  20.240  0.00  0.00    +0.000 NA
ATOM     24  C   UNL     1      -7.916  13.467  21.259  0.00  0.00    +0.000 A 
ATOM     25  C   UNL     1      -7.297  12.330  21.735  0.00  0.00    +0.000 A 
ATOM     26  N   UNL     1      -6.148  11.860  21.197  0.00  0.00    +0.000 NA
ENDBRANCH  13  21
TORSDOF 2
ENDMDL
MODEL 5
REMARK VINA RESULT:      -6.0      8.161     10.773
REMARK  Name = 
REMARK  3 active torsions:
REMARK  status: ('A' for Active; 'I' for Inactive)
REMARK    1  A    between atoms: C_1  and  N_2
REMARK    2  A    between atoms: C_9  and  C_10
REMARK    3  A    between atoms: C_19  and  C_21
REMARK                            x       y       z     vdW  Elec       q    Type
REMARK                         _______ _______ _______ _____ _____    ______ ____
ROOT
ATOM      1  C   UNL     1       1.655  13.521  18.229  0.00  0.00    +0.000 C 
ATOM      2  N   UNL     1       0.378  13.843  18.880  0.00  0.00    +0.000 NA
ATOM      3  C   UNL     1       0.155  15.282  18.960  0.00  0.00    +0.000 C 
ATOM      4  C   UNL     1       0.982  16.059  19.968  0.00  0.00    +0.000 C 
ATOM      5  C   UNL     1       0.370  16.024  21.358  0.00  0.00    +0.000 C 
ATOM      6  C   UNL     1       0.457  14.656  22.012  0.00  0.00    +0.000 C 
ATOM      7  C   UNL     1      -0.440  13.539  21.431  0.00  0.00    +0.000 C 
ATOM      8  C   UNL     1       0.170  12.993  20.080  0.00  0.00    +0.000 C 
ATOM      9  C   UNL     1      -0.635  11.744  19.609  0.00  0.00    +0.000 C 
ATOM     10  C   UNL     1      -2.112  12.114  19.468  0.00  0.00    +0.000 C 
ATOM     11  C   UNL     1      -2.717  12.717  20.714  0.00  0.00    +0.000 C 
ATOM     12  N   UNL     1      -1.925  13.689  21.475  0.00  0.00    +0.000 N 
ATOM     13  C   UNL     1      -2.521  14.226  22.667  0.00  0.00    +0.000 C 
ATOM     14  O   UNL     1      -1.995  15.113  23.334  0.00  0.00    +0.000 OA
ENDROOT
BRANCH   9  15
ATOM     15  C   UNL     1      -0.212  10.521  20.429  0.00  0.00    +0.000 A 
ATOM     16  C   UNL     1      -0.487  10.331  21.789  0.00  0.00    +0.000 A 
ATOM     17  C   UNL     1       0.132   9.308  22.513  0.00  0.00    +0.000 A 
ATOM     18  C   UNL     1       1.020   8.442  21.887  0.00  0.00    +0.000 A 
ATOM     19  C   UNL     1       1.269   8.580  20.526  0.00  0.00    +0.000 A 
ATOM     20  C   UNL     1       0.656   9.604  19.807  0.00  0.00    +0.000 A 
ENDBRANCH   9  15
BRANCH  13  21
ATOM     21  C   UNL     1      -3.847  13.715  23.183  0.00  0.00    +0.000 A 
ATOM     22  C   UNL     1      -3.884  12.692  24.119  0.00  0.00    +0.000 A 
ATOM     23  N   UNL     1      -5.050  12.190  24.619  0.00  0.00    +0.000 NA
ATOM     24  C   UNL     1      -6.183  12.736  24.122  0.00  0.00    +0.000 A 
ATOM     25  C   UNL     1      -6.161  13.720  23.157  0.00  0.00    +0.000 A 
ATOM     26  N   UNL     1      -5.003  14.214  22.661  0.00  0.00    +0.000 NA
ENDBRANCH  13  21
TORSDOF 2
ENDMDL
MODEL 6
REMARK VINA RESULT:      -6.0      9.659     12.447
REMARK  Name = 
REMARK  3 active torsions:
REMARK  status: ('A' for Active; 'I' for Inactive)
REMARK    1  A    between atoms: C_1  and  N_2
REMARK    2  A    between atoms: C_9  and  C_10
REMARK    3  A    between atoms: C_19  and  C_21
REMARK                            x       y       z     vdW  Elec       q    Type
REMARK                         _______ _______ _______ _____ _____    ______ ____
ROOT
ATOM      1  C   UNL     1      -5.546  16.746  24.263  0.00  0.00    +0.000 C 
ATOM      2  N   UNL     1      -4.515  15.701  24.333  0.00  0.00    +0.000 NA
ATOM      3  C   UNL     1      -3.350  16.135  25.095  0.00  0.00    +0.000 C 
ATOM      4  C   UNL     1      -2.427  17.145  24.437  0.00  0.00    +0.000 C 
ATOM      5  C   UNL     1      -1.413  16.481  23.522  0.00  0.00    +0.000 C 
ATOM      6  C   UNL     1      -2.035  15.903  22.264  0.00  0.00    +0.000 C 
ATOM      7  C   UNL     1      -2.923  14.648  22.430  0.00  0.00    +0.000 C 
ATOM      8  C   UNL     1      -4.336  15.050  23.010  0.00  0.00    +0.000 C 
ATOM      9  C   UNL     1      -5.282  13.811  22.991  0.00  0.00    +0.000 C 
ATOM     10  C   UNL     1      -4.638  12.667  23.775  0.00  0.00    +0.000 C 
ATOM     11  C   UNL     1      -3.250  12.303  23.305  0.00  0.00    +0.000 C 
ATOM     12  N   UNL     1      -2.324  13.385  22.956  0.00  0.00    +0.000 N 
ATOM     13  C   UNL     1      -1.020  13.005  22.491  0.00  0.00    +0.000 C 
ATOM     14  O   UNL     1      -0.130  13.819  22.258  0.00  0.00    +0.000 OA
ENDROOT
BRANCH   9  15
ATOM     15  C   UNL     1      -5.802  13.585  21.568  0.00  0.00    +0.000 A 
ATOM     16  C   UNL     1      -5.909  14.575  20.583  0.00  0.00    +0.000 A 
ATOM     17  C   UNL     1      -6.608  14.339  19.396  0.00  0.00    +0.000 A 
ATOM     18  C   UNL     1      -7.196  13.103  19.161  0.00  0.00    +0.000 A 
ATOM     19  C   UNL     1      -7.060  12.088  20.102  0.00  0.00    +0.000 A 
ATOM     20  C   UNL     1      -6.368  12.327  21.288  0.00  0.00    +0.000 A 
ENDBRANCH   9  15
BRANCH  13  21
ATOM     21  C   UNL     1      -0.663  11.555  22.248  0.00  0.00    +0.000 A 
ATOM     22  C   UNL     1      -0.686  11.038  20.962  0.00  0.00    +0.000 A 
ATOM     23  N   UNL     1      -0.374   9.739  20.682  0.00  0.00    +0.000 NA
ATOM     24  C   UNL     1      -0.066   8.969  21.750  0.00  0.00    +0.000 A 
ATOM     25  C   UNL     1      -0.085   9.459  23.039  0.00  0.00    +0.000 A 
ATOM     26  N   UNL     1      -0.396  10.747  23.312  0.00  0.00    +0.000 NA
ENDBRANCH  13  21
TORSDOF 2
ENDMDL
MODEL 7
REMARK VINA RESULT:      -6.0      9.292     12.354
REMARK  Name = 
REMARK  3 active torsions:
REMARK  status: ('A' for Active; 'I' for Inactive)
REMARK    1  A    between atoms: C_1  and  N_2
REMARK    2  A    between atoms: C_9  and  C_10
REMARK    3  A    between atoms: C_19  and  C_21
REMARK                            x       y       z     vdW  Elec       q    Type
REMARK                         _______ _______ _______ _____ _____    ______ ____
ROOT
ATOM      1  C   UNL     1      -1.434  15.194  23.123  0.00  0.00    +0.000 C 
ATOM      2  N   UNL     1      -1.859  14.813  21.769  0.00  0.00    +0.000 NA
ATOM      3  C   UNL     1      -3.000  15.599  21.315  0.00  0.00    +0.000 C 
ATOM      4  C   UNL     1      -4.350  15.288  21.937  0.00  0.00    +0.000 C 
ATOM      5  C   UNL     1      -5.045  14.129  21.244  0.00  0.00    +0.000 C 
ATOM      6  C   UNL     1      -4.373  12.792  21.502  0.00  0.00    +0.000 C 
ATOM      7  C   UNL     1      -2.998  12.555  20.835  0.00  0.00    +0.000 C 
ATOM      8  C   UNL     1      -1.869  13.335  21.616  0.00  0.00    +0.000 C 
ATOM      9  C   UNL     1      -0.471  12.935  21.055  0.00  0.00    +0.000 C 
ATOM     10  C   UNL     1      -0.429  13.209  19.551  0.00  0.00    +0.000 C 
ATOM     11  C   UNL     1      -1.541  12.547  18.774  0.00  0.00    +0.000 C 
ATOM     12  N   UNL     1      -2.891  12.549  19.346  0.00  0.00    +0.000 N 
ATOM     13  C   UNL     1      -3.921  11.891  18.592  0.00  0.00    +0.000 C 
ATOM     14  O   UNL     1      -5.105  11.907  18.922  0.00  0.00    +0.000 OA
ENDROOT
BRANCH   9  15
ATOM     15  C   UNL     1      -0.068  11.565  21.609  0.00  0.00    +0.000 A 
ATOM     16  C   UNL     1       0.757  10.643  20.952  0.00  0.00    +0.000 A 
ATOM     17  C   UNL     1       0.884   9.331  21.416  0.00  0.00    +0.000 A 
ATOM     18  C   UNL     1       0.206   8.920  22.557  0.00  0.00    +0.000 A 
ATOM     19  C   UNL     1      -0.579   9.832  23.254  0.00  0.00    +0.000 A 
ATOM     20  C   UNL     1      -0.709  11.138  22.787  0.00  0.00    +0.000 A 
ENDBRANCH   9  15
BRANCH  13  21
ATOM     21  C   UNL     1      -3.603  11.119  17.331  0.00  0.00    +0.000 A 
ATOM     22  C   UNL     1      -4.056  11.574  16.102  0.00  0.00    +0.000 A 
ATOM     23  N   UNL     1      -3.800  10.920  14.932  0.00  0.00    +0.000 NA
ATOM     24  C   UNL     1      -3.095   9.772  15.046  0.00  0.00    +0.000 A 
ATOM     25  C   UNL     1      -2.678   9.285  16.267  0.00  0.00    +0.000 A 
ATOM     26  N   UNL     1      -2.935   9.935  17.425  0.00  0.00    +0.000 NA
ENDBRANCH  13  21
TORSDOF 2
ENDMDL
MODEL 8
REMARK VINA RESULT:      -6.0      9.361     12.585
REMARK  Name = 
REMARK  3 active torsions:
REMARK  status: ('A' for Active; 'I' for Inactive)
REMARK    1  A    between atoms: C_1  and  N_2
REMARK    2  A    between atoms: C_9  and  C_10
REMARK    3  A    between atoms: C_19  and  C_21
REMARK                            x       y       z     vdW  Elec       q    Type
REMARK                         _______ _______ _______ _____ _____    ______ ____
ROOT
ATOM      1  C   UNL     1      -1.915  14.953  23.425  0.00  0.00    +0.000 C 
ATOM      2  N   UNL     1      -2.266  14.634  22.035  0.00  0.00    +0.000 NA
ATOM      3  C   UNL     1      -3.401  15.419  21.566  0.00  0.00    +0.000 C 
ATOM      4  C   UNL     1      -4.772  15.052  22.104  0.00  0.00    +0.000 C 
ATOM      5  C   UNL     1      -5.408  13.916  21.321  0.00  0.00    +0.000 C 
ATOM      6  C   UNL     1      -4.720  12.581  21.544  0.00  0.00    +0.000 C 
ATOM      7  C   UNL     1      -3.310  12.404  20.935  0.00  0.00    +0.000 C 
ATOM      8  C   UNL     1      -2.237  13.166  21.808  0.00  0.00    +0.000 C 
ATOM      9  C   UNL     1      -0.805  12.822  21.297  0.00  0.00    +0.000 C 
ATOM     10  C   UNL     1      -0.697  13.173  19.813  0.00  0.00    +0.000 C 
ATOM     11  C   UNL     1      -1.756  12.530  18.949  0.00  0.00    +0.000 C 
ATOM     12  N   UNL     1      -3.132  12.477  19.454  0.00  0.00    +0.000 N 
ATOM     13  C   UNL     1      -4.110  11.839  18.619  0.00  0.00    +0.000 C 
ATOM     14  O   UNL     1      -5.308  11.815  18.891  0.00  0.00    +0.000 OA
ENDROOT
BRANCH   9  15
ATOM     15  C   UNL     1      -0.399  11.433  21.801  0.00  0.00    +0.000 A 
ATOM     16  C   UNL     1      -0.856  10.842  22.985  0.00  0.00    +0.000 A 
ATOM     17  C   UNL     1      -0.262   9.681  23.488  0.00  0.00    +0.000 A 
ATOM     18  C   UNL     1       0.787   9.077  22.805  0.00  0.00    +0.000 A 
ATOM     19  C   UNL     1       1.224   9.618  21.601  0.00  0.00    +0.000 A 
ATOM     20  C   UNL     1       0.634  10.778  21.105  0.00  0.00    +0.000 A 
ENDBRANCH   9  15
BRANCH  13  21
ATOM     21  C   UNL     1      -3.714  11.138  17.337  0.00  0.00    +0.000 A 
ATOM     22  C   UNL     1      -4.127  11.641  16.113  0.00  0.00    +0.000 A 
ATOM     23  N   UNL     1      -3.802  11.052  14.925  0.00  0.00    +0.000 NA
ATOM     24  C   UNL     1      -3.068   9.920  15.016  0.00  0.00    +0.000 A 
ATOM     25  C   UNL     1      -2.691   9.384  16.229  0.00  0.00    +0.000 A 
ATOM     26  N   UNL     1      -3.017   9.970  17.404  0.00  0.00    +0.000 NA
ENDBRANCH  13  21
TORSDOF 2
ENDMDL
MODEL 9
REMARK VINA RESULT:      -5.9      8.934     11.502
REMARK  Name = 
REMARK  3 active torsions:
REMARK  status: ('A' for Active; 'I' for Inactive)
REMARK    1  A    between atoms: C_1  and  N_2
REMARK    2  A    between atoms: C_9  and  C_10
REMARK    3  A    between atoms: C_19  and  C_21
REMARK                            x       y       z     vdW  Elec       q    Type
REMARK                         _______ _______ _______ _____ _____    ______ ____
ROOT
ATOM      1  C   UNL     1       1.687  11.985  19.225  0.00  0.00    +0.000 C 
ATOM      2  N   UNL     1       0.313  11.704  19.663  0.00  0.00    +0.000 NA
ATOM      3  C   UNL     1      -0.029  10.296  19.511  0.00  0.00    +0.000 C 
ATOM      4  C   UNL     1      -0.266   9.786  18.101  0.00  0.00    +0.000 C 
ATOM      5  C   UNL     1      -1.688  10.043  17.632  0.00  0.00    +0.000 C 
ATOM      6  C   UNL     1      -1.977  11.512  17.384  0.00  0.00    +0.000 C 
ATOM      7  C   UNL     1      -2.066  12.432  18.624  0.00  0.00    +0.000 C 
ATOM      8  C   UNL     1      -0.620  12.751  19.174  0.00  0.00    +0.000 C 
ATOM      9  C   UNL     1      -0.713  13.827  20.298  0.00  0.00    +0.000 C 
ATOM     10  C   UNL     1      -1.654  13.334  21.398  0.00  0.00    +0.000 C 
ATOM     11  C   UNL     1      -3.025  12.938  20.904  0.00  0.00    +0.000 C 
ATOM     12  N   UNL     1      -3.126  12.188  19.648  0.00  0.00    +0.000 N 
ATOM     13  C   UNL     1      -4.445  11.848  19.194  0.00  0.00    +0.000 C 
ATOM     14  O   UNL     1      -4.652  11.144  18.208  0.00  0.00    +0.000 OA
ENDROOT
BRANCH   9  15
ATOM     15  C   UNL     1      -0.906  15.211  19.670  0.00  0.00    +0.000 A 
ATOM     16  C   UNL     1      -0.196  15.700  18.566  0.00  0.00    +0.000 A 
ATOM     17  C   UNL     1      -0.264  17.048  18.205  0.00  0.00    +0.000 A 
ATOM     18  C   UNL     1      -1.060  17.930  18.926  0.00  0.00    +0.000 A 
ATOM     19  C   UNL     1      -1.813  17.457  19.994  0.00  0.00    +0.000 A 
ATOM     20  C   UNL     1      -1.739  16.114  20.358  0.00  0.00    +0.000 A 
ENDBRANCH   9  15
BRANCH  13  21
ATOM     21  C   UNL     1      -5.678  12.354  19.910  0.00  0.00    +0.000 A 
ATOM     22  C   UNL     1      -6.144  13.638  19.674  0.00  0.00    +0.000 A 
ATOM     23  N   UNL     1      -7.249  14.148  20.290  0.00  0.00    +0.000 NA
ATOM     24  C   UNL     1      -7.855  13.327  21.177  0.00  0.00    +0.000 A 
ATOM     25  C   UNL     1      -7.375  12.065  21.455  0.00  0.00    +0.000 A 
ATOM     26  N   UNL     1      -6.278  11.563  20.843  0.00  0.00    +0.000 NA
ENDBRANCH  13  21
TORSDOF 2
ENDMDL
