MODEL 1
REMARK VINA RESULT:      -7.2      0.000      0.000
REMARK  Name = 
REMARK  7 active torsions:
REMARK  status: ('A' for Active; 'I' for Inactive)
REMARK    1  A    between atoms: C_1  and  O_2
REMARK    2  A    between atoms: O_2  and  C_3
REMARK    3  A    between atoms: C_5  and  C_6
REMARK    4  A    between atoms: C_6  and  N_7
REMARK    5  A    between atoms: N_7  and  C_8
REMARK    6  A    between atoms: N_7  and  C_9
REMARK    7  A    between atoms: C_9  and  C_10
REMARK                            x       y       z     vdW  Elec       q    Type
REMARK                         _______ _______ _______ _____ _____    ______ ____
ROOT
ATOM      1  C   UNL     1       2.785   5.498  19.921  0.00  0.00    +0.000 A 
ATOM      2  C   UNL     1       3.638   4.611  19.245  0.00  0.00    +0.000 A 
ATOM      3  C   UNL     1       4.190   4.943  17.999  0.00  0.00    +0.000 A 
ATOM      4  C   UNL     1       3.865   6.166  17.416  0.00  0.00    +0.000 A 
ATOM      5  C   UNL     1       3.051   7.070  18.099  0.00  0.00    +0.000 A 
ATOM      6  N   UNL     1       2.810   8.308  17.495  0.00  0.00    +0.000 N 
ATOM      7  C   UNL     1       2.081   9.300  18.073  0.00  0.00    +0.000 A 
ATOM      8  O   UNL     1       1.922  10.380  17.502  0.00  0.00    +0.000 OA
ATOM      9  C   UNL     1       1.500   9.021  19.405  0.00  0.00    +0.000 A 
ATOM     10  C   UNL     1       1.689   7.833  20.014  0.00  0.00    +0.000 A 
ATOM     11  C   UNL     1       2.505   6.769  19.361  0.00  0.00    +0.000 A 
ATOM     12  N   UNL     1       1.130   7.598  21.263  0.00  0.00    +0.000 N 
ATOM     13  C   UNL     1       0.039   8.411  21.762  0.00  0.00    +0.000 C 
ATOM     14  C   UNL     1       0.382   9.875  21.518  0.00  0.00    +0.000 C 
ATOM     15  C   UNL     1       0.687  10.123  20.035  0.00  0.00    +0.000 C 
ATOM     16  H   UNL     1       3.205   8.527  16.591  0.00  0.00    +0.000 HD
ATOM     17  H   UNL     1       1.103   6.607  21.508  0.00  0.00    +0.000 HD
ENDROOT
BRANCH   1  19
ATOM     18  C   UNL     1       2.129   3.786  21.456  0.00  0.00    +0.000 C 
ATOM     19  O   UNL     1       2.154   5.162  21.095  0.00  0.00    +0.000 OA
ENDBRANCH   1  19
BRANCH   3  20
ATOM     20  C   UNL     1       5.175   4.024  17.312  0.00  0.00    +0.000 C 
BRANCH  20  21
ATOM     21  N   UNL     1       6.340   4.702  16.718  0.00  0.00    +0.000 NA
ATOM     22  C   UNL     1       7.513   4.614  17.603  0.00  0.00    +0.000 C 
BRANCH  21  23
ATOM     23  C   UNL     1       6.685   4.094  15.408  0.00  0.00    +0.000 C 
BRANCH  23  24
ATOM     24  C   UNL     1       5.661   4.359  14.296  0.00  0.00    +0.000 C 
ATOM     25 CL   UNL     1       6.140   3.532  12.792  0.00  0.00    +0.000 Cl
ENDBRANCH  23  24
ENDBRANCH  21  23
ENDBRANCH  20  21
ENDBRANCH   3  20
TORSDOF 5
ENDMDL
MODEL 2
REMARK VINA RESULT:      -7.1      2.586      4.795
REMARK  Name = 
REMARK  7 active torsions:
REMARK  status: ('A' for Active; 'I' for Inactive)
REMARK    1  A    between atoms: C_1  and  O_2
REMARK    2  A    between atoms: O_2  and  C_3
REMARK    3  A    between atoms: C_5  and  C_6
REMARK    4  A    between atoms: C_6  and  N_7
REMARK    5  A    between atoms: N_7  and  C_8
REMARK    6  A    between atoms: N_7  and  C_9
REMARK    7  A    between atoms: C_9  and  C_10
REMARK                            x       y       z     vdW  Elec       q    Type
REMARK                         _______ _______ _______ _____ _____    ______ ____
ROOT
ATOM      1  C   UNL     1       3.949   5.775  17.409  0.00  0.00    +0.000 A 
ATOM      2  C   UNL     1       4.959   6.052  16.473  0.00  0.00    +0.000 A 
ATOM      3  C   UNL     1       6.159   5.325  16.465  0.00  0.00    +0.000 A 
ATOM      4  C   UNL     1       6.355   4.327  17.418  0.00  0.00    +0.000 A 
ATOM      5  C   UNL     1       5.341   4.018  18.324  0.00  0.00    +0.000 A 
ATOM      6  N   UNL     1       5.568   2.965  19.215  0.00  0.00    +0.000 N 
ATOM      7  C   UNL     1       4.646   2.524  20.113  0.00  0.00    +0.000 A 
ATOM      8  O   UNL     1       4.895   1.575  20.858  0.00  0.00    +0.000 OA
ATOM      9  C   UNL     1       3.347   3.231  20.146  0.00  0.00    +0.000 A 
ATOM     10  C   UNL     1       3.093   4.265  19.320  0.00  0.00    +0.000 A 
ATOM     11  C   UNL     1       4.119   4.717  18.336  0.00  0.00    +0.000 A 
ATOM     12  N   UNL     1       1.866   4.911  19.374  0.00  0.00    +0.000 N 
ATOM     13  C   UNL     1       1.001   4.785  20.531  0.00  0.00    +0.000 C 
ATOM     14  C   UNL     1       0.929   3.312  20.916  0.00  0.00    +0.000 C 
ATOM     15  C   UNL     1       2.333   2.741  21.148  0.00  0.00    +0.000 C 
ATOM     16  H   UNL     1       6.443   2.460  19.204  0.00  0.00    +0.000 HD
ATOM     17  H   UNL     1       1.873   5.823  18.914  0.00  0.00    +0.000 HD
ENDROOT
BRANCH   1  19
ATOM     18  C   UNL     1       2.956   7.916  17.794  0.00  0.00    +0.000 C 
ATOM     19  O   UNL     1       2.805   6.532  17.502  0.00  0.00    +0.000 OA
ENDBRANCH   1  19
BRANCH   3  20
ATOM     20  C   UNL     1       7.210   5.567  15.406  0.00  0.00    +0.000 C 
BRANCH  20  21
ATOM     21  N   UNL     1       6.764   5.312  14.025  0.00  0.00    +0.000 NA
ATOM     22  C   UNL     1       7.890   5.389  13.081  0.00  0.00    +0.000 C 
BRANCH  21  23
ATOM     23  C   UNL     1       6.143   3.968  13.917  0.00  0.00    +0.000 C 
BRANCH  23  24
ATOM     24  C   UNL     1       6.200   3.353  12.512  0.00  0.00    +0.000 C 
ATOM     25 CL   UNL     1       4.581   3.337  11.768  0.00  0.00    +0.000 Cl
ENDBRANCH  23  24
ENDBRANCH  21  23
ENDBRANCH  20  21
ENDBRANCH   3  20
TORSDOF 5
ENDMDL
MODEL 3
REMARK VINA RESULT:      -6.9      1.884      2.370
REMARK  Name = 
REMARK  7 active torsions:
REMARK  status: ('A' for Active; 'I' for Inactive)
REMARK    1  A    between atoms: C_1  and  O_2
REMARK    2  A    between atoms: O_2  and  C_3
REMARK    3  A    between atoms: C_5  and  C_6
REMARK    4  A    between atoms: C_6  and  N_7
REMARK    5  A    between atoms: N_7  and  C_8
REMARK    6  A    between atoms: N_7  and  C_9
REMARK    7  A    between atoms: C_9  and  C_10
REMARK                            x       y       z     vdW  Elec       q    Type
REMARK                         _______ _______ _______ _____ _____    ______ ____
ROOT
ATOM      1  C   UNL     1       2.377   6.790  19.696  0.00  0.00    +0.000 A 
ATOM      2  C   UNL     1       3.269   6.190  18.791  0.00  0.00    +0.000 A 
ATOM      3  C   UNL     1       3.678   6.857  17.627  0.00  0.00    +0.000 A 
ATOM      4  C   UNL     1       3.171   8.127  17.358  0.00  0.00    +0.000 A 
ATOM      5  C   UNL     1       2.318   8.746  18.271  0.00  0.00    +0.000 A 
ATOM      6  N   UNL     1       1.892  10.046  17.980  0.00  0.00    +0.000 N 
ATOM      7  C   UNL     1       1.105  10.785  18.808  0.00  0.00    +0.000 A 
ATOM      8  O   UNL     1       0.780  11.935  18.508  0.00  0.00    +0.000 OA
ATOM      9  C   UNL     1       0.667  10.146  20.068  0.00  0.00    +0.000 A 
ATOM     10  C   UNL     1       1.037   8.887  20.379  0.00  0.00    +0.000 A 
ATOM     11  C   UNL     1       1.913   8.107  19.458  0.00  0.00    +0.000 A 
ATOM     12  N   UNL     1       0.609   8.312  21.568  0.00  0.00    +0.000 N 
ATOM     13  C   UNL     1      -0.523   8.849  22.297  0.00  0.00    +0.000 C 
ATOM     14  C   UNL     1      -0.367  10.363  22.377  0.00  0.00    +0.000 C 
ATOM     15  C   UNL     1      -0.211  10.968  20.976  0.00  0.00    +0.000 C 
ATOM     16  H   UNL     1       2.186  10.507  17.131  0.00  0.00    +0.000 HD
ATOM     17  H   UNL     1       0.714   7.297  21.581  0.00  0.00    +0.000 HD
ENDROOT
BRANCH   1  19
ATOM     18  C   UNL     1       2.157   4.732  20.894  0.00  0.00    +0.000 C 
ATOM     19  O   UNL     1       1.885   6.125  20.794  0.00  0.00    +0.000 OA
ENDBRANCH   1  19
BRANCH   3  20
ATOM     20  C   UNL     1       4.702   6.246  16.697  0.00  0.00    +0.000 C 
BRANCH  20  21
ATOM     21  N   UNL     1       5.419   5.083  17.248  0.00  0.00    +0.000 NA
ATOM     22  C   UNL     1       5.105   3.860  16.492  0.00  0.00    +0.000 C 
BRANCH  21  23
ATOM     23  C   UNL     1       6.886   5.306  17.205  0.00  0.00    +0.000 C 
BRANCH  23  24
ATOM     24  C   UNL     1       7.413   6.267  18.279  0.00  0.00    +0.000 C 
ATOM     25 CL   UNL     1       7.776   7.862  17.571  0.00  0.00    +0.000 Cl
ENDBRANCH  23  24
ENDBRANCH  21  23
ENDBRANCH  20  21
ENDBRANCH   3  20
TORSDOF 5
ENDMDL
MODEL 4
REMARK VINA RESULT:      -6.6      0.995      1.081
REMARK  Name = 
REMARK  7 active torsions:
REMARK  status: ('A' for Active; 'I' for Inactive)
REMARK    1  A    between atoms: C_1  and  O_2
REMARK    2  A    between atoms: O_2  and  C_3
REMARK    3  A    between atoms: C_5  and  C_6
REMARK    4  A    between atoms: C_6  and  N_7
REMARK    5  A    between atoms: N_7  and  C_8
REMARK    6  A    between atoms: N_7  and  C_9
REMARK    7  A    between atoms: C_9  and  C_10
REMARK                            x       y       z     vdW  Elec       q    Type
REMARK                         _______ _______ _______ _____ _____    ______ ____
ROOT
ATOM      1  C   UNL     1       2.446   6.220  19.814  0.00  0.00    +0.000 A 
ATOM      2  C   UNL     1       3.311   5.481  18.990  0.00  0.00    +0.000 A 
ATOM      3  C   UNL     1       3.824   6.027  17.804  0.00  0.00    +0.000 A 
ATOM      4  C   UNL     1       3.450   7.317  17.432  0.00  0.00    +0.000 A 
ATOM      5  C   UNL     1       2.625   8.071  18.265  0.00  0.00    +0.000 A 
ATOM      6  N   UNL     1       2.333   9.382  17.873  0.00  0.00    +0.000 N 
ATOM      7  C   UNL     1       1.588  10.244  18.616  0.00  0.00    +0.000 A 
ATOM      8  O   UNL     1       1.384  11.396  18.229  0.00  0.00    +0.000 OA
ATOM      9  C   UNL     1       1.045   9.735  19.894  0.00  0.00    +0.000 A 
ATOM     10  C   UNL     1       1.284   8.472  20.301  0.00  0.00    +0.000 A 
ATOM     11  C   UNL     1       2.117   7.554  19.471  0.00  0.00    +0.000 A 
ATOM     12  N   UNL     1       0.760   8.021  21.505  0.00  0.00    +0.000 N 
ATOM     13  C   UNL     1      -0.344   8.707  22.148  0.00  0.00    +0.000 C 
ATOM     14  C   UNL     1      -0.050  10.202  22.137  0.00  0.00    +0.000 C 
ATOM     15  C   UNL     1       0.214  10.694  20.708  0.00  0.00    +0.000 C 
ATOM     16  H   UNL     1       2.701   9.756  17.009  0.00  0.00    +0.000 HD
ATOM     17  H   UNL     1       0.769   7.003  21.588  0.00  0.00    +0.000 HD
ENDROOT
BRANCH   1  19
ATOM     18  C   UNL     1       1.758   4.261  21.001  0.00  0.00    +0.000 C 
ATOM     19  O   UNL     1       1.853   5.679  20.930  0.00  0.00    +0.000 OA
ENDBRANCH   1  19
BRANCH   3  20
ATOM     20  C   UNL     1       4.821   5.264  16.962  0.00  0.00    +0.000 C 
BRANCH  20  21
ATOM     21  N   UNL     1       6.007   6.038  16.555  0.00  0.00    +0.000 NA
ATOM     22  C   UNL     1       6.848   6.368  17.717  0.00  0.00    +0.000 C 
BRANCH  21  23
ATOM     23  C   UNL     1       6.821   5.270  15.580  0.00  0.00    +0.000 C 
BRANCH  23  24
ATOM     24  C   UNL     1       6.240   3.901  15.206  0.00  0.00    +0.000 C 
ATOM     25 CL   UNL     1       5.881   3.825  13.462  0.00  0.00    +0.000 Cl
ENDBRANCH  23  24
ENDBRANCH  21  23
ENDBRANCH  20  21
ENDBRANCH   3  20
TORSDOF 5
ENDMDL
MODEL 5
REMARK VINA RESULT:      -6.6      1.195      1.631
REMARK  Name = 
REMARK  7 active torsions:
REMARK  status: ('A' for Active; 'I' for Inactive)
REMARK    1  A    between atoms: C_1  and  O_2
REMARK    2  A    between atoms: O_2  and  C_3
REMARK    3  A    between atoms: C_5  and  C_6
REMARK    4  A    between atoms: C_6  and  N_7
REMARK    5  A    between atoms: N_7  and  C_8
REMARK    6  A    between atoms: N_7  and  C_9
REMARK    7  A    between atoms: C_9  and  C_10
REMARK                            x       y       z     vdW  Elec       q    Type
REMARK                         _______ _______ _______ _____ _____    ______ ____
ROOT
ATOM      1  C   UNL     1       2.342   6.693  19.735  0.00  0.00    +0.000 A 
ATOM      2  C   UNL     1       3.213   6.031  18.854  0.00  0.00    +0.000 A 
ATOM      3  C   UNL     1       3.655   6.645  17.674  0.00  0.00    +0.000 A 
ATOM      4  C   UNL     1       3.202   7.926  17.363  0.00  0.00    +0.000 A 
ATOM      5  C   UNL     1       2.370   8.606  18.253  0.00  0.00    +0.000 A 
ATOM      6  N   UNL     1       1.998   9.913  17.921  0.00  0.00    +0.000 N 
ATOM      7  C   UNL     1       1.237  10.707  18.721  0.00  0.00    +0.000 A 
ATOM      8  O   UNL     1       0.960  11.860  18.385  0.00  0.00    +0.000 OA
ATOM      9  C   UNL     1       0.767  10.125  19.997  0.00  0.00    +0.000 A 
ATOM     10  C   UNL     1       1.084   8.862  20.347  0.00  0.00    +0.000 A 
ATOM     11  C   UNL     1       1.932   8.020  19.455  0.00  0.00    +0.000 A 
ATOM     12  N   UNL     1       0.628   8.340  21.550  0.00  0.00    +0.000 N 
ATOM     13  C   UNL     1      -0.486   8.944  22.256  0.00  0.00    +0.000 C 
ATOM     14  C   UNL     1      -0.269  10.452  22.292  0.00  0.00    +0.000 C 
ATOM     15  C   UNL     1      -0.082  11.009  20.875  0.00  0.00    +0.000 C 
ATOM     16  H   UNL     1       2.315  10.337  17.060  0.00  0.00    +0.000 HD
ATOM     17  H   UNL     1       0.691   7.322  21.594  0.00  0.00    +0.000 HD
ENDROOT
BRANCH   1  19
ATOM     18  C   UNL     1       1.611   4.674  20.790  0.00  0.00    +0.000 C 
ATOM     19  O   UNL     1       1.817   6.081  20.849  0.00  0.00    +0.000 OA
ENDBRANCH   1  19
BRANCH   3  20
ATOM     20  C   UNL     1       4.658   5.966  16.769  0.00  0.00    +0.000 C 
BRANCH  20  21
ATOM     21  N   UNL     1       5.240   4.727  17.313  0.00  0.00    +0.000 NA
ATOM     22  C   UNL     1       4.394   3.563  17.004  0.00  0.00    +0.000 C 
BRANCH  21  23
ATOM     23  C   UNL     1       6.593   4.496  16.750  0.00  0.00    +0.000 C 
BRANCH  23  24
ATOM     24  C   UNL     1       6.808   5.088  15.351  0.00  0.00    +0.000 C 
ATOM     25 CL   UNL     1       6.358   3.909  14.093  0.00  0.00    +0.000 Cl
ENDBRANCH  23  24
ENDBRANCH  21  23
ENDBRANCH  20  21
ENDBRANCH   3  20
TORSDOF 5
ENDMDL
MODEL 6
REMARK VINA RESULT:      -6.5      1.610      2.238
REMARK  Name = 
REMARK  7 active torsions:
REMARK  status: ('A' for Active; 'I' for Inactive)
REMARK    1  A    between atoms: C_1  and  O_2
REMARK    2  A    between atoms: O_2  and  C_3
REMARK    3  A    between atoms: C_5  and  C_6
REMARK    4  A    between atoms: C_6  and  N_7
REMARK    5  A    between atoms: N_7  and  C_8
REMARK    6  A    between atoms: N_7  and  C_9
REMARK    7  A    between atoms: C_9  and  C_10
REMARK                            x       y       z     vdW  Elec       q    Type
REMARK                         _______ _______ _______ _____ _____    ______ ____
ROOT
ATOM      1  C   UNL     1       4.499   4.802  18.529  0.00  0.00    +0.000 A 
ATOM      2  C   UNL     1       5.478   4.374  17.616  0.00  0.00    +0.000 A 
ATOM      3  C   UNL     1       5.783   5.127  16.474  0.00  0.00    +0.000 A 
ATOM      4  C   UNL     1       5.085   6.309  16.232  0.00  0.00    +0.000 A 
ATOM      5  C   UNL     1       4.141   6.762  17.154  0.00  0.00    +0.000 A 
ATOM      6  N   UNL     1       3.517   7.986  16.893  0.00  0.00    +0.000 N 
ATOM      7  C   UNL     1       2.620   8.570  17.732  0.00  0.00    +0.000 A 
ATOM      8  O   UNL     1       2.120   9.662  17.459  0.00  0.00    +0.000 OA
ATOM      9  C   UNL     1       2.282   7.837  18.972  0.00  0.00    +0.000 A 
ATOM     10  C   UNL     1       2.843   6.644  19.253  0.00  0.00    +0.000 A 
ATOM     11  C   UNL     1       3.835   6.036  18.320  0.00  0.00    +0.000 A 
ATOM     12  N   UNL     1       2.506   5.978  20.423  0.00  0.00    +0.000 N 
ATOM     13  C   UNL     1       1.300   6.310  21.156  0.00  0.00    +0.000 C 
ATOM     14  C   UNL     1       1.216   7.827  21.276  0.00  0.00    +0.000 C 
ATOM     15  C   UNL     1       1.281   8.487  19.893  0.00  0.00    +0.000 C 
ATOM     16  H   UNL     1       3.739   8.511  16.058  0.00  0.00    +0.000 HD
ATOM     17  H   UNL     1       2.769   4.991  20.411  0.00  0.00    +0.000 HD
ENDROOT
BRANCH   1  19
ATOM     18  C   UNL     1       3.778   2.678  19.358  0.00  0.00    +0.000 C 
ATOM     19  O   UNL     1       4.112   4.039  19.605  0.00  0.00    +0.000 OA
ENDBRANCH   1  19
BRANCH   3  20
ATOM     20  C   UNL     1       6.895   4.710  15.538  0.00  0.00    +0.000 C 
BRANCH  20  21
ATOM     21  N   UNL     1       6.625   4.956  14.111  0.00  0.00    +0.000 NA
ATOM     22  C   UNL     1       7.864   5.274  13.383  0.00  0.00    +0.000 C 
BRANCH  21  23
ATOM     23  C   UNL     1       5.998   3.764  13.485  0.00  0.00    +0.000 C 
BRANCH  23  24
ATOM     24  C   UNL     1       6.540   3.419  12.093  0.00  0.00    +0.000 C 
ATOM     25 CL   UNL     1       5.775   1.934  11.470  0.00  0.00    +0.000 Cl
ENDBRANCH  23  24
ENDBRANCH  21  23
ENDBRANCH  20  21
ENDBRANCH   3  20
TORSDOF 5
ENDMDL
MODEL 7
REMARK VINA RESULT:      -6.4      1.517      1.881
REMARK  Name = 
REMARK  7 active torsions:
REMARK  status: ('A' for Active; 'I' for Inactive)
REMARK    1  A    between atoms: C_1  and  O_2
REMARK    2  A    between atoms: O_2  and  C_3
REMARK    3  A    between atoms: C_5  and  C_6
REMARK    4  A    between atoms: C_6  and  N_7
REMARK    5  A    between atoms: N_7  and  C_8
REMARK    6  A    between atoms: N_7  and  C_9
REMARK    7  A    between atoms: C_9  and  C_10
REMARK                            x       y       z     vdW  Elec       q    Type
REMARK                         _______ _______ _______ _____ _____    ______ ____
ROOT
ATOM      1  C   UNL     1       2.645   5.486  19.947  0.00  0.00    +0.000 A 
ATOM      2  C   UNL     1       3.493   4.601  19.260  0.00  0.00    +0.000 A 
ATOM      3  C   UNL     1       4.051   4.946  18.021  0.00  0.00    +0.000 A 
ATOM      4  C   UNL     1       3.738   6.181  17.456  0.00  0.00    +0.000 A 
ATOM      5  C   UNL     1       2.931   7.082  18.150  0.00  0.00    +0.000 A 
ATOM      6  N   UNL     1       2.703   8.332  17.565  0.00  0.00    +0.000 N 
ATOM      7  C   UNL     1       1.982   9.322  18.156  0.00  0.00    +0.000 A 
ATOM      8  O   UNL     1       1.834  10.412  17.601  0.00  0.00    +0.000 OA
ATOM      9  C   UNL     1       1.394   9.027  19.481  0.00  0.00    +0.000 A 
ATOM     10  C   UNL     1       1.571   7.829  20.073  0.00  0.00    +0.000 A 
ATOM     11  C   UNL     1       2.379   6.768  19.406  0.00  0.00    +0.000 A 
ATOM     12  N   UNL     1       1.006   7.580  21.317  0.00  0.00    +0.000 N 
ATOM     13  C   UNL     1      -0.079   8.395  21.826  0.00  0.00    +0.000 C 
ATOM     14  C   UNL     1       0.279   9.860  21.605  0.00  0.00    +0.000 C 
ATOM     15  C   UNL     1       0.590  10.127  20.127  0.00  0.00    +0.000 C 
ATOM     16  H   UNL     1       3.102   8.560  16.665  0.00  0.00    +0.000 HD
ATOM     17  H   UNL     1       0.970   6.586  21.547  0.00  0.00    +0.000 HD
ENDROOT
BRANCH   1  19
ATOM     18  C   UNL     1       2.102   3.781  21.534  0.00  0.00    +0.000 C 
ATOM     19  O   UNL     1       2.009   5.138  21.115  0.00  0.00    +0.000 OA
ENDBRANCH   1  19
BRANCH   3  20
ATOM     20  C   UNL     1       5.029   4.029  17.323  0.00  0.00    +0.000 C 
BRANCH  20  21
ATOM     21  N   UNL     1       6.447   4.380  17.513  0.00  0.00    +0.000 NA
ATOM     22  C   UNL     1       7.080   4.739  16.234  0.00  0.00    +0.000 C 
BRANCH  21  23
ATOM     23  C   UNL     1       6.580   5.525  18.448  0.00  0.00    +0.000 C 
BRANCH  23  24
ATOM     24  C   UNL     1       7.833   6.382  18.228  0.00  0.00    +0.000 C 
ATOM     25 CL   UNL     1       7.408   7.928  17.450  0.00  0.00    +0.000 Cl
ENDBRANCH  23  24
ENDBRANCH  21  23
ENDBRANCH  20  21
ENDBRANCH   3  20
TORSDOF 5
ENDMDL
MODEL 8
REMARK VINA RESULT:      -6.4      2.604      4.766
REMARK  Name = 
REMARK  7 active torsions:
REMARK  status: ('A' for Active; 'I' for Inactive)
REMARK    1  A    between atoms: C_1  and  O_2
REMARK    2  A    between atoms: O_2  and  C_3
REMARK    3  A    between atoms: C_5  and  C_6
REMARK    4  A    between atoms: C_6  and  N_7
REMARK    5  A    between atoms: N_7  and  C_8
REMARK    6  A    between atoms: N_7  and  C_9
REMARK    7  A    between atoms: C_9  and  C_10
REMARK                            x       y       z     vdW  Elec       q    Type
REMARK                         _______ _______ _______ _____ _____    ______ ____
ROOT
ATOM      1  C   UNL     1       4.537   6.126  17.564  0.00  0.00    +0.000 A 
ATOM      2  C   UNL     1       5.545   6.299  16.601  0.00  0.00    +0.000 A 
ATOM      3  C   UNL     1       6.199   5.197  16.030  0.00  0.00    +0.000 A 
ATOM      4  C   UNL     1       5.854   3.912  16.445  0.00  0.00    +0.000 A 
ATOM      5  C   UNL     1       4.827   3.730  17.370  0.00  0.00    +0.000 A 
ATOM      6  N   UNL     1       4.480   2.416  17.702  0.00  0.00    +0.000 N 
ATOM      7  C   UNL     1       3.463   2.095  18.547  0.00  0.00    +0.000 A 
ATOM      8  O   UNL     1       3.189   0.917  18.783  0.00  0.00    +0.000 OA
ATOM      9  C   UNL     1       2.714   3.216  19.156  0.00  0.00    +0.000 A 
ATOM     10  C   UNL     1       3.028   4.498  18.881  0.00  0.00    +0.000 A 
ATOM     11  C   UNL     1       4.139   4.819  17.939  0.00  0.00    +0.000 A 
ATOM     12  N   UNL     1       2.309   5.529  19.468  0.00  0.00    +0.000 N 
ATOM     13  C   UNL     1       1.504   5.304  20.653  0.00  0.00    +0.000 C 
ATOM     14  C   UNL     1       0.684   4.037  20.440  0.00  0.00    +0.000 C 
ATOM     15  C   UNL     1       1.594   2.852  20.096  0.00  0.00    +0.000 C 
ATOM     16  H   UNL     1       4.969   1.634  17.291  0.00  0.00    +0.000 HD
ATOM     17  H   UNL     1       2.785   6.431  19.410  0.00  0.00    +0.000 HD
ENDROOT
BRANCH   1  19
ATOM     18  C   UNL     1       3.076   8.015  17.448  0.00  0.00    +0.000 C 
ATOM     19  O   UNL     1       3.947   7.186  18.209  0.00  0.00    +0.000 OA
ENDBRANCH   1  19
BRANCH   3  20
ATOM     20  C   UNL     1       7.223   5.380  14.933  0.00  0.00    +0.000 C 
BRANCH  20  21
ATOM     21  N   UNL     1       6.719   5.135  13.571  0.00  0.00    +0.000 NA
ATOM     22  C   UNL     1       7.798   5.246  12.577  0.00  0.00    +0.000 C 
BRANCH  21  23
ATOM     23  C   UNL     1       6.118   3.781  13.473  0.00  0.00    +0.000 C 
BRANCH  23  24
ATOM     24  C   UNL     1       6.033   3.227  12.045  0.00  0.00    +0.000 C 
ATOM     25 CL   UNL     1       4.347   3.236  11.466  0.00  0.00    +0.000 Cl
ENDBRANCH  23  24
ENDBRANCH  21  23
ENDBRANCH  20  21
ENDBRANCH   3  20
TORSDOF 5
ENDMDL
MODEL 9
REMARK VINA RESULT:      -6.4      2.012      3.037
REMARK  Name = 
REMARK  7 active torsions:
REMARK  status: ('A' for Active; 'I' for Inactive)
REMARK    1  A    between atoms: C_1  and  O_2
REMARK    2  A    between atoms: O_2  and  C_3
REMARK    3  A    between atoms: C_5  and  C_6
REMARK    4  A    between atoms: C_6  and  N_7
REMARK    5  A    between atoms: N_7  and  C_8
REMARK    6  A    between atoms: N_7  and  C_9
REMARK    7  A    between atoms: C_9  and  C_10
REMARK                            x       y       z     vdW  Elec       q    Type
REMARK                         _______ _______ _______ _____ _____    ______ ____
ROOT
ATOM      1  C   UNL     1       4.661   4.165  17.693  0.00  0.00    +0.000 A 
ATOM      2  C   UNL     1       5.629   3.966  16.694  0.00  0.00    +0.000 A 
ATOM      3  C   UNL     1       5.962   4.988  15.794  0.00  0.00    +0.000 A 
ATOM      4  C   UNL     1       5.303   6.213  15.882  0.00  0.00    +0.000 A 
ATOM      5  C   UNL     1       4.371   6.432  16.896  0.00  0.00    +0.000 A 
ATOM      6  N   UNL     1       3.787   7.701  16.976  0.00  0.00    +0.000 N 
ATOM      7  C   UNL     1       2.906   8.066  17.945  0.00  0.00    +0.000 A 
ATOM      8  O   UNL     1       2.442   9.207  17.978  0.00  0.00    +0.000 OA
ATOM      9  C   UNL     1       2.540   7.039  18.945  0.00  0.00    +0.000 A 
ATOM     10  C   UNL     1       3.062   5.797  18.893  0.00  0.00    +0.000 A 
ATOM     11  C   UNL     1       4.037   5.430  17.826  0.00  0.00    +0.000 A 
ATOM     12  N   UNL     1       2.699   4.852  19.844  0.00  0.00    +0.000 N 
ATOM     13  C   UNL     1       1.502   5.014  20.645  0.00  0.00    +0.000 C 
ATOM     14  C   UNL     1       1.466   6.446  21.167  0.00  0.00    +0.000 C 
ATOM     15  C   UNL     1       1.557   7.449  20.011  0.00  0.00    +0.000 C 
ATOM     16  H   UNL     1       4.029   8.422  16.311  0.00  0.00    +0.000 HD
ATOM     17  H   UNL     1       2.931   3.897  19.566  0.00  0.00    +0.000 HD
ENDROOT
BRANCH   1  19
ATOM     18  C   UNL     1       3.579   2.046  17.934  0.00  0.00    +0.000 C 
ATOM     19  O   UNL     1       4.246   3.154  18.527  0.00  0.00    +0.000 OA
ENDBRANCH   1  19
BRANCH   3  20
ATOM     20  C   UNL     1       7.063   4.802  14.775  0.00  0.00    +0.000 C 
BRANCH  20  21
ATOM     21  N   UNL     1       6.597   4.613  13.390  0.00  0.00    +0.000 NA
ATOM     22  C   UNL     1       7.653   4.953  12.424  0.00  0.00    +0.000 C 
BRANCH  21  23
ATOM     23  C   UNL     1       6.182   3.205  13.167  0.00  0.00    +0.000 C 
BRANCH  23  24
ATOM     24  C   UNL     1       5.825   2.872  11.713  0.00  0.00    +0.000 C 
ATOM     25 CL   UNL     1       4.123   3.279  11.374  0.00  0.00    +0.000 Cl
ENDBRANCH  23  24
ENDBRANCH  21  23
ENDBRANCH  20  21
ENDBRANCH   3  20
TORSDOF 5
ENDMDL
