MODEL 1
REMARK VINA RESULT:      -8.0      0.000      0.000
REMARK  Name = 
REMARK  7 active torsions:
REMARK  status: ('A' for Active; 'I' for Inactive)
REMARK    1  A    between atoms: C_1  and  C_2
REMARK    2  A    between atoms: C_2  and  O_4
REMARK    3  A    between atoms: O_4  and  C_5
REMARK    4  A    between atoms: C_8  and  C_9
REMARK    5  A    between atoms: C_17  and  C_18
REMARK    6  A    between atoms: C_21  and  C_22
REMARK    7  A    between atoms: C_29  and  C_30
REMARK                            x       y       z     vdW  Elec       q    Type
REMARK                         _______ _______ _______ _____ _____    ______ ____
ROOT
ATOM      1  C   UNL     1      -4.954  14.587  22.105  0.00  0.00    +0.000 C 
ATOM      2  C   UNL     1      -4.758  14.449  20.591  0.00  0.00    +0.000 C 
ATOM      3  C   UNL     1      -3.901  13.235  20.209  0.00  0.00    +0.000 C 
ATOM      4  C   UNL     1      -2.533  13.148  20.941  0.00  0.00    +0.000 C 
ATOM      5  C   UNL     1      -1.624  14.321  20.494  0.00  0.00    +0.000 C 
ATOM      6  C   UNL     1      -2.763  13.274  22.448  0.00  0.00    +0.000 C 
ATOM      7  C   UNL     1      -2.188  12.468  23.344  0.00  0.00    +0.000 C 
ATOM      8  C   UNL     1      -1.240  11.357  23.021  0.00  0.00    +0.000 C 
ATOM      9  C   UNL     1      -0.734  11.387  21.572  0.00  0.00    +0.000 C 
ATOM     10  C   UNL     1      -0.165  10.024  21.178  0.00  0.00    +0.000 C 
ATOM     11  C   UNL     1       0.963   9.435  22.012  0.00  0.00    +0.000 C 
ATOM     12  C   UNL     1       1.502   8.303  21.127  0.00  0.00    +0.000 C 
ATOM     13  C   UNL     1       0.921   8.536  19.706  0.00  0.00    +0.000 C 
ATOM     14  C   UNL     1       0.385   9.987  19.738  0.00  0.00    +0.000 C 
ATOM     15  C   UNL     1       1.507  11.026  19.479  0.00  0.00    +0.000 C 
ATOM     16  C   UNL     1      -0.795  10.251  18.791  0.00  0.00    +0.000 C 
ATOM     17  C   UNL     1      -1.465  11.599  19.101  0.00  0.00    +0.000 C 
ATOM     18  C   UNL     1      -1.885  11.754  20.591  0.00  0.00    +0.000 C 
ATOM     19  C   UNL     1      -3.650  14.420  22.920  0.00  0.00    +0.000 C 
ENDROOT
BRANCH  13  20
ATOM     20  C   UNL     1       1.893   8.233  18.630  0.00  0.00    +0.000 A 
ATOM     21  N   UNL     1       2.095   8.853  17.487  0.00  0.00    +0.000 NA
ATOM     22  N   UNL     1       3.206   8.273  16.923  0.00  0.00    +0.000 NA
ATOM     23  C   UNL     1       3.604   7.330  17.754  0.00  0.00    +0.000 A 
ATOM     24  O   UNL     1       2.789   7.219  18.853  0.00  0.00    +0.000 OA
BRANCH  23  25
ATOM     25  C   UNL     1       4.761   6.451  17.664  0.00  0.00    +0.000 A 
ATOM     26  C   UNL     1       4.963   5.486  18.662  0.00  0.00    +0.000 A 
ATOM     27  C   UNL     1       6.103   4.679  18.658  0.00  0.00    +0.000 A 
ATOM     28  C   UNL     1       7.049   4.824  17.648  0.00  0.00    +0.000 A 
ATOM     29  C   UNL     1       6.842   5.748  16.625  0.00  0.00    +0.000 A 
ATOM     30  C   UNL     1       5.698   6.553  16.627  0.00  0.00    +0.000 A 
ENDBRANCH  23  25
ENDBRANCH  13  20
BRANCH   1  31
ATOM     31  O   UNL     1      -5.731  15.761  22.502  0.00  0.00    +0.000 OA
BRANCH  31  33
ATOM     32  C   UNL     1      -7.386  14.905  23.999  0.00  0.00    +0.000 C 
ATOM     33  C   UNL     1      -6.258  15.890  23.754  0.00  0.00    +0.000 C 
ATOM     34  O   UNL     1      -5.883  16.697  24.594  0.00  0.00    +0.000 OA
ENDBRANCH  31  33
ENDBRANCH   1  31
TORSDOF 4
ENDMDL
MODEL 2
REMARK VINA RESULT:      -8.0      2.649     11.041
REMARK  Name = 
REMARK  7 active torsions:
REMARK  status: ('A' for Active; 'I' for Inactive)
REMARK    1  A    between atoms: C_1  and  C_2
REMARK    2  A    between atoms: C_2  and  O_4
REMARK    3  A    between atoms: O_4  and  C_5
REMARK    4  A    between atoms: C_8  and  C_9
REMARK    5  A    between atoms: C_17  and  C_18
REMARK    6  A    between atoms: C_21  and  C_22
REMARK    7  A    between atoms: C_29  and  C_30
REMARK                            x       y       z     vdW  Elec       q    Type
REMARK                         _______ _______ _______ _____ _____    ______ ____
ROOT
ATOM      1  C   UNL     1       4.770   5.184  17.634  0.00  0.00    +0.000 C 
ATOM      2  C   UNL     1       4.537   6.449  16.800  0.00  0.00    +0.000 C 
ATOM      3  C   UNL     1       3.864   7.573  17.598  0.00  0.00    +0.000 C 
ATOM      4  C   UNL     1       2.557   7.161  18.331  0.00  0.00    +0.000 C 
ATOM      5  C   UNL     1       1.459   6.820  17.291  0.00  0.00    +0.000 C 
ATOM      6  C   UNL     1       2.826   5.906  19.164  0.00  0.00    +0.000 C 
ATOM      7  C   UNL     1       2.420   5.770  20.429  0.00  0.00    +0.000 C 
ATOM      8  C   UNL     1       1.645   6.790  21.200  0.00  0.00    +0.000 C 
ATOM      9  C   UNL     1       1.082   7.919  20.326  0.00  0.00    +0.000 C 
ATOM     10  C   UNL     1       0.717   9.129  21.187  0.00  0.00    +0.000 C 
ATOM     11  C   UNL     1      -0.271   8.939  22.329  0.00  0.00    +0.000 C 
ATOM     12  C   UNL     1      -0.663  10.377  22.698  0.00  0.00    +0.000 C 
ATOM     13  C   UNL     1      -0.183  11.281  21.530  0.00  0.00    +0.000 C 
ATOM     14  C   UNL     1       0.121  10.297  20.375  0.00  0.00    +0.000 C 
ATOM     15  C   UNL     1      -1.159   9.912  19.588  0.00  0.00    +0.000 C 
ATOM     16  C   UNL     1       1.206  10.775  19.400  0.00  0.00    +0.000 C 
ATOM     17  C   UNL     1       1.670   9.633  18.482  0.00  0.00    +0.000 C 
ATOM     18  C   UNL     1       2.121   8.361  19.255  0.00  0.00    +0.000 C 
ATOM     19  C   UNL     1       3.542   4.753  18.470  0.00  0.00    +0.000 C 
ENDROOT
BRANCH  13  20
ATOM     20  C   UNL     1      -1.139  12.368  21.213  0.00  0.00    +0.000 A 
ATOM     21  N   UNL     1      -0.977  13.428  20.451  0.00  0.00    +0.000 NA
ATOM     22  N   UNL     1      -2.207  14.035  20.366  0.00  0.00    +0.000 NA
ATOM     23  C   UNL     1      -3.037  13.312  21.090  0.00  0.00    +0.000 A 
ATOM     24  O   UNL     1      -2.417  12.248  21.696  0.00  0.00    +0.000 OA
BRANCH  23  25
ATOM     25  C   UNL     1      -4.467  13.483  21.297  0.00  0.00    +0.000 A 
ATOM     26  C   UNL     1      -5.351  12.524  20.778  0.00  0.00    +0.000 A 
ATOM     27  C   UNL     1      -6.733  12.692  20.881  0.00  0.00    +0.000 A 
ATOM     28  C   UNL     1      -7.247  13.819  21.515  0.00  0.00    +0.000 A 
ATOM     29  C   UNL     1      -6.383  14.760  22.074  0.00  0.00    +0.000 A 
ATOM     30  C   UNL     1      -4.998  14.589  21.975  0.00  0.00    +0.000 A 
ENDBRANCH  23  25
ENDBRANCH  13  20
BRANCH   1  31
ATOM     31  O   UNL     1       5.370   4.079  16.888  0.00  0.00    +0.000 OA
BRANCH  31  33
ATOM     32  C   UNL     1       6.118   4.016  14.619  0.00  0.00    +0.000 C 
ATOM     33  C   UNL     1       6.455   4.256  16.079  0.00  0.00    +0.000 C 
ATOM     34  O   UNL     1       7.574   4.568  16.463  0.00  0.00    +0.000 OA
ENDBRANCH  31  33
ENDBRANCH   1  31
TORSDOF 4
ENDMDL
MODEL 3
REMARK VINA RESULT:      -8.0      0.653      1.058
REMARK  Name = 
REMARK  7 active torsions:
REMARK  status: ('A' for Active; 'I' for Inactive)
REMARK    1  A    between atoms: C_1  and  C_2
REMARK    2  A    between atoms: C_2  and  O_4
REMARK    3  A    between atoms: O_4  and  C_5
REMARK    4  A    between atoms: C_8  and  C_9
REMARK    5  A    between atoms: C_17  and  C_18
REMARK    6  A    between atoms: C_21  and  C_22
REMARK    7  A    between atoms: C_29  and  C_30
REMARK                            x       y       z     vdW  Elec       q    Type
REMARK                         _______ _______ _______ _____ _____    ______ ____
ROOT
ATOM      1  C   UNL     1      -5.070  14.512  22.246  0.00  0.00    +0.000 C 
ATOM      2  C   UNL     1      -4.884  14.406  20.728  0.00  0.00    +0.000 C 
ATOM      3  C   UNL     1      -4.014  13.212  20.316  0.00  0.00    +0.000 C 
ATOM      4  C   UNL     1      -2.639  13.128  21.035  0.00  0.00    +0.000 C 
ATOM      5  C   UNL     1      -1.749  14.322  20.605  0.00  0.00    +0.000 C 
ATOM      6  C   UNL     1      -2.859  13.222  22.546  0.00  0.00    +0.000 C 
ATOM      7  C   UNL     1      -2.266  12.406  23.421  0.00  0.00    +0.000 C 
ATOM      8  C   UNL     1      -1.307  11.314  23.069  0.00  0.00    +0.000 C 
ATOM      9  C   UNL     1      -0.813  11.380  21.618  0.00  0.00    +0.000 C 
ATOM     10  C   UNL     1      -0.229  10.032  21.192  0.00  0.00    +0.000 C 
ATOM     11  C   UNL     1       0.913   9.442  22.006  0.00  0.00    +0.000 C 
ATOM     12  C   UNL     1       1.460   8.335  21.094  0.00  0.00    +0.000 C 
ATOM     13  C   UNL     1       0.864   8.588  19.683  0.00  0.00    +0.000 C 
ATOM     14  C   UNL     1       0.310  10.031  19.747  0.00  0.00    +0.000 C 
ATOM     15  C   UNL     1       1.417  11.090  19.500  0.00  0.00    +0.000 C 
ATOM     16  C   UNL     1      -0.881  10.298  18.815  0.00  0.00    +0.000 C 
ATOM     17  C   UNL     1      -1.566  11.631  19.157  0.00  0.00    +0.000 C 
ATOM     18  C   UNL     1      -1.976  11.750  20.653  0.00  0.00    +0.000 C 
ATOM     19  C   UNL     1      -3.757  14.347  23.048  0.00  0.00    +0.000 C 
ENDROOT
BRANCH  13  20
ATOM     20  C   UNL     1       1.832   8.319  18.593  0.00  0.00    +0.000 A 
ATOM     21  N   UNL     1       2.097   9.028  17.516  0.00  0.00    +0.000 NA
ATOM     22  N   UNL     1       3.175   8.426  16.912  0.00  0.00    +0.000 NA
ATOM     23  C   UNL     1       3.491   7.383  17.654  0.00  0.00    +0.000 A 
ATOM     24  O   UNL     1       2.650   7.227  18.728  0.00  0.00    +0.000 OA
BRANCH  23  25
ATOM     25  C   UNL     1       4.585   6.437  17.493  0.00  0.00    +0.000 A 
ATOM     26  C   UNL     1       5.117   6.220  16.213  0.00  0.00    +0.000 A 
ATOM     27  C   UNL     1       6.110   5.261  16.003  0.00  0.00    +0.000 A 
ATOM     28  C   UNL     1       6.589   4.515  17.075  0.00  0.00    +0.000 A 
ATOM     29  C   UNL     1       6.102   4.748  18.360  0.00  0.00    +0.000 A 
ATOM     30  C   UNL     1       5.111   5.712  18.572  0.00  0.00    +0.000 A 
ENDBRANCH  23  25
ENDBRANCH  13  20
BRANCH   1  31
ATOM     31  O   UNL     1      -5.859  15.667  22.672  0.00  0.00    +0.000 OA
BRANCH  31  33
ATOM     32  C   UNL     1      -7.916  16.794  23.131  0.00  0.00    +0.000 C 
ATOM     33  C   UNL     1      -7.084  15.531  23.257  0.00  0.00    +0.000 C 
ATOM     34  O   UNL     1      -7.485  14.522  23.822  0.00  0.00    +0.000 OA
ENDBRANCH  31  33
ENDBRANCH   1  31
TORSDOF 4
ENDMDL
MODEL 4
REMARK VINA RESULT:      -8.0      3.884     10.269
REMARK  Name = 
REMARK  7 active torsions:
REMARK  status: ('A' for Active; 'I' for Inactive)
REMARK    1  A    between atoms: C_1  and  C_2
REMARK    2  A    between atoms: C_2  and  O_4
REMARK    3  A    between atoms: O_4  and  C_5
REMARK    4  A    between atoms: C_8  and  C_9
REMARK    5  A    between atoms: C_17  and  C_18
REMARK    6  A    between atoms: C_21  and  C_22
REMARK    7  A    between atoms: C_29  and  C_30
REMARK                            x       y       z     vdW  Elec       q    Type
REMARK                         _______ _______ _______ _____ _____    ______ ____
ROOT
ATOM      1  C   UNL     1       4.018   5.153  18.417  0.00  0.00    +0.000 C 
ATOM      2  C   UNL     1       4.190   6.316  17.432  0.00  0.00    +0.000 C 
ATOM      3  C   UNL     1       3.740   7.662  18.014  0.00  0.00    +0.000 C 
ATOM      4  C   UNL     1       2.305   7.667  18.611  0.00  0.00    +0.000 C 
ATOM      5  C   UNL     1       1.267   7.457  17.480  0.00  0.00    +0.000 C 
ATOM      6  C   UNL     1       2.170   6.506  19.598  0.00  0.00    +0.000 C 
ATOM      7  C   UNL     1       1.619   6.638  20.808  0.00  0.00    +0.000 C 
ATOM      8  C   UNL     1       1.047   7.904  21.361  0.00  0.00    +0.000 C 
ATOM      9  C   UNL     1       0.871   9.007  20.308  0.00  0.00    +0.000 C 
ATOM     10  C   UNL     1       0.732  10.372  20.984  0.00  0.00    +0.000 C 
ATOM     11  C   UNL     1      -0.381  10.572  22.001  0.00  0.00    +0.000 C 
ATOM     12  C   UNL     1      -0.440  12.097  22.164  0.00  0.00    +0.000 C 
ATOM     13  C   UNL     1       0.364  12.700  20.980  0.00  0.00    +0.000 C 
ATOM     14  C   UNL     1       0.528  11.528  19.983  0.00  0.00    +0.000 C 
ATOM     15  C   UNL     1      -0.722  11.352  19.082  0.00  0.00    +0.000 C 
ATOM     16  C   UNL     1       1.790  11.606  19.112  0.00  0.00    +0.000 C 
ATOM     17  C   UNL     1       2.047  10.275  18.386  0.00  0.00    +0.000 C 
ATOM     18  C   UNL     1       2.089   9.047  19.340  0.00  0.00    +0.000 C 
ATOM     19  C   UNL     1       2.645   5.136  19.128  0.00  0.00    +0.000 C 
ENDROOT
BRANCH  13  20
ATOM     20  C   UNL     1      -0.257  13.928  20.430  0.00  0.00    +0.000 A 
ATOM     21  N   UNL     1      -1.351  14.555  20.810  0.00  0.00    +0.000 NA
ATOM     22  N   UNL     1      -1.404  15.718  20.081  0.00  0.00    +0.000 NA
ATOM     23  C   UNL     1      -0.346  15.721  19.295  0.00  0.00    +0.000 A 
ATOM     24  O   UNL     1       0.417  14.588  19.435  0.00  0.00    +0.000 OA
BRANCH  23  25
ATOM     25  C   UNL     1       0.104  16.742  18.361  0.00  0.00    +0.000 A 
ATOM     26  C   UNL     1      -0.846  17.574  17.749  0.00  0.00    +0.000 A 
ATOM     27  C   UNL     1      -0.466  18.510  16.786  0.00  0.00    +0.000 A 
ATOM     28  C   UNL     1       0.874  18.630  16.430  0.00  0.00    +0.000 A 
ATOM     29  C   UNL     1       1.837  17.842  17.059  0.00  0.00    +0.000 A 
ATOM     30  C   UNL     1       1.456  16.908  18.028  0.00  0.00    +0.000 A 
ENDBRANCH  23  25
ENDBRANCH  13  20
BRANCH   1  31
ATOM     31  O   UNL     1       4.398   3.849  17.874  0.00  0.00    +0.000 OA
BRANCH  31  33
ATOM     32  C   UNL     1       2.684   2.234  17.470  0.00  0.00    +0.000 C 
ATOM     33  C   UNL     1       3.848   2.687  18.331  0.00  0.00    +0.000 C 
ATOM     34  O   UNL     1       4.230   2.069  19.316  0.00  0.00    +0.000 OA
ENDBRANCH  31  33
ENDBRANCH   1  31
TORSDOF 4
ENDMDL
MODEL 5
REMARK VINA RESULT:      -7.9      3.410     10.758
REMARK  Name = 
REMARK  7 active torsions:
REMARK  status: ('A' for Active; 'I' for Inactive)
REMARK    1  A    between atoms: C_1  and  C_2
REMARK    2  A    between atoms: C_2  and  O_4
REMARK    3  A    between atoms: O_4  and  C_5
REMARK    4  A    between atoms: C_8  and  C_9
REMARK    5  A    between atoms: C_17  and  C_18
REMARK    6  A    between atoms: C_21  and  C_22
REMARK    7  A    between atoms: C_29  and  C_30
REMARK                            x       y       z     vdW  Elec       q    Type
REMARK                         _______ _______ _______ _____ _____    ______ ____
ROOT
ATOM      1  C   UNL     1       4.790   5.147  17.526  0.00  0.00    +0.000 C 
ATOM      2  C   UNL     1       4.603   6.431  16.710  0.00  0.00    +0.000 C 
ATOM      3  C   UNL     1       3.954   7.562  17.518  0.00  0.00    +0.000 C 
ATOM      4  C   UNL     1       2.628   7.176  18.230  0.00  0.00    +0.000 C 
ATOM      5  C   UNL     1       1.532   6.883  17.174  0.00  0.00    +0.000 C 
ATOM      6  C   UNL     1       2.851   5.901  19.046  0.00  0.00    +0.000 C 
ATOM      7  C   UNL     1       2.427   5.758  20.305  0.00  0.00    +0.000 C 
ATOM      8  C   UNL     1       1.673   6.788  21.084  0.00  0.00    +0.000 C 
ATOM      9  C   UNL     1       1.153   7.946  20.221  0.00  0.00    +0.000 C 
ATOM     10  C   UNL     1       0.813   9.152  21.098  0.00  0.00    +0.000 C 
ATOM     11  C   UNL     1      -0.192   8.974  22.225  0.00  0.00    +0.000 C 
ATOM     12  C   UNL     1      -0.546  10.417  22.613  0.00  0.00    +0.000 C 
ATOM     13  C   UNL     1      -0.028  11.324  21.464  0.00  0.00    +0.000 C 
ATOM     14  C   UNL     1       0.260  10.349  20.297  0.00  0.00    +0.000 C 
ATOM     15  C   UNL     1      -1.021  10.014  19.491  0.00  0.00    +0.000 C 
ATOM     16  C   UNL     1       1.370  10.811  19.342  0.00  0.00    +0.000 C 
ATOM     17  C   UNL     1       1.811   9.670  18.410  0.00  0.00    +0.000 C 
ATOM     18  C   UNL     1       2.216   8.373  19.168  0.00  0.00    +0.000 C 
ATOM     19  C   UNL     1       3.541   4.739  18.342  0.00  0.00    +0.000 C 
ENDROOT
BRANCH  13  20
ATOM     20  C   UNL     1      -0.948  12.443  21.155  0.00  0.00    +0.000 A 
ATOM     21  N   UNL     1      -2.173  12.661  21.584  0.00  0.00    +0.000 NA
ATOM     22  N   UNL     1      -2.528  13.907  21.126  0.00  0.00    +0.000 NA
ATOM     23  C   UNL     1      -1.501  14.364  20.437  0.00  0.00    +0.000 A 
ATOM     24  O   UNL     1      -0.465  13.465  20.379  0.00  0.00    +0.000 OA
BRANCH  23  25
ATOM     25  C   UNL     1      -1.331  15.653  19.784  0.00  0.00    +0.000 A 
ATOM     26  C   UNL     1      -2.172  16.717  20.144  0.00  0.00    +0.000 A 
ATOM     27  C   UNL     1      -2.097  17.945  19.485  0.00  0.00    +0.000 A 
ATOM     28  C   UNL     1      -1.171  18.125  18.462  0.00  0.00    +0.000 A 
ATOM     29  C   UNL     1      -0.298  17.093  18.121  0.00  0.00    +0.000 A 
ATOM     30  C   UNL     1      -0.370  15.864  18.786  0.00  0.00    +0.000 A 
ENDBRANCH  23  25
ENDBRANCH  13  20
BRANCH   1  31
ATOM     31  O   UNL     1       5.367   4.036  16.769  0.00  0.00    +0.000 OA
BRANCH  31  33
ATOM     32  C   UNL     1       5.933   3.950  14.448  0.00  0.00    +0.000 C 
ATOM     33  C   UNL     1       6.380   4.219  15.874  0.00  0.00    +0.000 C 
ATOM     34  O   UNL     1       7.520   4.557  16.162  0.00  0.00    +0.000 OA
ENDBRANCH  31  33
ENDBRANCH   1  31
TORSDOF 4
ENDMDL
MODEL 6
REMARK VINA RESULT:      -7.6      1.865      3.003
REMARK  Name = 
REMARK  7 active torsions:
REMARK  status: ('A' for Active; 'I' for Inactive)
REMARK    1  A    between atoms: C_1  and  C_2
REMARK    2  A    between atoms: C_2  and  O_4
REMARK    3  A    between atoms: O_4  and  C_5
REMARK    4  A    between atoms: C_8  and  C_9
REMARK    5  A    between atoms: C_17  and  C_18
REMARK    6  A    between atoms: C_21  and  C_22
REMARK    7  A    between atoms: C_29  and  C_30
REMARK                            x       y       z     vdW  Elec       q    Type
REMARK                         _______ _______ _______ _____ _____    ______ ____
ROOT
ATOM      1  C   UNL     1      -4.304  15.267  23.685  0.00  0.00    +0.000 C 
ATOM      2  C   UNL     1      -4.285  13.763  23.982  0.00  0.00    +0.000 C 
ATOM      3  C   UNL     1      -3.082  13.047  23.355  0.00  0.00    +0.000 C 
ATOM      4  C   UNL     1      -2.895  13.299  21.833  0.00  0.00    +0.000 C 
ATOM      5  C   UNL     1      -4.073  12.669  21.048  0.00  0.00    +0.000 C 
ATOM      6  C   UNL     1      -2.904  14.806  21.571  0.00  0.00    +0.000 C 
ATOM      7  C   UNL     1      -2.010  15.416  20.788  0.00  0.00    +0.000 C 
ATOM      8  C   UNL     1      -0.901  14.734  20.052  0.00  0.00    +0.000 C 
ATOM      9  C   UNL     1      -1.036  13.205  20.025  0.00  0.00    +0.000 C 
ATOM     10  C   UNL     1       0.307  12.558  19.683  0.00  0.00    +0.000 C 
ATOM     11  C   UNL     1       0.995  12.949  18.383  0.00  0.00    +0.000 C 
ATOM     12  C   UNL     1       2.066  11.863  18.211  0.00  0.00    +0.000 C 
ATOM     13  C   UNL     1       1.700  10.720  19.195  0.00  0.00    +0.000 C 
ATOM     14  C   UNL     1       0.241  11.019  19.615  0.00  0.00    +0.000 C 
ATOM     15  C   UNL     1      -0.782  10.489  18.576  0.00  0.00    +0.000 C 
ATOM     16  C   UNL     1      -0.134  10.516  21.016  0.00  0.00    +0.000 C 
ATOM     17  C   UNL     1      -1.472  11.114  21.482  0.00  0.00    +0.000 C 
ATOM     18  C   UNL     1      -1.516  12.667  21.404  0.00  0.00    +0.000 C 
ATOM     19  C   UNL     1      -4.033  15.613  22.202  0.00  0.00    +0.000 C 
ENDROOT
BRANCH  13  20
ATOM     20  C   UNL     1       1.942   9.372  18.628  0.00  0.00    +0.000 A 
ATOM     21  N   UNL     1       2.282   9.030  17.403  0.00  0.00    +0.000 NA
ATOM     22  N   UNL     1       2.531   7.679  17.434  0.00  0.00    +0.000 NA
ATOM     23  C   UNL     1       2.317   7.282  18.673  0.00  0.00    +0.000 A 
ATOM     24  O   UNL     1       1.899   8.305  19.488  0.00  0.00    +0.000 OA
BRANCH  23  25
ATOM     25  C   UNL     1       2.485   5.961  19.259  0.00  0.00    +0.000 A 
ATOM     26  C   UNL     1       1.791   5.644  20.437  0.00  0.00    +0.000 A 
ATOM     27  C   UNL     1       1.987   4.419  21.077  0.00  0.00    +0.000 A 
ATOM     28  C   UNL     1       2.874   3.492  20.538  0.00  0.00    +0.000 A 
ATOM     29  C   UNL     1       3.539   3.773  19.345  0.00  0.00    +0.000 A 
ATOM     30  C   UNL     1       3.338   4.999  18.702  0.00  0.00    +0.000 A 
ENDBRANCH  23  25
ENDBRANCH  13  20
BRANCH   1  31
ATOM     31  O   UNL     1      -5.463  15.970  24.234  0.00  0.00    +0.000 OA
BRANCH  31  33
ATOM     32  C   UNL     1      -4.146  17.631  25.336  0.00  0.00    +0.000 C 
ATOM     33  C   UNL     1      -5.414  17.289  24.576  0.00  0.00    +0.000 C 
ATOM     34  O   UNL     1      -6.278  18.116  24.315  0.00  0.00    +0.000 OA
ENDBRANCH  31  33
ENDBRANCH   1  31
TORSDOF 4
ENDMDL
MODEL 7
REMARK VINA RESULT:      -7.6      2.142      3.187
REMARK  Name = 
REMARK  7 active torsions:
REMARK  status: ('A' for Active; 'I' for Inactive)
REMARK    1  A    between atoms: C_1  and  C_2
REMARK    2  A    between atoms: C_2  and  O_4
REMARK    3  A    between atoms: O_4  and  C_5
REMARK    4  A    between atoms: C_8  and  C_9
REMARK    5  A    between atoms: C_17  and  C_18
REMARK    6  A    between atoms: C_21  and  C_22
REMARK    7  A    between atoms: C_29  and  C_30
REMARK                            x       y       z     vdW  Elec       q    Type
REMARK                         _______ _______ _______ _____ _____    ______ ____
ROOT
ATOM      1  C   UNL     1      -3.679  15.318  24.049  0.00  0.00    +0.000 C 
ATOM      2  C   UNL     1      -3.689  13.812  24.337  0.00  0.00    +0.000 C 
ATOM      3  C   UNL     1      -2.555  13.062  23.625  0.00  0.00    +0.000 C 
ATOM      4  C   UNL     1      -2.465  13.319  22.095  0.00  0.00    +0.000 C 
ATOM      5  C   UNL     1      -3.714  12.733  21.390  0.00  0.00    +0.000 C 
ATOM      6  C   UNL     1      -2.443  14.828  21.842  0.00  0.00    +0.000 C 
ATOM      7  C   UNL     1      -1.585  15.414  21.002  0.00  0.00    +0.000 C 
ATOM      8  C   UNL     1      -0.553  14.702  20.187  0.00  0.00    +0.000 C 
ATOM      9  C   UNL     1      -0.739  13.179  20.163  0.00  0.00    +0.000 C 
ATOM     10  C   UNL     1       0.555  12.491  19.725  0.00  0.00    +0.000 C 
ATOM     11  C   UNL     1       1.165  12.870  18.384  0.00  0.00    +0.000 C 
ATOM     12  C   UNL     1       2.186  11.751  18.133  0.00  0.00    +0.000 C 
ATOM     13  C   UNL     1       1.851  10.613  19.135  0.00  0.00    +0.000 C 
ATOM     14  C   UNL     1       0.435  10.955  19.655  0.00  0.00    +0.000 C 
ATOM     15  C   UNL     1      -0.674  10.467  18.687  0.00  0.00    +0.000 C 
ATOM     16  C   UNL     1       0.141  10.455  21.076  0.00  0.00    +0.000 C 
ATOM     17  C   UNL     1      -1.141  11.093  21.636  0.00  0.00    +0.000 C 
ATOM     18  C   UNL     1      -1.140  12.647  21.569  0.00  0.00    +0.000 C 
ATOM     19  C   UNL     1      -3.499  15.666  22.553  0.00  0.00    +0.000 C 
ENDROOT
BRANCH  13  20
ATOM     20  C   UNL     1       2.010   9.262  18.545  0.00  0.00    +0.000 A 
ATOM     21  N   UNL     1       2.463   8.916  17.359  0.00  0.00    +0.000 NA
ATOM     22  N   UNL     1       2.552   7.545  17.363  0.00  0.00    +0.000 NA
ATOM     23  C   UNL     1       2.137   7.143  18.548  0.00  0.00    +0.000 A 
ATOM     24  O   UNL     1       1.737   8.185  19.347  0.00  0.00    +0.000 OA
BRANCH  23  25
ATOM     25  C   UNL     1       2.078   5.795  19.094  0.00  0.00    +0.000 A 
ATOM     26  C   UNL     1       1.958   4.707  18.216  0.00  0.00    +0.000 A 
ATOM     27  C   UNL     1       1.816   3.406  18.701  0.00  0.00    +0.000 A 
ATOM     28  C   UNL     1       1.802   3.178  20.074  0.00  0.00    +0.000 A 
ATOM     29  C   UNL     1       1.963   4.242  20.960  0.00  0.00    +0.000 A 
ATOM     30  C   UNL     1       2.111   5.545  20.473  0.00  0.00    +0.000 A 
ENDBRANCH  23  25
ENDBRANCH  13  20
BRANCH   1  31
ATOM     31  O   UNL     1      -4.774  16.054  24.680  0.00  0.00    +0.000 OA
BRANCH  31  33
ATOM     32  C   UNL     1      -6.277  17.648  23.723  0.00  0.00    +0.000 C 
ATOM     33  C   UNL     1      -5.990  16.200  24.078  0.00  0.00    +0.000 C 
ATOM     34  O   UNL     1      -6.772  15.289  23.843  0.00  0.00    +0.000 OA
ENDBRANCH  31  33
ENDBRANCH   1  31
TORSDOF 4
ENDMDL
MODEL 8
REMARK VINA RESULT:      -7.6      2.696      4.753
REMARK  Name = 
REMARK  7 active torsions:
REMARK  status: ('A' for Active; 'I' for Inactive)
REMARK    1  A    between atoms: C_1  and  C_2
REMARK    2  A    between atoms: C_2  and  O_4
REMARK    3  A    between atoms: O_4  and  C_5
REMARK    4  A    between atoms: C_8  and  C_9
REMARK    5  A    between atoms: C_17  and  C_18
REMARK    6  A    between atoms: C_21  and  C_22
REMARK    7  A    between atoms: C_29  and  C_30
REMARK                            x       y       z     vdW  Elec       q    Type
REMARK                         _______ _______ _______ _____ _____    ______ ____
ROOT
ATOM      1  C   UNL     1      -1.793  11.880  20.216  0.00  0.00    +0.000 C 
ATOM      2  C   UNL     1      -1.046  12.020  18.886  0.00  0.00    +0.000 C 
ATOM      3  C   UNL     1      -0.328  10.730  18.467  0.00  0.00    +0.000 C 
ATOM      4  C   UNL     1       0.607  10.124  19.550  0.00  0.00    +0.000 C 
ATOM      5  C   UNL     1       1.803  11.076  19.802  0.00  0.00    +0.000 C 
ATOM      6  C   UNL     1      -0.171   9.984  20.860  0.00  0.00    +0.000 C 
ATOM      7  C   UNL     1      -0.140   8.881  21.612  0.00  0.00    +0.000 C 
ATOM      8  C   UNL     1       0.654   7.651  21.307  0.00  0.00    +0.000 C 
ATOM      9  C   UNL     1       1.685   7.851  20.188  0.00  0.00    +0.000 C 
ATOM     10  C   UNL     1       2.122   6.501  19.618  0.00  0.00    +0.000 C 
ATOM     11  C   UNL     1       2.714   5.467  20.564  0.00  0.00    +0.000 C 
ATOM     12  C   UNL     1       3.356   4.447  19.613  0.00  0.00    +0.000 C 
ATOM     13  C   UNL     1       3.427   5.125  18.218  0.00  0.00    +0.000 C 
ATOM     14  C   UNL     1       3.178   6.626  18.501  0.00  0.00    +0.000 C 
ATOM     15  C   UNL     1       4.471   7.354  18.952  0.00  0.00    +0.000 C 
ATOM     16  C   UNL     1       2.528   7.393  17.340  0.00  0.00    +0.000 C 
ATOM     17  C   UNL     1       2.030   8.773  17.797  0.00  0.00    +0.000 C 
ATOM     18  C   UNL     1       1.092   8.715  19.037  0.00  0.00    +0.000 C 
ATOM     19  C   UNL     1      -0.963  11.198  21.329  0.00  0.00    +0.000 C 
ENDROOT
BRANCH  13  20
ATOM     20  C   UNL     1       4.677   4.807  17.487  0.00  0.00    +0.000 A 
ATOM     21  N   UNL     1       5.803   4.298  17.940  0.00  0.00    +0.000 NA
ATOM     22  N   UNL     1       6.589   4.058  16.838  0.00  0.00    +0.000 NA
ATOM     23  C   UNL     1       5.896   4.447  15.786  0.00  0.00    +0.000 A 
ATOM     24  O   UNL     1       4.675   4.974  16.127  0.00  0.00    +0.000 OA
BRANCH  23  25
ATOM     25  C   UNL     1       6.242   4.367  14.375  0.00  0.00    +0.000 A 
ATOM     26  C   UNL     1       5.471   3.554  13.529  0.00  0.00    +0.000 A 
ATOM     27  C   UNL     1       5.817   3.384  12.187  0.00  0.00    +0.000 A 
ATOM     28  C   UNL     1       6.935   4.035  11.674  0.00  0.00    +0.000 A 
ATOM     29  C   UNL     1       7.686   4.879  12.489  0.00  0.00    +0.000 A 
ATOM     30  C   UNL     1       7.336   5.054  13.833  0.00  0.00    +0.000 A 
ENDBRANCH  23  25
ENDBRANCH  13  20
BRANCH   1  31
ATOM     31  O   UNL     1      -2.452  13.107  20.664  0.00  0.00    +0.000 OA
BRANCH  31  33
ATOM     32  C   UNL     1      -3.769  13.653  22.582  0.00  0.00    +0.000 C 
ATOM     33  C   UNL     1      -3.720  13.105  21.167  0.00  0.00    +0.000 C 
ATOM     34  O   UNL     1      -4.713  12.713  20.570  0.00  0.00    +0.000 OA
ENDBRANCH  31  33
ENDBRANCH   1  31
TORSDOF 4
ENDMDL
MODEL 9
REMARK VINA RESULT:      -7.4      1.049      1.251
REMARK  Name = 
REMARK  7 active torsions:
REMARK  status: ('A' for Active; 'I' for Inactive)
REMARK    1  A    between atoms: C_1  and  C_2
REMARK    2  A    between atoms: C_2  and  O_4
REMARK    3  A    between atoms: O_4  and  C_5
REMARK    4  A    between atoms: C_8  and  C_9
REMARK    5  A    between atoms: C_17  and  C_18
REMARK    6  A    between atoms: C_21  and  C_22
REMARK    7  A    between atoms: C_29  and  C_30
REMARK                            x       y       z     vdW  Elec       q    Type
REMARK                         _______ _______ _______ _____ _____    ______ ____
ROOT
ATOM      1  C   UNL     1      -4.913  13.773  22.105  0.00  0.00    +0.000 C 
ATOM      2  C   UNL     1      -4.702  13.712  20.588  0.00  0.00    +0.000 C 
ATOM      3  C   UNL     1      -3.782  12.561  20.159  0.00  0.00    +0.000 C 
ATOM      4  C   UNL     1      -2.415  12.511  20.897  0.00  0.00    +0.000 C 
ATOM      5  C   UNL     1      -1.565  13.748  20.509  0.00  0.00    +0.000 C 
ATOM      6  C   UNL     1      -2.660  12.560  22.406  0.00  0.00    +0.000 C 
ATOM      7  C   UNL     1      -2.048  11.745  23.270  0.00  0.00    +0.000 C 
ATOM      8  C   UNL     1      -1.044  10.698  22.906  0.00  0.00    +0.000 C 
ATOM      9  C   UNL     1      -0.532  10.819  21.464  0.00  0.00    +0.000 C 
ATOM     10  C   UNL     1       0.108   9.505  21.014  0.00  0.00    +0.000 C 
ATOM     11  C   UNL     1       1.260   8.938  21.830  0.00  0.00    +0.000 C 
ATOM     12  C   UNL     1       1.861   7.875  20.900  0.00  0.00    +0.000 C 
ATOM     13  C   UNL     1       1.276   8.141  19.487  0.00  0.00    +0.000 C 
ATOM     14  C   UNL     1       0.667   9.560  19.577  0.00  0.00    +0.000 C 
ATOM     15  C   UNL     1       1.736  10.665  19.373  0.00  0.00    +0.000 C 
ATOM     16  C   UNL     1      -0.520   9.805  18.635  0.00  0.00    +0.000 C 
ATOM     17  C   UNL     1      -1.261  11.102  18.999  0.00  0.00    +0.000 C 
ATOM     18  C   UNL     1      -1.696  11.169  20.491  0.00  0.00    +0.000 C 
ATOM     19  C   UNL     1      -3.607  13.637  22.921  0.00  0.00    +0.000 C 
ENDROOT
BRANCH  13  20
ATOM     20  C   UNL     1       2.268   7.935  18.405  0.00  0.00    +0.000 A 
ATOM     21  N   UNL     1       2.545   8.697  17.369  0.00  0.00    +0.000 NA
ATOM     22  N   UNL     1       3.642   8.138  16.759  0.00  0.00    +0.000 NA
ATOM     23  C   UNL     1       3.957   7.065  17.457  0.00  0.00    +0.000 A 
ATOM     24  O   UNL     1       3.098   6.848  18.505  0.00  0.00    +0.000 OA
BRANCH  23  25
ATOM     25  C   UNL     1       5.066   6.140  17.274  0.00  0.00    +0.000 A 
ATOM     26  C   UNL     1       6.211   6.282  18.072  0.00  0.00    +0.000 A 
ATOM     27  C   UNL     1       7.329   5.470  17.874  0.00  0.00    +0.000 A 
ATOM     28  C   UNL     1       7.309   4.498  16.878  0.00  0.00    +0.000 A 
ATOM     29  C   UNL     1       6.164   4.314  16.105  0.00  0.00    +0.000 A 
ATOM     30  C   UNL     1       5.042   5.125  16.308  0.00  0.00    +0.000 A 
ENDBRANCH  23  25
ENDBRANCH  13  20
BRANCH   1  31
ATOM     31  O   UNL     1      -5.751  14.887  22.547  0.00  0.00    +0.000 OA
BRANCH  31  33
ATOM     32  C   UNL     1      -6.792  16.587  21.229  0.00  0.00    +0.000 C 
ATOM     33  C   UNL     1      -6.901  15.229  21.898  0.00  0.00    +0.000 C 
ATOM     34  O   UNL     1      -7.913  14.543  21.850  0.00  0.00    +0.000 OA
ENDBRANCH  31  33
ENDBRANCH   1  31
TORSDOF 4
ENDMDL
