MODEL 1
REMARK VINA RESULT:      -5.3      0.000      0.000
REMARK  Name = 
REMARK  5 active torsions:
REMARK  status: ('A' for Active; 'I' for Inactive)
REMARK    1  A    between atoms: C_2  and  S_3
REMARK    2  A    between atoms: S_3  and  C_4
REMARK    3  A    between atoms: C_4  and  C_5
REMARK    4  A    between atoms: C_5  and  O_6
REMARK    5  A    between atoms: O_6  and  C_7
REMARK                            x       y       z     vdW  Elec       q    Type
REMARK                         _______ _______ _______ _____ _____    ______ ____
ROOT
ATOM      1  C   UNL     1       4.159   4.545  17.774  0.00  0.00    +0.000 A 
ATOM      2  C   UNL     1       4.131   5.935  17.916  0.00  0.00    +0.000 A 
ATOM      3  C   UNL     1       4.685   6.757  16.932  0.00  0.00    +0.000 A 
ATOM      4  C   UNL     1       5.273   6.195  15.801  0.00  0.00    +0.000 A 
ATOM      5  C   UNL     1       5.305   4.809  15.661  0.00  0.00    +0.000 A 
ATOM      6 BR   UNL     1       6.108   4.047  14.128  0.00  0.00    +0.000 Br
ATOM      7  C   UNL     1       4.752   3.984  16.640  0.00  0.00    +0.000 A 
ENDROOT
BRANCH   1   8
ATOM      8  O   UNL     1       3.634   3.647  18.662  0.00  0.00    +0.000 OA
BRANCH   8   9
ATOM      9  C   UNL     1       3.165   2.411  18.113  0.00  0.00    +0.000 C 
BRANCH   9  10
ATOM     10  C   UNL     1       1.785   2.080  18.674  0.00  0.00    +0.000 C 
BRANCH  10  11
ATOM     11  S   UNL     1       1.096   3.504  19.579  0.00  0.00    +0.000 S 
BRANCH  11  13
ATOM     12  N   UNL     1       1.518   2.489  22.204  0.00  0.00    +0.000 NA
ATOM     13  C   UNL     1       1.343   2.919  21.140  0.00  0.00    +0.000 C 
ENDBRANCH  11  13
ENDBRANCH  10  11
ENDBRANCH   9  10
ENDBRANCH   8   9
ENDBRANCH   1   8
TORSDOF 5
ENDMDL
MODEL 2
REMARK VINA RESULT:      -5.3      1.246      1.373
REMARK  Name = 
REMARK  5 active torsions:
REMARK  status: ('A' for Active; 'I' for Inactive)
REMARK    1  A    between atoms: C_2  and  S_3
REMARK    2  A    between atoms: S_3  and  C_4
REMARK    3  A    between atoms: C_4  and  C_5
REMARK    4  A    between atoms: C_5  and  O_6
REMARK    5  A    between atoms: O_6  and  C_7
REMARK                            x       y       z     vdW  Elec       q    Type
REMARK                         _______ _______ _______ _____ _____    ______ ____
ROOT
ATOM      1  C   UNL     1       4.897   4.179  18.089  0.00  0.00    +0.000 A 
ATOM      2  C   UNL     1       6.003   4.717  18.752  0.00  0.00    +0.000 A 
ATOM      3  C   UNL     1       7.158   5.053  18.041  0.00  0.00    +0.000 A 
ATOM      4  C   UNL     1       7.214   4.850  16.664  0.00  0.00    +0.000 A 
ATOM      5  C   UNL     1       6.114   4.309  16.003  0.00  0.00    +0.000 A 
ATOM      6 BR   UNL     1       6.194   4.029  14.135  0.00  0.00    +0.000 Br
ATOM      7  C   UNL     1       4.958   3.973  16.708  0.00  0.00    +0.000 A 
ENDROOT
BRANCH   1   8
ATOM      8  O   UNL     1       3.712   3.830  18.677  0.00  0.00    +0.000 OA
BRANCH   8   9
ATOM      9  C   UNL     1       3.305   2.467  18.526  0.00  0.00    +0.000 C 
BRANCH   9  10
ATOM     10  C   UNL     1       1.787   2.359  18.648  0.00  0.00    +0.000 C 
BRANCH  10  11
ATOM     11  S   UNL     1       1.125   3.693  19.696  0.00  0.00    +0.000 S 
BRANCH  11  13
ATOM     12  N   UNL     1       1.637   2.476  22.217  0.00  0.00    +0.000 NA
ATOM     13  C   UNL     1       1.442   2.983  21.191  0.00  0.00    +0.000 C 
ENDBRANCH  11  13
ENDBRANCH  10  11
ENDBRANCH   9  10
ENDBRANCH   8   9
ENDBRANCH   1   8
TORSDOF 5
ENDMDL
MODEL 3
REMARK VINA RESULT:      -5.2      4.271      5.586
REMARK  Name = 
REMARK  5 active torsions:
REMARK  status: ('A' for Active; 'I' for Inactive)
REMARK    1  A    between atoms: C_2  and  S_3
REMARK    2  A    between atoms: S_3  and  C_4
REMARK    3  A    between atoms: C_4  and  C_5
REMARK    4  A    between atoms: C_5  and  O_6
REMARK    5  A    between atoms: O_6  and  C_7
REMARK                            x       y       z     vdW  Elec       q    Type
REMARK                         _______ _______ _______ _____ _____    ______ ____
ROOT
ATOM      1  C   UNL     1       4.545   4.520  19.191  0.00  0.00    +0.000 A 
ATOM      2  C   UNL     1       4.016   5.790  18.947  0.00  0.00    +0.000 A 
ATOM      3  C   UNL     1       2.761   6.141  19.450  0.00  0.00    +0.000 A 
ATOM      4  C   UNL     1       2.026   5.224  20.197  0.00  0.00    +0.000 A 
ATOM      5  C   UNL     1       2.551   3.956  20.437  0.00  0.00    +0.000 A 
ATOM      6 BR   UNL     1       1.550   2.709  21.447  0.00  0.00    +0.000 Br
ATOM      7  C   UNL     1       3.804   3.600  19.938  0.00  0.00    +0.000 A 
ENDROOT
BRANCH   1   8
ATOM      8  O   UNL     1       5.766   4.074  18.764  0.00  0.00    +0.000 OA
BRANCH   8   9
ATOM      9  C   UNL     1       6.686   5.074  18.317  0.00  0.00    +0.000 C 
BRANCH   9  10
ATOM     10  C   UNL     1       7.461   4.566  17.104  0.00  0.00    +0.000 C 
BRANCH  10  11
ATOM     11  S   UNL     1       6.326   4.137  15.745  0.00  0.00    +0.000 S 
BRANCH  11  13
ATOM     12  N   UNL     1       5.173   6.719  15.424  0.00  0.00    +0.000 NA
ATOM     13  C   UNL     1       5.633   5.660  15.542  0.00  0.00    +0.000 C 
ENDBRANCH  11  13
ENDBRANCH  10  11
ENDBRANCH   9  10
ENDBRANCH   8   9
ENDBRANCH   1   8
TORSDOF 5
ENDMDL
MODEL 4
REMARK VINA RESULT:      -5.1      1.532      1.716
REMARK  Name = 
REMARK  5 active torsions:
REMARK  status: ('A' for Active; 'I' for Inactive)
REMARK    1  A    between atoms: C_2  and  S_3
REMARK    2  A    between atoms: S_3  and  C_4
REMARK    3  A    between atoms: C_4  and  C_5
REMARK    4  A    between atoms: C_5  and  O_6
REMARK    5  A    between atoms: O_6  and  C_7
REMARK                            x       y       z     vdW  Elec       q    Type
REMARK                         _______ _______ _______ _____ _____    ______ ____
ROOT
ATOM      1  C   UNL     1       4.832   5.247  17.963  0.00  0.00    +0.000 A 
ATOM      2  C   UNL     1       6.006   5.277  18.720  0.00  0.00    +0.000 A 
ATOM      3  C   UNL     1       7.233   4.958  18.133  0.00  0.00    +0.000 A 
ATOM      4  C   UNL     1       7.293   4.605  16.787  0.00  0.00    +0.000 A 
ATOM      5  C   UNL     1       6.121   4.570  16.033  0.00  0.00    +0.000 A 
ATOM      6 BR   UNL     1       6.203   4.085  14.206  0.00  0.00    +0.000 Br
ATOM      7  C   UNL     1       4.894   4.889  16.613  0.00  0.00    +0.000 A 
ENDROOT
BRANCH   1   8
ATOM      8  O   UNL     1       3.582   5.555  18.426  0.00  0.00    +0.000 OA
BRANCH   8   9
ATOM      9  C   UNL     1       2.520   4.691  18.011  0.00  0.00    +0.000 C 
BRANCH   9  10
ATOM     10  C   UNL     1       2.618   3.354  18.740  0.00  0.00    +0.000 C 
BRANCH  10  11
ATOM     11  S   UNL     1       0.992   2.848  19.387  0.00  0.00    +0.000 S 
BRANCH  11  13
ATOM     12  N   UNL     1       1.696   2.632  22.136  0.00  0.00    +0.000 NA
ATOM     13  C   UNL     1       1.426   2.723  21.011  0.00  0.00    +0.000 C 
ENDBRANCH  11  13
ENDBRANCH  10  11
ENDBRANCH   9  10
ENDBRANCH   8   9
ENDBRANCH   1   8
TORSDOF 5
ENDMDL
MODEL 5
REMARK VINA RESULT:      -5.1      4.403      5.807
REMARK  Name = 
REMARK  5 active torsions:
REMARK  status: ('A' for Active; 'I' for Inactive)
REMARK    1  A    between atoms: C_2  and  S_3
REMARK    2  A    between atoms: S_3  and  C_4
REMARK    3  A    between atoms: C_4  and  C_5
REMARK    4  A    between atoms: C_5  and  O_6
REMARK    5  A    between atoms: O_6  and  C_7
REMARK                            x       y       z     vdW  Elec       q    Type
REMARK                         _______ _______ _______ _____ _____    ______ ____
ROOT
ATOM      1  C   UNL     1       3.865   3.918  18.252  0.00  0.00    +0.000 A 
ATOM      2  C   UNL     1       2.831   4.266  17.380  0.00  0.00    +0.000 A 
ATOM      3  C   UNL     1       1.498   4.169  17.789  0.00  0.00    +0.000 A 
ATOM      4  C   UNL     1       1.193   3.720  19.072  0.00  0.00    +0.000 A 
ATOM      5  C   UNL     1       2.224   3.368  19.941  0.00  0.00    +0.000 A 
ATOM      6 BR   UNL     1       1.808   2.755  21.680  0.00  0.00    +0.000 Br
ATOM      7  C   UNL     1       3.555   3.466  19.537  0.00  0.00    +0.000 A 
ENDROOT
BRANCH   1   8
ATOM      8  O   UNL     1       5.201   3.990  17.966  0.00  0.00    +0.000 OA
BRANCH   8   9
ATOM      9  C   UNL     1       5.551   4.069  16.581  0.00  0.00    +0.000 C 
BRANCH   9  10
ATOM     10  C   UNL     1       6.584   5.172  16.365  0.00  0.00    +0.000 C 
BRANCH  10  11
ATOM     11  S   UNL     1       7.403   5.606  17.933  0.00  0.00    +0.000 S 
BRANCH  11  13
ATOM     12  N   UNL     1       7.715   8.389  17.425  0.00  0.00    +0.000 NA
ATOM     13  C   UNL     1       7.577   7.258  17.645  0.00  0.00    +0.000 C 
ENDBRANCH  11  13
ENDBRANCH  10  11
ENDBRANCH   9  10
ENDBRANCH   8   9
ENDBRANCH   1   8
TORSDOF 5
ENDMDL
MODEL 6
REMARK VINA RESULT:      -5.1      4.005      5.500
REMARK  Name = 
REMARK  5 active torsions:
REMARK  status: ('A' for Active; 'I' for Inactive)
REMARK    1  A    between atoms: C_2  and  S_3
REMARK    2  A    between atoms: S_3  and  C_4
REMARK    3  A    between atoms: C_4  and  C_5
REMARK    4  A    between atoms: C_5  and  O_6
REMARK    5  A    between atoms: O_6  and  C_7
REMARK                            x       y       z     vdW  Elec       q    Type
REMARK                         _______ _______ _______ _____ _____    ______ ____
ROOT
ATOM      1  C   UNL     1       3.818   4.172  18.003  0.00  0.00    +0.000 A 
ATOM      2  C   UNL     1       3.285   3.197  17.157  0.00  0.00    +0.000 A 
ATOM      3  C   UNL     1       2.400   2.237  17.655  0.00  0.00    +0.000 A 
ATOM      4  C   UNL     1       2.045   2.247  19.002  0.00  0.00    +0.000 A 
ATOM      5  C   UNL     1       2.580   3.217  19.847  0.00  0.00    +0.000 A 
ATOM      6 BR   UNL     1       2.102   3.226  21.677  0.00  0.00    +0.000 Br
ATOM      7  C   UNL     1       3.463   4.177  19.355  0.00  0.00    +0.000 A 
ENDROOT
BRANCH   1   8
ATOM      8  O   UNL     1       4.678   5.167  17.623  0.00  0.00    +0.000 OA
BRANCH   8   9
ATOM      9  C   UNL     1       5.461   4.917  16.452  0.00  0.00    +0.000 C 
BRANCH   9  10
ATOM     10  C   UNL     1       6.947   5.015  16.787  0.00  0.00    +0.000 C 
BRANCH  10  11
ATOM     11  S   UNL     1       7.299   6.535  17.728  0.00  0.00    +0.000 S 
BRANCH  11  13
ATOM     12  N   UNL     1       7.826   5.307  20.240  0.00  0.00    +0.000 NA
ATOM     13  C   UNL     1       7.595   5.812  19.220  0.00  0.00    +0.000 C 
ENDBRANCH  11  13
ENDBRANCH  10  11
ENDBRANCH   9  10
ENDBRANCH   8   9
ENDBRANCH   1   8
TORSDOF 5
ENDMDL
MODEL 7
REMARK VINA RESULT:      -5.1      1.497      1.611
REMARK  Name = 
REMARK  5 active torsions:
REMARK  status: ('A' for Active; 'I' for Inactive)
REMARK    1  A    between atoms: C_2  and  S_3
REMARK    2  A    between atoms: S_3  and  C_4
REMARK    3  A    between atoms: C_4  and  C_5
REMARK    4  A    between atoms: C_5  and  O_6
REMARK    5  A    between atoms: O_6  and  C_7
REMARK                            x       y       z     vdW  Elec       q    Type
REMARK                         _______ _______ _______ _____ _____    ______ ____
ROOT
ATOM      1  C   UNL     1       4.987   4.469  18.371  0.00  0.00    +0.000 A 
ATOM      2  C   UNL     1       4.554   5.792  18.486  0.00  0.00    +0.000 A 
ATOM      3  C   UNL     1       4.566   6.639  17.374  0.00  0.00    +0.000 A 
ATOM      4  C   UNL     1       5.014   6.167  16.142  0.00  0.00    +0.000 A 
ATOM      5  C   UNL     1       5.450   4.849  16.028  0.00  0.00    +0.000 A 
ATOM      6 BR   UNL     1       6.062   4.211  14.356  0.00  0.00    +0.000 Br
ATOM      7  C   UNL     1       5.438   4.000  17.134  0.00  0.00    +0.000 A 
ENDROOT
BRANCH   1   8
ATOM      8  O   UNL     1       5.003   3.549  19.384  0.00  0.00    +0.000 OA
BRANCH   8   9
ATOM      9  C   UNL     1       3.923   2.611  19.407  0.00  0.00    +0.000 C 
BRANCH   9  10
ATOM     10  C   UNL     1       3.169   2.717  20.730  0.00  0.00    +0.000 C 
BRANCH  10  11
ATOM     11  S   UNL     1       1.689   3.765  20.549  0.00  0.00    +0.000 S 
BRANCH  11  13
ATOM     12  N   UNL     1       0.389   2.231  18.536  0.00  0.00    +0.000 NA
ATOM     13  C   UNL     1       0.925   2.868  19.345  0.00  0.00    +0.000 C 
ENDBRANCH  11  13
ENDBRANCH  10  11
ENDBRANCH   9  10
ENDBRANCH   8   9
ENDBRANCH   1   8
TORSDOF 5
ENDMDL
MODEL 8
REMARK VINA RESULT:      -5.0      4.064      5.709
REMARK  Name = 
REMARK  5 active torsions:
REMARK  status: ('A' for Active; 'I' for Inactive)
REMARK    1  A    between atoms: C_2  and  S_3
REMARK    2  A    between atoms: S_3  and  C_4
REMARK    3  A    between atoms: C_4  and  C_5
REMARK    4  A    between atoms: C_5  and  O_6
REMARK    5  A    between atoms: O_6  and  C_7
REMARK                            x       y       z     vdW  Elec       q    Type
REMARK                         _______ _______ _______ _____ _____    ______ ____
ROOT
ATOM      1  C   UNL     1       3.960   4.239  18.628  0.00  0.00    +0.000 A 
ATOM      2  C   UNL     1       3.855   3.258  17.638  0.00  0.00    +0.000 A 
ATOM      3  C   UNL     1       3.011   2.159  17.819  0.00  0.00    +0.000 A 
ATOM      4  C   UNL     1       2.271   2.033  18.993  0.00  0.00    +0.000 A 
ATOM      5  C   UNL     1       2.380   3.008  19.982  0.00  0.00    +0.000 A 
ATOM      6 BR   UNL     1       1.379   2.833  21.577  0.00  0.00    +0.000 Br
ATOM      7  C   UNL     1       3.219   4.108  19.805  0.00  0.00    +0.000 A 
ENDROOT
BRANCH   1   8
ATOM      8  O   UNL     1       4.738   5.362  18.551  0.00  0.00    +0.000 OA
BRANCH   8   9
ATOM      9  C   UNL     1       4.461   6.254  17.467  0.00  0.00    +0.000 C 
BRANCH   9  10
ATOM     10  C   UNL     1       5.761   6.652  16.773  0.00  0.00    +0.000 C 
BRANCH  10  11
ATOM     11  S   UNL     1       6.415   5.270  15.782  0.00  0.00    +0.000 S 
BRANCH  11  13
ATOM     12  N   UNL     1       8.171   4.220  17.760  0.00  0.00    +0.000 NA
ATOM     13  C   UNL     1       7.458   4.635  16.942  0.00  0.00    +0.000 C 
ENDBRANCH  11  13
ENDBRANCH  10  11
ENDBRANCH   9  10
ENDBRANCH   8   9
ENDBRANCH   1   8
TORSDOF 5
ENDMDL
MODEL 9
REMARK VINA RESULT:      -5.0      1.968      2.365
REMARK  Name = 
REMARK  5 active torsions:
REMARK  status: ('A' for Active; 'I' for Inactive)
REMARK    1  A    between atoms: C_2  and  S_3
REMARK    2  A    between atoms: S_3  and  C_4
REMARK    3  A    between atoms: C_4  and  C_5
REMARK    4  A    between atoms: C_5  and  O_6
REMARK    5  A    between atoms: O_6  and  C_7
REMARK                            x       y       z     vdW  Elec       q    Type
REMARK                         _______ _______ _______ _____ _____    ______ ____
ROOT
ATOM      1  C   UNL     1       4.382   5.084  17.551  0.00  0.00    +0.000 A 
ATOM      2  C   UNL     1       4.766   4.106  16.630  0.00  0.00    +0.000 A 
ATOM      3  C   UNL     1       6.011   4.179  16.000  0.00  0.00    +0.000 A 
ATOM      4  C   UNL     1       6.878   5.232  16.286  0.00  0.00    +0.000 A 
ATOM      5  C   UNL     1       6.494   6.209  17.202  0.00  0.00    +0.000 A 
ATOM      6 BR   UNL     1       7.669   7.640  17.586  0.00  0.00    +0.000 Br
ATOM      7  C   UNL     1       5.253   6.140  17.834  0.00  0.00    +0.000 A 
ENDROOT
BRANCH   1   8
ATOM      8  O   UNL     1       3.199   5.104  18.238  0.00  0.00    +0.000 OA
BRANCH   8   9
ATOM      9  C   UNL     1       2.137   4.313  17.697  0.00  0.00    +0.000 C 
BRANCH   9  10
ATOM     10  C   UNL     1       1.275   3.755  18.826  0.00  0.00    +0.000 C 
BRANCH  10  11
ATOM     11  S   UNL     1       1.972   2.196  19.462  0.00  0.00    +0.000 S 
BRANCH  11  13
ATOM     12  N   UNL     1       2.304   3.005  22.169  0.00  0.00    +0.000 NA
ATOM     13  C   UNL     1       2.152   2.670  21.069  0.00  0.00    +0.000 C 
ENDBRANCH  11  13
ENDBRANCH  10  11
ENDBRANCH   9  10
ENDBRANCH   8   9
ENDBRANCH   1   8
TORSDOF 5
ENDMDL
