MODEL 1
REMARK VINA RESULT:      -8.6      0.000      0.000
REMARK  Name = 
REMARK  3 active torsions:
REMARK  status: ('A' for Active; 'I' for Inactive)
REMARK    1  A    between atoms: C_1  and  O_2
REMARK    2  A    between atoms: O_2  and  C_3
REMARK    3  A    between atoms: C_8  and  C_9
REMARK                            x       y       z     vdW  Elec       q    Type
REMARK                         _______ _______ _______ _____ _____    ______ ____
ROOT
ATOM      1  C   UNL     1       3.966   5.649  17.630  0.00  0.00    +0.000 A 
ATOM      2  N   UNL     1       3.663   4.821  18.640  0.00  0.00    +0.000 NA
ATOM      3  C   UNL     1       2.830   5.271  19.589  0.00  0.00    +0.000 A 
ATOM      4  N   UNL     1       2.287   4.354  20.526  0.00  0.00    +0.000 N 
ATOM      5  C   UNL     1       3.104   3.137  20.760  0.00  0.00    +0.000 C 
ATOM      6  C   UNL     1       2.881   2.045  19.708  0.00  0.00    +0.000 C 
ATOM      7  O   UNL     1       1.488   1.745  19.527  0.00  0.00    +0.000 OA
ATOM      8  C   UNL     1       0.804   2.928  19.090  0.00  0.00    +0.000 C 
ATOM      9  C   UNL     1       0.880   4.026  20.165  0.00  0.00    +0.000 C 
ATOM     10  C   UNL     1       2.391   6.600  19.623  0.00  0.00    +0.000 A 
ATOM     11  C   UNL     1       1.724   7.185  20.728  0.00  0.00    +0.000 A 
ATOM     12  C   UNL     1       1.201   8.466  20.650  0.00  0.00    +0.000 A 
ATOM     13  C   UNL     1       1.318   9.159  19.452  0.00  0.00    +0.000 A 
ATOM     14  C   UNL     1       2.038   8.598  18.385  0.00  0.00    +0.000 A 
ATOM     15  C   UNL     1       2.638   7.341  18.469  0.00  0.00    +0.000 A 
ATOM     16  N   UNL     1       3.415   6.876  17.477  0.00  0.00    +0.000 NA
ENDROOT
BRANCH   1  22
ATOM     17  C   UNL     1       6.425   5.756  16.881  0.00  0.00    +0.000 A 
ATOM     18  C   UNL     1       7.381   5.532  15.873  0.00  0.00    +0.000 A 
ATOM     19  C   UNL     1       7.079   4.749  14.765  0.00  0.00    +0.000 A 
ATOM     20  C   UNL     1       5.820   4.177  14.653  0.00  0.00    +0.000 A 
ATOM     21  C   UNL     1       4.846   4.445  15.621  0.00  0.00    +0.000 A 
ATOM     22  C   UNL     1       5.099   5.273  16.740  0.00  0.00    +0.000 A 
BRANCH  17  24
ATOM     23  C   UNL     1       7.471   5.766  19.019  0.00  0.00    +0.000 C 
ATOM     24  O   UNL     1       6.745   6.464  18.011  0.00  0.00    +0.000 OA
ENDBRANCH  17  24
ENDBRANCH   1  22
TORSDOF 2
ENDMDL
MODEL 2
REMARK VINA RESULT:      -8.0      1.902      5.933
REMARK  Name = 
REMARK  3 active torsions:
REMARK  status: ('A' for Active; 'I' for Inactive)
REMARK    1  A    between atoms: C_1  and  O_2
REMARK    2  A    between atoms: O_2  and  C_3
REMARK    3  A    between atoms: C_8  and  C_9
REMARK                            x       y       z     vdW  Elec       q    Type
REMARK                         _______ _______ _______ _____ _____    ______ ____
ROOT
ATOM      1  C   UNL     1       2.852   6.592  18.321  0.00  0.00    +0.000 A 
ATOM      2  N   UNL     1       4.173   6.371  18.393  0.00  0.00    +0.000 NA
ATOM      3  C   UNL     1       4.594   5.099  18.420  0.00  0.00    +0.000 A 
ATOM      4  N   UNL     1       5.974   4.822  18.239  0.00  0.00    +0.000 N 
ATOM      5  C   UNL     1       6.891   5.925  18.621  0.00  0.00    +0.000 C 
ATOM      6  C   UNL     1       7.059   6.981  17.523  0.00  0.00    +0.000 C 
ATOM      7  O   UNL     1       7.400   6.396  16.257  0.00  0.00    +0.000 OA
ATOM      8  C   UNL     1       6.354   5.500  15.854  0.00  0.00    +0.000 C 
ATOM      9  C   UNL     1       6.222   4.338  16.854  0.00  0.00    +0.000 C 
ATOM     10  C   UNL     1       3.703   4.024  18.515  0.00  0.00    +0.000 A 
ATOM     11  C   UNL     1       4.096   2.692  18.799  0.00  0.00    +0.000 A 
ATOM     12  C   UNL     1       3.183   1.652  18.751  0.00  0.00    +0.000 A 
ATOM     13  C   UNL     1       1.872   1.935  18.388  0.00  0.00    +0.000 A 
ATOM     14  C   UNL     1       1.477   3.265  18.173  0.00  0.00    +0.000 A 
ATOM     15  C   UNL     1       2.364   4.336  18.291  0.00  0.00    +0.000 A 
ATOM     16  N   UNL     1       1.935   5.605  18.193  0.00  0.00    +0.000 NA
ENDROOT
BRANCH   1  22
ATOM     17  C   UNL     1       1.630   8.364  19.729  0.00  0.00    +0.000 A 
ATOM     18  C   UNL     1       1.014   9.628  19.793  0.00  0.00    +0.000 A 
ATOM     19  C   UNL     1       1.194  10.561  18.778  0.00  0.00    +0.000 A 
ATOM     20  C   UNL     1       1.994  10.243  17.690  0.00  0.00    +0.000 A 
ATOM     21  C   UNL     1       2.560   8.967  17.591  0.00  0.00    +0.000 A 
ATOM     22  C   UNL     1       2.364   7.975  18.580  0.00  0.00    +0.000 A 
BRANCH  17  24
ATOM     23  C   UNL     1       0.559   7.782  21.774  0.00  0.00    +0.000 C 
ATOM     24  O   UNL     1       1.516   7.473  20.765  0.00  0.00    +0.000 OA
ENDBRANCH  17  24
ENDBRANCH   1  22
TORSDOF 2
ENDMDL
MODEL 3
REMARK VINA RESULT:      -7.7      1.666      5.295
REMARK  Name = 
REMARK  3 active torsions:
REMARK  status: ('A' for Active; 'I' for Inactive)
REMARK    1  A    between atoms: C_1  and  O_2
REMARK    2  A    between atoms: O_2  and  C_3
REMARK    3  A    between atoms: C_8  and  C_9
REMARK                            x       y       z     vdW  Elec       q    Type
REMARK                         _______ _______ _______ _____ _____    ______ ____
ROOT
ATOM      1  C   UNL     1       3.261   6.672  18.138  0.00  0.00    +0.000 A 
ATOM      2  N   UNL     1       2.675   5.465  18.123  0.00  0.00    +0.000 NA
ATOM      3  C   UNL     1       3.320   4.465  17.508  0.00  0.00    +0.000 A 
ATOM      4  N   UNL     1       2.865   3.133  17.688  0.00  0.00    +0.000 N 
ATOM      5  C   UNL     1       1.426   3.001  18.028  0.00  0.00    +0.000 C 
ATOM      6  C   UNL     1       1.135   3.199  19.520  0.00  0.00    +0.000 C 
ATOM      7  O   UNL     1       1.973   2.377  20.347  0.00  0.00    +0.000 OA
ATOM      8  C   UNL     1       3.347   2.719  20.115  0.00  0.00    +0.000 C 
ATOM      9  C   UNL     1       3.740   2.419  18.657  0.00  0.00    +0.000 C 
ATOM     10  C   UNL     1       4.496   4.677  16.778  0.00  0.00    +0.000 A 
ATOM     11  C   UNL     1       5.072   3.716  15.910  0.00  0.00    +0.000 A 
ATOM     12  C   UNL     1       6.304   3.938  15.316  0.00  0.00    +0.000 A 
ATOM     13  C   UNL     1       6.982   5.114  15.612  0.00  0.00    +0.000 A 
ATOM     14  C   UNL     1       6.373   6.088  16.420  0.00  0.00    +0.000 A 
ATOM     15  C   UNL     1       5.101   5.917  16.966  0.00  0.00    +0.000 A 
ATOM     16  N   UNL     1       4.496   6.910  17.639  0.00  0.00    +0.000 NA
ENDROOT
BRANCH   1  22
ATOM     17  C   UNL     1       1.863   7.997  19.844  0.00  0.00    +0.000 A 
ATOM     18  C   UNL     1       0.917   9.009  20.090  0.00  0.00    +0.000 A 
ATOM     19  C   UNL     1       0.596   9.938  19.107  0.00  0.00    +0.000 A 
ATOM     20  C   UNL     1       1.219   9.869  17.869  0.00  0.00    +0.000 A 
ATOM     21  C   UNL     1       2.116   8.830  17.599  0.00  0.00    +0.000 A 
ATOM     22  C   UNL     1       2.435   7.839  18.556  0.00  0.00    +0.000 A 
BRANCH  17  24
ATOM     23  C   UNL     1       1.339   6.061  21.126  0.00  0.00    +0.000 C 
ATOM     24  O   UNL     1       2.238   7.127  20.836  0.00  0.00    +0.000 OA
ENDBRANCH  17  24
ENDBRANCH   1  22
TORSDOF 2
ENDMDL
MODEL 4
REMARK VINA RESULT:      -7.7      1.804      5.410
REMARK  Name = 
REMARK  3 active torsions:
REMARK  status: ('A' for Active; 'I' for Inactive)
REMARK    1  A    between atoms: C_1  and  O_2
REMARK    2  A    between atoms: O_2  and  C_3
REMARK    3  A    between atoms: C_8  and  C_9
REMARK                            x       y       z     vdW  Elec       q    Type
REMARK                         _______ _______ _______ _____ _____    ______ ____
ROOT
ATOM      1  C   UNL     1       2.632   7.237  18.442  0.00  0.00    +0.000 A 
ATOM      2  N   UNL     1       2.147   5.993  18.561  0.00  0.00    +0.000 NA
ATOM      3  C   UNL     1       2.885   4.984  18.077  0.00  0.00    +0.000 A 
ATOM      4  N   UNL     1       2.536   3.649  18.406  0.00  0.00    +0.000 N 
ATOM      5  C   UNL     1       1.105   3.439  18.740  0.00  0.00    +0.000 C 
ATOM      6  C   UNL     1       0.765   3.784  20.194  0.00  0.00    +0.000 C 
ATOM      7  O   UNL     1       1.647   3.137  21.124  0.00  0.00    +0.000 OA
ATOM      8  C   UNL     1       2.994   3.562  20.871  0.00  0.00    +0.000 C 
ATOM      9  C   UNL     1       3.443   3.128  19.465  0.00  0.00    +0.000 C 
ATOM     10  C   UNL     1       4.056   5.208  17.342  0.00  0.00    +0.000 A 
ATOM     11  C   UNL     1       4.728   4.204  16.601  0.00  0.00    +0.000 A 
ATOM     12  C   UNL     1       5.951   4.457  16.002  0.00  0.00    +0.000 A 
ATOM     13  C   UNL     1       6.525   5.712  16.167  0.00  0.00    +0.000 A 
ATOM     14  C   UNL     1       5.821   6.719  16.846  0.00  0.00    +0.000 A 
ATOM     15  C   UNL     1       4.554   6.507  17.391  0.00  0.00    +0.000 A 
ATOM     16  N   UNL     1       3.855   7.518  17.935  0.00  0.00    +0.000 NA
ENDROOT
BRANCH   1  22
ATOM     17  C   UNL     1       1.225   8.731  19.994  0.00  0.00    +0.000 A 
ATOM     18  C   UNL     1       0.184   9.667  20.136  0.00  0.00    +0.000 A 
ATOM     19  C   UNL     1      -0.329  10.335  19.030  0.00  0.00    +0.000 A 
ATOM     20  C   UNL     1       0.195  10.079  17.771  0.00  0.00    +0.000 A 
ATOM     21  C   UNL     1       1.189   9.106  17.616  0.00  0.00    +0.000 A 
ATOM     22  C   UNL     1       1.706   8.372  18.709  0.00  0.00    +0.000 A 
BRANCH  17  24
ATOM     23  C   UNL     1       1.638   8.805  22.337  0.00  0.00    +0.000 C 
ATOM     24  O   UNL     1       1.785   8.128  21.092  0.00  0.00    +0.000 OA
ENDBRANCH  17  24
ENDBRANCH   1  22
TORSDOF 2
ENDMDL
MODEL 5
REMARK VINA RESULT:      -7.5      1.763      5.492
REMARK  Name = 
REMARK  3 active torsions:
REMARK  status: ('A' for Active; 'I' for Inactive)
REMARK    1  A    between atoms: C_1  and  O_2
REMARK    2  A    between atoms: O_2  and  C_3
REMARK    3  A    between atoms: C_8  and  C_9
REMARK                            x       y       z     vdW  Elec       q    Type
REMARK                         _______ _______ _______ _____ _____    ______ ____
ROOT
ATOM      1  C   UNL     1       2.499   6.798  19.265  0.00  0.00    +0.000 A 
ATOM      2  N   UNL     1       2.040   5.538  19.288  0.00  0.00    +0.000 NA
ATOM      3  C   UNL     1       2.648   4.636  18.506  0.00  0.00    +0.000 A 
ATOM      4  N   UNL     1       2.367   3.257  18.690  0.00  0.00    +0.000 N 
ATOM      5  C   UNL     1       1.040   2.961  19.285  0.00  0.00    +0.000 C 
ATOM      6  C   UNL     1       1.023   3.069  20.814  0.00  0.00    +0.000 C 
ATOM      7  O   UNL     1       2.080   2.308  21.420  0.00  0.00    +0.000 OA
ATOM      8  C   UNL     1       3.344   2.802  20.955  0.00  0.00    +0.000 C 
ATOM      9  C   UNL     1       3.477   2.603  19.435  0.00  0.00    +0.000 C 
ATOM     10  C   UNL     1       3.636   5.000  17.583  0.00  0.00    +0.000 A 
ATOM     11  C   UNL     1       4.125   4.140  16.567  0.00  0.00    +0.000 A 
ATOM     12  C   UNL     1       5.192   4.515  15.768  0.00  0.00    +0.000 A 
ATOM     13  C   UNL     1       5.798   5.743  16.000  0.00  0.00    +0.000 A 
ATOM     14  C   UNL     1       5.265   6.615  16.963  0.00  0.00    +0.000 A 
ATOM     15  C   UNL     1       4.143   6.289  17.727  0.00  0.00    +0.000 A 
ATOM     16  N   UNL     1       3.586   7.185  18.558  0.00  0.00    +0.000 NA
ENDROOT
BRANCH   1  22
ATOM     17  C   UNL     1       1.419   9.132  19.333  0.00  0.00    +0.000 A 
ATOM     18  C   UNL     1       0.807  10.148  20.090  0.00  0.00    +0.000 A 
ATOM     19  C   UNL     1       0.335   9.893  21.373  0.00  0.00    +0.000 A 
ATOM     20  C   UNL     1       0.465   8.621  21.911  0.00  0.00    +0.000 A 
ATOM     21  C   UNL     1       1.126   7.624  21.186  0.00  0.00    +0.000 A 
ATOM     22  C   UNL     1       1.660   7.854  19.898  0.00  0.00    +0.000 A 
BRANCH  17  24
ATOM     23  C   UNL     1       2.223  10.688  17.721  0.00  0.00    +0.000 C 
ATOM     24  O   UNL     1       1.816   9.361  18.040  0.00  0.00    +0.000 OA
ENDBRANCH  17  24
ENDBRANCH   1  22
TORSDOF 2
ENDMDL
MODEL 6
REMARK VINA RESULT:      -7.4      1.272      1.849
REMARK  Name = 
REMARK  3 active torsions:
REMARK  status: ('A' for Active; 'I' for Inactive)
REMARK    1  A    between atoms: C_1  and  O_2
REMARK    2  A    between atoms: O_2  and  C_3
REMARK    3  A    between atoms: C_8  and  C_9
REMARK                            x       y       z     vdW  Elec       q    Type
REMARK                         _______ _______ _______ _____ _____    ______ ____
ROOT
ATOM      1  C   UNL     1       3.791   6.210  18.074  0.00  0.00    +0.000 A 
ATOM      2  N   UNL     1       3.473   5.453  19.135  0.00  0.00    +0.000 NA
ATOM      3  C   UNL     1       2.559   5.929  19.991  0.00  0.00    +0.000 A 
ATOM      4  N   UNL     1       2.012   5.063  20.973  0.00  0.00    +0.000 N 
ATOM      5  C   UNL     1       2.882   3.924  21.360  0.00  0.00    +0.000 C 
ATOM      6  C   UNL     1       2.788   2.735  20.398  0.00  0.00    +0.000 C 
ATOM      7  O   UNL     1       1.429   2.334  20.166  0.00  0.00    +0.000 OA
ATOM      8  C   UNL     1       0.706   3.430  19.587  0.00  0.00    +0.000 C 
ATOM      9  C   UNL     1       0.652   4.618  20.564  0.00  0.00    +0.000 C 
ATOM     10  C   UNL     1       2.043   7.226  19.882  0.00  0.00    +0.000 A 
ATOM     11  C   UNL     1       1.276   7.860  20.891  0.00  0.00    +0.000 A 
ATOM     12  C   UNL     1       0.686   9.094  20.670  0.00  0.00    +0.000 A 
ATOM     13  C   UNL     1       0.836   9.689  19.424  0.00  0.00    +0.000 A 
ATOM     14  C   UNL     1       1.652   9.085  18.454  0.00  0.00    +0.000 A 
ATOM     15  C   UNL     1       2.317   7.880  18.683  0.00  0.00    +0.000 A 
ATOM     16  N   UNL     1       3.181   7.382  17.782  0.00  0.00    +0.000 NA
ENDROOT
BRANCH   1  22
ATOM     17  C   UNL     1       5.125   4.629  16.545  0.00  0.00    +0.000 A 
ATOM     18  C   UNL     1       6.370   4.242  16.016  0.00  0.00    +0.000 A 
ATOM     19  C   UNL     1       7.479   5.074  16.121  0.00  0.00    +0.000 A 
ATOM     20  C   UNL     1       7.355   6.304  16.752  0.00  0.00    +0.000 A 
ATOM     21  C   UNL     1       6.136   6.668  17.332  0.00  0.00    +0.000 A 
ATOM     22  C   UNL     1       4.997   5.831  17.286  0.00  0.00    +0.000 A 
BRANCH  17  24
ATOM     23  C   UNL     1       3.936   2.663  17.168  0.00  0.00    +0.000 C 
ATOM     24  O   UNL     1       4.014   3.844  16.374  0.00  0.00    +0.000 OA
ENDBRANCH  17  24
ENDBRANCH   1  22
TORSDOF 2
ENDMDL
MODEL 7
REMARK VINA RESULT:      -7.3      1.995      5.742
REMARK  Name = 
REMARK  3 active torsions:
REMARK  status: ('A' for Active; 'I' for Inactive)
REMARK    1  A    between atoms: C_1  and  O_2
REMARK    2  A    between atoms: O_2  and  C_3
REMARK    3  A    between atoms: C_8  and  C_9
REMARK                            x       y       z     vdW  Elec       q    Type
REMARK                         _______ _______ _______ _____ _____    ______ ____
ROOT
ATOM      1  C   UNL     1       2.385   6.731  19.280  0.00  0.00    +0.000 A 
ATOM      2  N   UNL     1       3.645   6.395  18.963  0.00  0.00    +0.000 NA
ATOM      3  C   UNL     1       4.066   5.166  19.291  0.00  0.00    +0.000 A 
ATOM      4  N   UNL     1       5.288   4.686  18.753  0.00  0.00    +0.000 N 
ATOM      5  C   UNL     1       6.265   5.739  18.378  0.00  0.00    +0.000 C 
ATOM      6  C   UNL     1       6.004   6.341  16.992  0.00  0.00    +0.000 C 
ATOM      7  O   UNL     1       5.869   5.330  15.981  0.00  0.00    +0.000 OA
ATOM      8  C   UNL     1       4.761   4.479  16.309  0.00  0.00    +0.000 C 
ATOM      9  C   UNL     1       5.020   3.741  17.635  0.00  0.00    +0.000 C 
ATOM     10  C   UNL     1       3.286   4.295  20.062  0.00  0.00    +0.000 A 
ATOM     11  C   UNL     1       3.777   3.099  20.643  0.00  0.00    +0.000 A 
ATOM     12  C   UNL     1       2.925   2.216  21.285  0.00  0.00    +0.000 A 
ATOM     13  C   UNL     1       1.567   2.511  21.324  0.00  0.00    +0.000 A 
ATOM     14  C   UNL     1       1.102   3.729  20.804  0.00  0.00    +0.000 A 
ATOM     15  C   UNL     1       1.954   4.667  20.221  0.00  0.00    +0.000 A 
ATOM     16  N   UNL     1       1.499   5.871  19.835  0.00  0.00    +0.000 NA
ENDROOT
BRANCH   1  22
ATOM     17  C   UNL     1       1.353   8.894  20.214  0.00  0.00    +0.000 A 
ATOM     18  C   UNL     1       0.828  10.176  19.966  0.00  0.00    +0.000 A 
ATOM     19  C   UNL     1       1.023  10.800  18.739  0.00  0.00    +0.000 A 
ATOM     20  C   UNL     1       1.747  10.153  17.748  0.00  0.00    +0.000 A 
ATOM     21  C   UNL     1       2.220   8.855  17.968  0.00  0.00    +0.000 A 
ATOM     22  C   UNL     1       2.004   8.168  19.185  0.00  0.00    +0.000 A 
BRANCH  17  24
ATOM     23  C   UNL     1       0.896   9.171  22.534  0.00  0.00    +0.000 C 
ATOM     24  O   UNL     1       1.229   8.309  21.449  0.00  0.00    +0.000 OA
ENDBRANCH  17  24
ENDBRANCH   1  22
TORSDOF 2
ENDMDL
MODEL 8
REMARK VINA RESULT:      -7.2      1.146      2.050
REMARK  Name = 
REMARK  3 active torsions:
REMARK  status: ('A' for Active; 'I' for Inactive)
REMARK    1  A    between atoms: C_1  and  O_2
REMARK    2  A    between atoms: O_2  and  C_3
REMARK    3  A    between atoms: C_8  and  C_9
REMARK                            x       y       z     vdW  Elec       q    Type
REMARK                         _______ _______ _______ _____ _____    ______ ____
ROOT
ATOM      1  C   UNL     1       4.249   5.998  18.518  0.00  0.00    +0.000 A 
ATOM      2  N   UNL     1       3.678   5.335  19.534  0.00  0.00    +0.000 NA
ATOM      3  C   UNL     1       2.587   5.872  20.097  0.00  0.00    +0.000 A 
ATOM      4  N   UNL     1       1.812   5.089  20.991  0.00  0.00    +0.000 N 
ATOM      5  C   UNL     1       2.553   4.002  21.678  0.00  0.00    +0.000 C 
ATOM      6  C   UNL     1       2.686   2.730  20.833  0.00  0.00    +0.000 C 
ATOM      7  O   UNL     1       1.421   2.291  20.316  0.00  0.00    +0.000 OA
ATOM      8  C   UNL     1       0.868   3.320  19.483  0.00  0.00    +0.000 C 
ATOM      9  C   UNL     1       0.588   4.590  20.306  0.00  0.00    +0.000 C 
ATOM     10  C   UNL     1       2.123   7.147  19.749  0.00  0.00    +0.000 A 
ATOM     11  C   UNL     1       1.138   7.857  20.481  0.00  0.00    +0.000 A 
ATOM     12  C   UNL     1       0.629   9.057  20.014  0.00  0.00    +0.000 A 
ATOM     13  C   UNL     1       1.082   9.541  18.793  0.00  0.00    +0.000 A 
ATOM     14  C   UNL     1       2.104   8.864  18.108  0.00  0.00    +0.000 A 
ATOM     15  C   UNL     1       2.685   7.694  18.599  0.00  0.00    +0.000 A 
ATOM     16  N   UNL     1       3.737   7.131  17.982  0.00  0.00    +0.000 NA
ENDROOT
BRANCH   1  22
ATOM     17  C   UNL     1       5.900   4.991  16.822  0.00  0.00    +0.000 A 
ATOM     18  C   UNL     1       7.157   4.408  16.574  0.00  0.00    +0.000 A 
ATOM     19  C   UNL     1       8.171   4.472  17.522  0.00  0.00    +0.000 A 
ATOM     20  C   UNL     1       7.944   5.123  18.726  0.00  0.00    +0.000 A 
ATOM     21  C   UNL     1       6.679   5.652  19.002  0.00  0.00    +0.000 A 
ATOM     22  C   UNL     1       5.607   5.568  18.083  0.00  0.00    +0.000 A 
BRANCH  17  24
ATOM     23  C   UNL     1       5.283   4.476  14.581  0.00  0.00    +0.000 C 
ATOM     24  O   UNL     1       4.924   4.996  15.858  0.00  0.00    +0.000 OA
ENDBRANCH  17  24
ENDBRANCH   1  22
TORSDOF 2
ENDMDL
MODEL 9
REMARK VINA RESULT:      -6.5      8.698     11.449
REMARK  Name = 
REMARK  3 active torsions:
REMARK  status: ('A' for Active; 'I' for Inactive)
REMARK    1  A    between atoms: C_1  and  O_2
REMARK    2  A    between atoms: O_2  and  C_3
REMARK    3  A    between atoms: C_8  and  C_9
REMARK                            x       y       z     vdW  Elec       q    Type
REMARK                         _______ _______ _______ _____ _____    ______ ____
ROOT
ATOM      1  C   UNL     1      -2.901  12.279  20.218  0.00  0.00    +0.000 A 
ATOM      2  N   UNL     1      -4.169  12.635  19.964  0.00  0.00    +0.000 NA
ATOM      3  C   UNL     1      -4.713  12.229  18.809  0.00  0.00    +0.000 A 
ATOM      4  N   UNL     1      -6.113  12.362  18.618  0.00  0.00    +0.000 N 
ATOM      5  C   UNL     1      -6.756  13.438  19.414  0.00  0.00    +0.000 C 
ATOM      6  C   UNL     1      -7.090  13.013  20.849  0.00  0.00    +0.000 C 
ATOM      7  O   UNL     1      -7.828  11.782  20.890  0.00  0.00    +0.000 OA
ATOM      8  C   UNL     1      -7.044  10.741  20.291  0.00  0.00    +0.000 C 
ATOM      9  C   UNL     1      -6.783  11.046  18.806  0.00  0.00    +0.000 C 
ATOM     10  C   UNL     1      -3.962  11.578  17.823  0.00  0.00    +0.000 A 
ATOM     11  C   UNL     1      -4.418  11.357  16.499  0.00  0.00    +0.000 A 
ATOM     12  C   UNL     1      -3.681  10.594  15.608  0.00  0.00    +0.000 A 
ATOM     13  C   UNL     1      -2.494  10.021  16.048  0.00  0.00    +0.000 A 
ATOM     14  C   UNL     1      -2.019  10.300  17.339  0.00  0.00    +0.000 A 
ATOM     15  C   UNL     1      -2.707  11.128  18.226  0.00  0.00    +0.000 A 
ATOM     16  N   UNL     1      -2.175  11.470  19.411  0.00  0.00    +0.000 NA
ENDROOT
BRANCH   1  22
ATOM     17  C   UNL     1      -2.680  12.997  22.678  0.00  0.00    +0.000 A 
ATOM     18  C   UNL     1      -2.082  13.842  23.631  0.00  0.00    +0.000 A 
ATOM     19  C   UNL     1      -0.948  14.581  23.315  0.00  0.00    +0.000 A 
ATOM     20  C   UNL     1      -0.396  14.481  22.046  0.00  0.00    +0.000 A 
ATOM     21  C   UNL     1      -1.021  13.689  21.077  0.00  0.00    +0.000 A 
ATOM     22  C   UNL     1      -2.201  12.957  21.345  0.00  0.00    +0.000 A 
BRANCH  17  24
ATOM     23  C   UNL     1      -4.480  12.578  24.179  0.00  0.00    +0.000 C 
ATOM     24  O   UNL     1      -3.752  12.209  23.011  0.00  0.00    +0.000 OA
ENDBRANCH  17  24
ENDBRANCH   1  22
TORSDOF 2
ENDMDL
