MODEL 1
REMARK VINA RESULT:      -7.2      0.000      0.000
REMARK  Name = 
REMARK  6 active torsions:
REMARK  status: ('A' for Active; 'I' for Inactive)
REMARK    1  A    between atoms: C_1  and  N_2
REMARK    2  A    between atoms: C_4  and  C_5
REMARK    3  A    between atoms: C_5  and  C_6
REMARK    4  A    between atoms: N_12  and  C_13
REMARK    5  A    between atoms: C_13  and  C_14
REMARK    6  A    between atoms: C_17  and  C_18
REMARK                            x       y       z     vdW  Elec       q    Type
REMARK                         _______ _______ _______ _____ _____    ______ ____
ROOT
ATOM      1  C   UNL     1       2.422   5.229  18.555  0.00  0.00    +0.000 C 
ATOM      2  C   UNL     1       2.504   5.536  20.052  0.00  0.00    +0.000 C 
ATOM      3  C   UNL     1       1.774   6.871  20.118  0.00  0.00    +0.000 C 
ATOM      4  N   UNL     1       2.186   7.547  18.897  0.00  0.00    +0.000 N 
ATOM      5  C   UNL     1       1.948   8.850  18.536  0.00  0.00    +0.000 C 
ATOM      6  O   UNL     1       2.325   9.316  17.463  0.00  0.00    +0.000 OA
ATOM      7  N   UNL     1       1.222   9.581  19.435  0.00  0.00    +0.000 N 
ATOM      8  C   UNL     1       2.779   6.596  17.957  0.00  0.00    +0.000 C 
ATOM      9  H   UNL     1       1.176   9.279  20.393  0.00  0.00    +0.000 HD
ENDROOT
BRANCH   1  10
ATOM     10  C   UNL     1       3.288   4.050  18.126  0.00  0.00    +0.000 C 
BRANCH  10  14
ATOM     11  C   UNL     1       7.915   5.648  19.187  0.00  0.00    +0.000 C 
ATOM     12  N   UNL     1       6.759   5.100  18.522  0.00  0.00    +0.000 N 
ATOM     13  C   UNL     1       5.525   4.900  19.065  0.00  0.00    +0.000 A 
ATOM     14  C   UNL     1       4.732   4.402  18.054  0.00  0.00    +0.000 A 
ATOM     15  C   UNL     1       5.601   4.321  16.939  0.00  0.00    +0.000 A 
ATOM     16  N   UNL     1       6.837   4.744  17.228  0.00  0.00    +0.000 NA
ENDBRANCH  10  14
ENDBRANCH   1  10
BRANCH   7  17
ATOM     17  C   UNL     1       0.922  10.977  19.210  0.00  0.00    +0.000 C 
BRANCH  17  18
ATOM     18  C   UNL     1      -0.538  11.120  18.908  0.00  0.00    +0.000 A 
ATOM     19  C   UNL     1      -1.414  11.971  19.560  0.00  0.00    +0.000 A 
ATOM     20  S   UNL     1      -2.982  11.845  18.888  0.00  0.00    +0.000 S 
ATOM     21  C   UNL     1      -2.403  10.656  17.797  0.00  0.00    +0.000 A 
ATOM     22  N   UNL     1      -1.123  10.355  17.897  0.00  0.00    +0.000 NA
BRANCH  21  23
ATOM     23  C   UNL     1      -3.344  10.005  16.779  0.00  0.00    +0.000 C 
ATOM     24  C   UNL     1      -3.822  10.832  15.603  0.00  0.00    +0.000 C 
ATOM     25  C   UNL     1      -2.835   9.738  15.377  0.00  0.00    +0.000 C 
ENDBRANCH  21  23
ENDBRANCH  17  18
ENDBRANCH   7  17
TORSDOF 5
ENDMDL
MODEL 2
REMARK VINA RESULT:      -7.1      2.281      3.307
REMARK  Name = 
REMARK  6 active torsions:
REMARK  status: ('A' for Active; 'I' for Inactive)
REMARK    1  A    between atoms: C_1  and  N_2
REMARK    2  A    between atoms: C_4  and  C_5
REMARK    3  A    between atoms: C_5  and  C_6
REMARK    4  A    between atoms: N_12  and  C_13
REMARK    5  A    between atoms: C_13  and  C_14
REMARK    6  A    between atoms: C_17  and  C_18
REMARK                            x       y       z     vdW  Elec       q    Type
REMARK                         _______ _______ _______ _____ _____    ______ ____
ROOT
ATOM      1  C   UNL     1       4.630   5.064  17.661  0.00  0.00    +0.000 C 
ATOM      2  C   UNL     1       4.252   6.327  16.884  0.00  0.00    +0.000 C 
ATOM      3  C   UNL     1       3.707   7.207  18.001  0.00  0.00    +0.000 C 
ATOM      4  N   UNL     1       3.002   6.269  18.862  0.00  0.00    +0.000 N 
ATOM      5  C   UNL     1       2.188   6.557  19.930  0.00  0.00    +0.000 C 
ATOM      6  O   UNL     1       1.656   5.681  20.608  0.00  0.00    +0.000 OA
ATOM      7  N   UNL     1       2.049   7.887  20.216  0.00  0.00    +0.000 N 
ATOM      8  C   UNL     1       3.397   4.894  18.558  0.00  0.00    +0.000 C 
ATOM      9  H   UNL     1       2.250   8.567  19.503  0.00  0.00    +0.000 HD
ENDROOT
BRANCH   1  10
ATOM     10  C   UNL     1       4.990   3.883  16.767  0.00  0.00    +0.000 C 
BRANCH  10  14
ATOM     11  C   UNL     1       7.181   4.317  12.284  0.00  0.00    +0.000 C 
ATOM     12  N   UNL     1       6.841   4.462  13.677  0.00  0.00    +0.000 N 
ATOM     13  C   UNL     1       5.786   3.888  14.322  0.00  0.00    +0.000 A 
ATOM     14  C   UNL     1       5.884   4.272  15.643  0.00  0.00    +0.000 A 
ATOM     15  C   UNL     1       7.032   5.101  15.679  0.00  0.00    +0.000 A 
ATOM     16  N   UNL     1       7.611   5.218  14.479  0.00  0.00    +0.000 NA
ENDBRANCH  10  14
ENDBRANCH   1  10
BRANCH   7  17
ATOM     17  C   UNL     1       1.197   8.346  21.289  0.00  0.00    +0.000 C 
BRANCH  17  18
ATOM     18  C   UNL     1       0.540   9.627  20.876  0.00  0.00    +0.000 A 
ATOM     19  C   UNL     1       0.933  10.895  21.270  0.00  0.00    +0.000 A 
ATOM     20  S   UNL     1      -0.066  12.081  20.550  0.00  0.00    +0.000 S 
ATOM     21  C   UNL     1      -0.966  10.839  19.785  0.00  0.00    +0.000 A 
ATOM     22  N   UNL     1      -0.567   9.606  20.026  0.00  0.00    +0.000 NA
BRANCH  21  23
ATOM     23  C   UNL     1      -2.155  11.178  18.881  0.00  0.00    +0.000 C 
ATOM     24  C   UNL     1      -1.880  11.617  17.457  0.00  0.00    +0.000 C 
ATOM     25  C   UNL     1      -2.466  10.270  17.709  0.00  0.00    +0.000 C 
ENDBRANCH  21  23
ENDBRANCH  17  18
ENDBRANCH   7  17
TORSDOF 5
ENDMDL
MODEL 3
REMARK VINA RESULT:      -7.0      3.532      9.599
REMARK  Name = 
REMARK  6 active torsions:
REMARK  status: ('A' for Active; 'I' for Inactive)
REMARK    1  A    between atoms: C_1  and  N_2
REMARK    2  A    between atoms: C_4  and  C_5
REMARK    3  A    between atoms: C_5  and  C_6
REMARK    4  A    between atoms: N_12  and  C_13
REMARK    5  A    between atoms: C_13  and  C_14
REMARK    6  A    between atoms: C_17  and  C_18
REMARK                            x       y       z     vdW  Elec       q    Type
REMARK                         _______ _______ _______ _____ _____    ______ ____
ROOT
ATOM      1  C   UNL     1      -4.190  10.704  17.717  0.00  0.00    +0.000 C 
ATOM      2  C   UNL     1      -3.621  10.537  16.306  0.00  0.00    +0.000 C 
ATOM      3  C   UNL     1      -2.213  10.046  16.614  0.00  0.00    +0.000 C 
ATOM      4  N   UNL     1      -1.838  10.801  17.801  0.00  0.00    +0.000 N 
ATOM      5  C   UNL     1      -0.606  10.864  18.403  0.00  0.00    +0.000 C 
ATOM      6  O   UNL     1      -0.404  11.520  19.423  0.00  0.00    +0.000 OA
ATOM      7  N   UNL     1       0.370  10.108  17.815  0.00  0.00    +0.000 N 
ATOM      8  C   UNL     1      -3.019  11.399  18.424  0.00  0.00    +0.000 C 
ATOM      9  H   UNL     1       0.261   9.822  16.858  0.00  0.00    +0.000 HD
ENDROOT
BRANCH   1  10
ATOM     10  C   UNL     1      -5.533  11.425  17.753  0.00  0.00    +0.000 C 
BRANCH  10  14
ATOM     11  C   UNL     1      -7.486  11.977  22.332  0.00  0.00    +0.000 C 
ATOM     12  N   UNL     1      -7.116  11.457  21.039  0.00  0.00    +0.000 N 
ATOM     13  C   UNL     1      -6.410  12.107  20.071  0.00  0.00    +0.000 A 
ATOM     14  C   UNL     1      -6.259  11.212  19.033  0.00  0.00    +0.000 A 
ATOM     15  C   UNL     1      -6.936  10.050  19.477  0.00  0.00    +0.000 A 
ATOM     16  N   UNL     1      -7.460  10.203  20.698  0.00  0.00    +0.000 NA
ENDBRANCH  10  14
ENDBRANCH   1  10
BRANCH   7  17
ATOM     17  C   UNL     1       1.726  10.100  18.316  0.00  0.00    +0.000 C 
BRANCH  17  18
ATOM     18  C   UNL     1       2.115   8.691  18.646  0.00  0.00    +0.000 A 
ATOM     19  C   UNL     1       1.833   8.037  19.832  0.00  0.00    +0.000 A 
ATOM     20  S   UNL     1       2.430   6.435  19.788  0.00  0.00    +0.000 S 
ATOM     21  C   UNL     1       3.043   6.722  18.214  0.00  0.00    +0.000 A 
ATOM     22  N   UNL     1       2.826   7.925  17.720  0.00  0.00    +0.000 NA
BRANCH  21  23
ATOM     23  C   UNL     1       3.791   5.622  17.454  0.00  0.00    +0.000 C 
ATOM     24  C   UNL     1       5.290   5.500  17.647  0.00  0.00    +0.000 C 
ATOM     25  C   UNL     1       4.388   4.469  18.234  0.00  0.00    +0.000 C 
ENDBRANCH  21  23
ENDBRANCH  17  18
ENDBRANCH   7  17
TORSDOF 5
ENDMDL
MODEL 4
REMARK VINA RESULT:      -7.0      5.853      8.899
REMARK  Name = 
REMARK  6 active torsions:
REMARK  status: ('A' for Active; 'I' for Inactive)
REMARK    1  A    between atoms: C_1  and  N_2
REMARK    2  A    between atoms: C_4  and  C_5
REMARK    3  A    between atoms: C_5  and  C_6
REMARK    4  A    between atoms: N_12  and  C_13
REMARK    5  A    between atoms: C_13  and  C_14
REMARK    6  A    between atoms: C_17  and  C_18
REMARK                            x       y       z     vdW  Elec       q    Type
REMARK                         _______ _______ _______ _____ _____    ______ ____
ROOT
ATOM      1  C   UNL     1       9.030  10.659  18.023  0.00  0.00    +0.000 C 
ATOM      2  C   UNL     1       9.116  10.095  19.443  0.00  0.00    +0.000 C 
ATOM      3  C   UNL     1       9.040   8.599  19.168  0.00  0.00    +0.000 C 
ATOM      4  N   UNL     1       8.093   8.500  18.067  0.00  0.00    +0.000 N 
ATOM      5  C   UNL     1       7.538   7.362  17.536  0.00  0.00    +0.000 C 
ATOM      6  O   UNL     1       6.760   7.391  16.585  0.00  0.00    +0.000 OA
ATOM      7  N   UNL     1       7.948   6.190  18.109  0.00  0.00    +0.000 N 
ATOM      8  C   UNL     1       7.900   9.805  17.436  0.00  0.00    +0.000 C 
ATOM      9  H   UNL     1       8.342   6.206  19.033  0.00  0.00    +0.000 HD
ENDROOT
BRANCH   1  10
ATOM     10  C   UNL     1       8.836  12.171  17.978  0.00  0.00    +0.000 C 
BRANCH  10  14
ATOM     11  C   UNL     1      12.279  15.729  17.219  0.00  0.00    +0.000 C 
ATOM     12  N   UNL     1      11.617  14.463  17.415  0.00  0.00    +0.000 N 
ATOM     13  C   UNL     1      10.295  14.267  17.680  0.00  0.00    +0.000 A 
ATOM     14  C   UNL     1      10.111  12.902  17.745  0.00  0.00    +0.000 A 
ATOM     15  C   UNL     1      11.403  12.366  17.522  0.00  0.00    +0.000 A 
ATOM     16  N   UNL     1      12.320  13.320  17.325  0.00  0.00    +0.000 NA
ENDBRANCH  10  14
ENDBRANCH   1  10
BRANCH   7  17
ATOM     17  C   UNL     1       7.424   4.913  17.679  0.00  0.00    +0.000 C 
BRANCH  17  18
ATOM     18  C   UNL     1       6.011   4.780  18.160  0.00  0.00    +0.000 A 
ATOM     19  C   UNL     1       5.523   5.261  19.363  0.00  0.00    +0.000 A 
ATOM     20  S   UNL     1       3.853   4.922  19.508  0.00  0.00    +0.000 S 
ATOM     21  C   UNL     1       3.892   4.142  17.983  0.00  0.00    +0.000 A 
ATOM     22  N   UNL     1       5.061   4.124  17.374  0.00  0.00    +0.000 NA
BRANCH  21  23
ATOM     23  C   UNL     1       2.626   3.515  17.392  0.00  0.00    +0.000 C 
ATOM     24  C   UNL     1       2.008   2.326  18.101  0.00  0.00    +0.000 C 
ATOM     25  C   UNL     1       1.321   3.647  18.151  0.00  0.00    +0.000 C 
ENDBRANCH  21  23
ENDBRANCH  17  18
ENDBRANCH   7  17
TORSDOF 5
ENDMDL
MODEL 5
REMARK VINA RESULT:      -7.0      0.790      1.243
REMARK  Name = 
REMARK  6 active torsions:
REMARK  status: ('A' for Active; 'I' for Inactive)
REMARK    1  A    between atoms: C_1  and  N_2
REMARK    2  A    between atoms: C_4  and  C_5
REMARK    3  A    between atoms: C_5  and  C_6
REMARK    4  A    between atoms: N_12  and  C_13
REMARK    5  A    between atoms: C_13  and  C_14
REMARK    6  A    between atoms: C_17  and  C_18
REMARK                            x       y       z     vdW  Elec       q    Type
REMARK                         _______ _______ _______ _____ _____    ______ ____
ROOT
ATOM      1  C   UNL     1       2.223   5.126  18.626  0.00  0.00    +0.000 C 
ATOM      2  C   UNL     1       2.436   5.499  20.095  0.00  0.00    +0.000 C 
ATOM      3  C   UNL     1       1.809   6.887  20.138  0.00  0.00    +0.000 C 
ATOM      4  N   UNL     1       2.176   7.469  18.856  0.00  0.00    +0.000 N 
ATOM      5  C   UNL     1       2.006   8.767  18.442  0.00  0.00    +0.000 C 
ATOM      6  O   UNL     1       2.335   9.150  17.321  0.00  0.00    +0.000 OA
ATOM      7  N   UNL     1       1.401   9.593  19.348  0.00  0.00    +0.000 N 
ATOM      8  C   UNL     1       2.631   6.431  17.930  0.00  0.00    +0.000 C 
ATOM      9  H   UNL     1       1.404   9.343  20.321  0.00  0.00    +0.000 HD
ENDROOT
BRANCH   1  10
ATOM     10  C   UNL     1       2.970   3.866  18.202  0.00  0.00    +0.000 C 
BRANCH  10  14
ATOM     11  C   UNL     1       7.011   4.615  15.340  0.00  0.00    +0.000 C 
ATOM     12  N   UNL     1       6.115   4.486  16.462  0.00  0.00    +0.000 N 
ATOM     13  C   UNL     1       4.776   4.237  16.411  0.00  0.00    +0.000 A 
ATOM     14  C   UNL     1       4.347   4.156  17.718  0.00  0.00    +0.000 A 
ATOM     15  C   UNL     1       5.515   4.395  18.483  0.00  0.00    +0.000 A 
ATOM     16  N   UNL     1       6.591   4.600  17.715  0.00  0.00    +0.000 NA
ENDBRANCH  10  14
ENDBRANCH   1  10
BRANCH   7  17
ATOM     17  C   UNL     1       1.185  10.995  19.068  0.00  0.00    +0.000 C 
BRANCH  17  18
ATOM     18  C   UNL     1      -0.289  11.253  18.983  0.00  0.00    +0.000 A 
ATOM     19  C   UNL     1      -1.054  11.866  19.960  0.00  0.00    +0.000 A 
ATOM     20  S   UNL     1      -2.683  11.991  19.453  0.00  0.00    +0.000 S 
ATOM     21  C   UNL     1      -2.271  11.205  17.987  0.00  0.00    +0.000 A 
ATOM     22  N   UNL     1      -1.005  10.864  17.850  0.00  0.00    +0.000 NA
BRANCH  21  23
ATOM     23  C   UNL     1      -3.336  10.932  16.920  0.00  0.00    +0.000 C 
ATOM     24  C   UNL     1      -2.931  10.989  15.461  0.00  0.00    +0.000 C 
ATOM     25  C   UNL     1      -3.232   9.671  16.087  0.00  0.00    +0.000 C 
ENDBRANCH  21  23
ENDBRANCH  17  18
ENDBRANCH   7  17
TORSDOF 5
ENDMDL
MODEL 6
REMARK VINA RESULT:      -6.9      3.789      8.866
REMARK  Name = 
REMARK  6 active torsions:
REMARK  status: ('A' for Active; 'I' for Inactive)
REMARK    1  A    between atoms: C_1  and  N_2
REMARK    2  A    between atoms: C_4  and  C_5
REMARK    3  A    between atoms: C_5  and  C_6
REMARK    4  A    between atoms: N_12  and  C_13
REMARK    5  A    between atoms: C_13  and  C_14
REMARK    6  A    between atoms: C_17  and  C_18
REMARK                            x       y       z     vdW  Elec       q    Type
REMARK                         _______ _______ _______ _____ _____    ______ ____
ROOT
ATOM      1  C   UNL     1      -0.074  11.101  20.891  0.00  0.00    +0.000 C 
ATOM      2  C   UNL     1      -0.308   9.735  21.540  0.00  0.00    +0.000 C 
ATOM      3  C   UNL     1       0.839   8.928  20.946  0.00  0.00    +0.000 C 
ATOM      4  N   UNL     1       0.938   9.426  19.581  0.00  0.00    +0.000 N 
ATOM      5  C   UNL     1       1.703   8.926  18.558  0.00  0.00    +0.000 C 
ATOM      6  O   UNL     1       1.728   9.441  17.442  0.00  0.00    +0.000 OA
ATOM      7  N   UNL     1       2.471   7.842  18.879  0.00  0.00    +0.000 N 
ATOM      8  C   UNL     1       0.216  10.691  19.442  0.00  0.00    +0.000 C 
ATOM      9  H   UNL     1       2.226   7.284  19.679  0.00  0.00    +0.000 HD
ENDROOT
BRANCH   1  10
ATOM     10  C   UNL     1      -1.222  12.082  21.105  0.00  0.00    +0.000 C 
BRANCH  10  14
ATOM     11  C   UNL     1       0.930  16.287  22.773  0.00  0.00    +0.000 C 
ATOM     12  N   UNL     1       0.122  15.099  22.656  0.00  0.00    +0.000 N 
ATOM     13  C   UNL     1       0.031  14.279  21.571  0.00  0.00    +0.000 A 
ATOM     14  C   UNL     1      -0.821  13.255  21.928  0.00  0.00    +0.000 A 
ATOM     15  C   UNL     1      -1.206  13.571  23.254  0.00  0.00    +0.000 A 
ATOM     16  N   UNL     1      -0.633  14.697  23.694  0.00  0.00    +0.000 NA
ENDBRANCH  10  14
ENDBRANCH   1  10
BRANCH   7  17
ATOM     17  C   UNL     1       3.303   7.184  17.896  0.00  0.00    +0.000 C 
BRANCH  17  18
ATOM     18  C   UNL     1       3.610   5.796  18.369  0.00  0.00    +0.000 A 
ATOM     19  C   UNL     1       4.830   5.154  18.237  0.00  0.00    +0.000 A 
ATOM     20  S   UNL     1       4.763   3.594  18.935  0.00  0.00    +0.000 S 
ATOM     21  C   UNL     1       3.121   3.862  19.343  0.00  0.00    +0.000 A 
ATOM     22  N   UNL     1       2.625   5.035  19.000  0.00  0.00    +0.000 NA
BRANCH  21  23
ATOM     23  C   UNL     1       2.308   2.783  20.063  0.00  0.00    +0.000 C 
ATOM     24  C   UNL     1       2.221   2.831  21.576  0.00  0.00    +0.000 C 
ATOM     25  C   UNL     1       1.022   3.178  20.762  0.00  0.00    +0.000 C 
ENDBRANCH  21  23
ENDBRANCH  17  18
ENDBRANCH   7  17
TORSDOF 5
ENDMDL
MODEL 7
REMARK VINA RESULT:      -6.8      2.256      3.539
REMARK  Name = 
REMARK  6 active torsions:
REMARK  status: ('A' for Active; 'I' for Inactive)
REMARK    1  A    between atoms: C_1  and  N_2
REMARK    2  A    between atoms: C_4  and  C_5
REMARK    3  A    between atoms: C_5  and  C_6
REMARK    4  A    between atoms: N_12  and  C_13
REMARK    5  A    between atoms: C_13  and  C_14
REMARK    6  A    between atoms: C_17  and  C_18
REMARK                            x       y       z     vdW  Elec       q    Type
REMARK                         _______ _______ _______ _____ _____    ______ ____
ROOT
ATOM      1  C   UNL     1       3.867   5.294  18.499  0.00  0.00    +0.000 C 
ATOM      2  C   UNL     1       3.418   5.603  19.929  0.00  0.00    +0.000 C 
ATOM      3  C   UNL     1       2.263   6.561  19.674  0.00  0.00    +0.000 C 
ATOM      4  N   UNL     1       2.715   7.348  18.536  0.00  0.00    +0.000 N 
ATOM      5  C   UNL     1       2.126   8.465  17.999  0.00  0.00    +0.000 C 
ATOM      6  O   UNL     1       2.583   9.043  17.016  0.00  0.00    +0.000 OA
ATOM      7  N   UNL     1       0.966   8.862  18.605  0.00  0.00    +0.000 N 
ATOM      8  C   UNL     1       3.848   6.697  17.878  0.00  0.00    +0.000 C 
ATOM      9  H   UNL     1       0.775   8.561  19.545  0.00  0.00    +0.000 HD
ENDROOT
BRANCH   1  10
ATOM     10  C   UNL     1       5.186   4.533  18.424  0.00  0.00    +0.000 C 
BRANCH  10  14
ATOM     11  C   UNL     1       6.437   3.978  13.606  0.00  0.00    +0.000 C 
ATOM     12  N   UNL     1       6.382   4.411  14.980  0.00  0.00    +0.000 N 
ATOM     13  C   UNL     1       5.477   4.021  15.921  0.00  0.00    +0.000 A 
ATOM     14  C   UNL     1       5.838   4.655  17.092  0.00  0.00    +0.000 A 
ATOM     15  C   UNL     1       6.971   5.424  16.734  0.00  0.00    +0.000 A 
ATOM     16  N   UNL     1       7.299   5.277  15.446  0.00  0.00    +0.000 NA
ENDBRANCH  10  14
ENDBRANCH   1  10
BRANCH   7  17
ATOM     17  C   UNL     1       0.250  10.041  18.173  0.00  0.00    +0.000 C 
BRANCH  17  18
ATOM     18  C   UNL     1       0.163  11.004  19.317  0.00  0.00    +0.000 A 
ATOM     19  C   UNL     1       1.188  11.824  19.757  0.00  0.00    +0.000 A 
ATOM     20  S   UNL     1       0.662  12.788  21.068  0.00  0.00    +0.000 S 
ATOM     21  C   UNL     1      -0.878  12.040  20.982  0.00  0.00    +0.000 A 
ATOM     22  N   UNL     1      -1.025  11.129  20.040  0.00  0.00    +0.000 NA
BRANCH  21  23
ATOM     23  C   UNL     1      -1.993  12.432  21.955  0.00  0.00    +0.000 C 
ATOM     24  C   UNL     1      -2.092  11.697  23.277  0.00  0.00    +0.000 C 
ATOM     25  C   UNL     1      -1.623  13.111  23.258  0.00  0.00    +0.000 C 
ENDBRANCH  21  23
ENDBRANCH  17  18
ENDBRANCH   7  17
TORSDOF 5
ENDMDL
MODEL 8
REMARK VINA RESULT:      -6.8      1.457      1.885
REMARK  Name = 
REMARK  6 active torsions:
REMARK  status: ('A' for Active; 'I' for Inactive)
REMARK    1  A    between atoms: C_1  and  N_2
REMARK    2  A    between atoms: C_4  and  C_5
REMARK    3  A    between atoms: C_5  and  C_6
REMARK    4  A    between atoms: N_12  and  C_13
REMARK    5  A    between atoms: C_13  and  C_14
REMARK    6  A    between atoms: C_17  and  C_18
REMARK                            x       y       z     vdW  Elec       q    Type
REMARK                         _______ _______ _______ _____ _____    ______ ____
ROOT
ATOM      1  C   UNL     1       3.007   6.663  19.307  0.00  0.00    +0.000 C 
ATOM      2  C   UNL     1       2.560   7.195  17.943  0.00  0.00    +0.000 C 
ATOM      3  C   UNL     1       2.135   8.612  18.306  0.00  0.00    +0.000 C 
ATOM      4  N   UNL     1       1.515   8.459  19.614  0.00  0.00    +0.000 N 
ATOM      5  C   UNL     1       0.815   9.400  20.327  0.00  0.00    +0.000 C 
ATOM      6  O   UNL     1       0.349   9.170  21.442  0.00  0.00    +0.000 OA
ATOM      7  N   UNL     1       0.712  10.626  19.732  0.00  0.00    +0.000 N 
ATOM      8  C   UNL     1       1.871   7.168  20.205  0.00  0.00    +0.000 C 
ATOM      9  H   UNL     1       0.844  10.704  18.738  0.00  0.00    +0.000 HD
ENDROOT
BRANCH   1  10
ATOM     10  C   UNL     1       3.270   5.161  19.320  0.00  0.00    +0.000 C 
BRANCH  10  14
ATOM     11  C   UNL     1       7.335   4.559  16.457  0.00  0.00    +0.000 C 
ATOM     12  N   UNL     1       6.004   4.477  17.004  0.00  0.00    +0.000 N 
ATOM     13  C   UNL     1       5.561   5.051  18.158  0.00  0.00    +0.000 A 
ATOM     14  C   UNL     1       4.220   4.741  18.255  0.00  0.00    +0.000 A 
ATOM     15  C   UNL     1       3.962   3.954  17.107  0.00  0.00    +0.000 A 
ATOM     16  N   UNL     1       5.051   3.791  16.348  0.00  0.00    +0.000 NA
ENDBRANCH  10  14
ENDBRANCH   1  10
BRANCH   7  17
ATOM     17  C   UNL     1      -0.025  11.707  20.347  0.00  0.00    +0.000 C 
BRANCH  17  18
ATOM     18  C   UNL     1      -1.402  11.755  19.757  0.00  0.00    +0.000 A 
ATOM     19  C   UNL     1      -2.450  12.527  20.226  0.00  0.00    +0.000 A 
ATOM     20  S   UNL     1      -3.837  12.308  19.250  0.00  0.00    +0.000 S 
ATOM     21  C   UNL     1      -2.966  11.190  18.287  0.00  0.00    +0.000 A 
ATOM     22  N   UNL     1      -1.714  10.976  18.641  0.00  0.00    +0.000 NA
BRANCH  21  23
ATOM     23  C   UNL     1      -3.633  10.499  17.094  0.00  0.00    +0.000 C 
ATOM     24  C   UNL     1      -3.392  11.059  15.706  0.00  0.00    +0.000 C 
ATOM     25  C   UNL     1      -2.764   9.765  16.093  0.00  0.00    +0.000 C 
ENDBRANCH  21  23
ENDBRANCH  17  18
ENDBRANCH   7  17
TORSDOF 5
ENDMDL
MODEL 9
REMARK VINA RESULT:      -6.8      3.858      8.819
REMARK  Name = 
REMARK  6 active torsions:
REMARK  status: ('A' for Active; 'I' for Inactive)
REMARK    1  A    between atoms: C_1  and  N_2
REMARK    2  A    between atoms: C_4  and  C_5
REMARK    3  A    between atoms: C_5  and  C_6
REMARK    4  A    between atoms: N_12  and  C_13
REMARK    5  A    between atoms: C_13  and  C_14
REMARK    6  A    between atoms: C_17  and  C_18
REMARK                            x       y       z     vdW  Elec       q    Type
REMARK                         _______ _______ _______ _____ _____    ______ ____
ROOT
ATOM      1  C   UNL     1      -0.169  10.792  21.489  0.00  0.00    +0.000 C 
ATOM      2  C   UNL     1      -0.254   9.346  21.984  0.00  0.00    +0.000 C 
ATOM      3  C   UNL     1       0.883   8.701  21.204  0.00  0.00    +0.000 C 
ATOM      4  N   UNL     1       0.824   9.358  19.906  0.00  0.00    +0.000 N 
ATOM      5  C   UNL     1       1.522   9.037  18.769  0.00  0.00    +0.000 C 
ATOM      6  O   UNL     1       1.413   9.677  17.726  0.00  0.00    +0.000 OA
ATOM      7  N   UNL     1       2.385   7.983  18.892  0.00  0.00    +0.000 N 
ATOM      8  C   UNL     1       0.013  10.574  19.981  0.00  0.00    +0.000 C 
ATOM      9  H   UNL     1       2.250   7.321  19.637  0.00  0.00    +0.000 HD
ENDROOT
BRANCH   1  10
ATOM     10  C   UNL     1      -1.352  11.654  21.914  0.00  0.00    +0.000 C 
BRANCH  10  14
ATOM     11  C   UNL     1      -1.013  15.853  24.624  0.00  0.00    +0.000 C 
ATOM     12  N   UNL     1      -0.781  14.805  23.662  0.00  0.00    +0.000 N 
ATOM     13  C   UNL     1      -1.469  13.633  23.551  0.00  0.00    +0.000 A 
ATOM     14  C   UNL     1      -0.928  12.967  22.472  0.00  0.00    +0.000 A 
ATOM     15  C   UNL     1       0.101  13.825  22.014  0.00  0.00    +0.000 A 
ATOM     16  N   UNL     1       0.192  14.942  22.744  0.00  0.00    +0.000 NA
ENDBRANCH  10  14
ENDBRANCH   1  10
BRANCH   7  17
ATOM     17  C   UNL     1       3.163   7.507  17.771  0.00  0.00    +0.000 C 
BRANCH  17  18
ATOM     18  C   UNL     1       3.529   6.073  18.007  0.00  0.00    +0.000 A 
ATOM     19  C   UNL     1       4.810   5.597  18.230  0.00  0.00    +0.000 A 
ATOM     20  S   UNL     1       4.784   3.906  18.480  0.00  0.00    +0.000 S 
ATOM     21  C   UNL     1       3.086   3.912  18.252  0.00  0.00    +0.000 A 
ATOM     22  N   UNL     1       2.540   5.088  18.010  0.00  0.00    +0.000 NA
BRANCH  21  23
ATOM     23  C   UNL     1       2.281   2.612  18.334  0.00  0.00    +0.000 C 
ATOM     24  C   UNL     1       1.798   2.143  19.692  0.00  0.00    +0.000 C 
ATOM     25  C   UNL     1       0.814   2.680  18.709  0.00  0.00    +0.000 C 
ENDBRANCH  21  23
ENDBRANCH  17  18
ENDBRANCH   7  17
TORSDOF 5
ENDMDL
