MODEL 1
REMARK VINA RESULT:      -6.1      0.000      0.000
REMARK  Name = 
REMARK  19 active torsions:
REMARK  status: ('A' for Active; 'I' for Inactive)
REMARK    1  A    between atoms: C_1  and  C_2
REMARK    2  A    between atoms: C_2  and  C_3
REMARK    3  A    between atoms: C_3  and  C_4
REMARK    4  A    between atoms: C_4  and  C_5
REMARK    5  A    between atoms: C_5  and  C_6
REMARK    6  A    between atoms: C_6  and  C_7
REMARK    7  A    between atoms: C_7  and  C_8
REMARK    8  A    between atoms: C_8  and  C_9
REMARK    9  A    between atoms: C_9  and  C_10
REMARK   10  A    between atoms: C_10  and  C_11
REMARK   11  A    between atoms: C_11  and  C_12
REMARK   12  A    between atoms: C_12  and  C_13
REMARK   13  A    between atoms: C_13  and  C_14
REMARK   14  A    between atoms: C_14  and  C_15
REMARK   15  A    between atoms: C_15  and  C_16
REMARK   16  A    between atoms: C_16  and  C_18
REMARK   17  A    between atoms: C_19  and  O_20
REMARK   18  A    between atoms: C_22  and  C_23
REMARK   19  A    between atoms: C_23  and  O_24
REMARK                            x       y       z     vdW  Elec       q    Type
REMARK                         _______ _______ _______ _____ _____    ______ ____
ROOT
ATOM      1  C   UNL     1       2.220   8.913  17.839  0.00  0.00    +0.000 C 
ENDROOT
BRANCH   1   2
ATOM      2  C   UNL     1       1.020   9.809  18.193  0.00  0.00    +0.000 C 
ATOM      3  O   UNL     1      -0.116   9.637  17.745  0.00  0.00    +0.000 OA
BRANCH   2   4
ATOM      4  C   UNL     1       1.245  10.919  19.173  0.00  0.00    +0.000 C 
ATOM      5  C   UNL     1       1.889  12.026  18.745  0.00  0.00    +0.000 C 
ATOM      6  C   UNL     1       2.038  13.234  19.604  0.00  0.00    +0.000 C 
ATOM      7  C   UNL     1       0.894  13.266  20.598  0.00  0.00    +0.000 C 
ATOM      8  O   UNL     1       0.799  12.010  21.300  0.00  0.00    +0.000 OA
ATOM      9  C   UNL     1       0.811  10.846  20.596  0.00  0.00    +0.000 C 
ATOM     10  O   UNL     1       0.514   9.795  21.153  0.00  0.00    +0.000 OA
BRANCH   5  11
ATOM     11  O   UNL     1       2.428  12.183  17.484  0.00  0.00    +0.000 OA
ATOM     12  H   UNL     1       3.114  12.883  17.513  0.00  0.00    +0.000 HD
ENDBRANCH   5  11
BRANCH   7  13
ATOM     13  C   UNL     1       1.123  14.356  21.634  0.00  0.00    +0.000 C 
BRANCH  13  14
ATOM     14  O   UNL     1       2.486  14.385  22.050  0.00  0.00    +0.000 OA
ATOM     15  H   UNL     1       2.978  14.735  21.283  0.00  0.00    +0.000 HD
ENDBRANCH  13  14
ENDBRANCH   7  13
ENDBRANCH   2   4
ENDBRANCH   1   2
BRANCH   1  16
ATOM     16  C   UNL     1       2.042   7.493  18.344  0.00  0.00    +0.000 C 
BRANCH  16  17
ATOM     17  C   UNL     1       2.370   7.399  19.827  0.00  0.00    +0.000 C 
BRANCH  17  18
ATOM     18  C   UNL     1       1.651   6.206  20.433  0.00  0.00    +0.000 C 
BRANCH  18  19
ATOM     19  C   UNL     1       2.633   5.076  20.679  0.00  0.00    +0.000 C 
BRANCH  19  20
ATOM     20  C   UNL     1       1.879   3.795  20.977  0.00  0.00    +0.000 C 
BRANCH  20  21
ATOM     21  C   UNL     1       0.698   3.662  20.035  0.00  0.00    +0.000 C 
BRANCH  21  22
ATOM     22  C   UNL     1       0.957   2.546  19.041  0.00  0.00    +0.000 C 
BRANCH  22  23
ATOM     23  C   UNL     1       1.760   3.077  17.868  0.00  0.00    +0.000 C 
BRANCH  23  24
ATOM     24  C   UNL     1       3.064   2.313  17.749  0.00  0.00    +0.000 C 
BRANCH  24  25
ATOM     25  C   UNL     1       4.235   3.273  17.855  0.00  0.00    +0.000 C 
BRANCH  25  26
ATOM     26  C   UNL     1       3.873   4.602  17.217  0.00  0.00    +0.000 C 
BRANCH  26  27
ATOM     27  C   UNL     1       5.018   5.089  16.347  0.00  0.00    +0.000 C 
BRANCH  27  29
ATOM     28  C   UNL     1       6.051   4.068  14.324  0.00  0.00    +0.000 C 
ATOM     29  C   UNL     1       5.815   3.910  15.813  0.00  0.00    +0.000 C 
ENDBRANCH  27  29
ENDBRANCH  26  27
ENDBRANCH  25  26
ENDBRANCH  24  25
ENDBRANCH  23  24
ENDBRANCH  22  23
ENDBRANCH  21  22
ENDBRANCH  20  21
ENDBRANCH  19  20
ENDBRANCH  18  19
ENDBRANCH  17  18
ENDBRANCH  16  17
ENDBRANCH   1  16
TORSDOF 18
ENDMDL
MODEL 2
REMARK VINA RESULT:      -5.9      6.483     10.044
REMARK  Name = 
REMARK  19 active torsions:
REMARK  status: ('A' for Active; 'I' for Inactive)
REMARK    1  A    between atoms: C_1  and  C_2
REMARK    2  A    between atoms: C_2  and  C_3
REMARK    3  A    between atoms: C_3  and  C_4
REMARK    4  A    between atoms: C_4  and  C_5
REMARK    5  A    between atoms: C_5  and  C_6
REMARK    6  A    between atoms: C_6  and  C_7
REMARK    7  A    between atoms: C_7  and  C_8
REMARK    8  A    between atoms: C_8  and  C_9
REMARK    9  A    between atoms: C_9  and  C_10
REMARK   10  A    between atoms: C_10  and  C_11
REMARK   11  A    between atoms: C_11  and  C_12
REMARK   12  A    between atoms: C_12  and  C_13
REMARK   13  A    between atoms: C_13  and  C_14
REMARK   14  A    between atoms: C_14  and  C_15
REMARK   15  A    between atoms: C_15  and  C_16
REMARK   16  A    between atoms: C_16  and  C_18
REMARK   17  A    between atoms: C_19  and  O_20
REMARK   18  A    between atoms: C_22  and  C_23
REMARK   19  A    between atoms: C_23  and  O_24
REMARK                            x       y       z     vdW  Elec       q    Type
REMARK                         _______ _______ _______ _____ _____    ______ ____
ROOT
ATOM      1  C   UNL     1       4.692   5.994  16.329  0.00  0.00    +0.000 C 
ENDROOT
BRANCH   1   2
ATOM      2  C   UNL     1       4.913   4.480  16.493  0.00  0.00    +0.000 C 
ATOM      3  O   UNL     1       5.646   3.814  15.757  0.00  0.00    +0.000 OA
BRANCH   2   4
ATOM      4  C   UNL     1       4.234   3.797  17.639  0.00  0.00    +0.000 C 
ATOM      5  C   UNL     1       4.950   3.570  18.760  0.00  0.00    +0.000 C 
ATOM      6  C   UNL     1       4.326   3.022  19.998  0.00  0.00    +0.000 C 
ATOM      7  C   UNL     1       2.858   3.398  20.007  0.00  0.00    +0.000 C 
ATOM      8  O   UNL     1       2.229   3.011  18.768  0.00  0.00    +0.000 OA
ATOM      9  C   UNL     1       2.817   3.339  17.587  0.00  0.00    +0.000 C 
ATOM     10  O   UNL     1       2.192   3.211  16.539  0.00  0.00    +0.000 OA
BRANCH   5  11
ATOM     11  O   UNL     1       6.293   3.853  18.906  0.00  0.00    +0.000 OA
ATOM     12  H   UNL     1       6.659   4.128  18.039  0.00  0.00    +0.000 HD
ENDBRANCH   5  11
BRANCH   7  13
ATOM     13  C   UNL     1       2.133   2.678  21.135  0.00  0.00    +0.000 C 
BRANCH  13  14
ATOM     14  O   UNL     1       0.729   2.910  21.068  0.00  0.00    +0.000 OA
ATOM     15  H   UNL     1       0.607   3.510  20.308  0.00  0.00    +0.000 HD
ENDBRANCH  13  14
ENDBRANCH   7  13
ENDBRANCH   2   4
ENDBRANCH   1   2
BRANCH   1  16
ATOM     16  C   UNL     1       5.484   6.801  17.342  0.00  0.00    +0.000 C 
BRANCH  16  17
ATOM     17  C   UNL     1       6.941   6.921  16.920  0.00  0.00    +0.000 C 
BRANCH  17  18
ATOM     18  C   UNL     1       7.769   7.431  18.087  0.00  0.00    +0.000 C 
BRANCH  18  19
ATOM     19  C   UNL     1       8.195   8.865  17.837  0.00  0.00    +0.000 C 
BRANCH  19  20
ATOM     20  C   UNL     1       8.902   9.413  19.061  0.00  0.00    +0.000 C 
BRANCH  20  21
ATOM     21  C   UNL     1       9.691  10.653  18.688  0.00  0.00    +0.000 C 
BRANCH  21  22
ATOM     22  C   UNL     1       9.434  11.751  19.702  0.00  0.00    +0.000 C 
BRANCH  22  23
ATOM     23  C   UNL     1      10.675  11.974  20.545  0.00  0.00    +0.000 C 
BRANCH  23  24
ATOM     24  C   UNL     1      11.915  11.841  19.682  0.00  0.00    +0.000 C 
BRANCH  24  25
ATOM     25  C   UNL     1      12.022  13.031  18.746  0.00  0.00    +0.000 C 
BRANCH  25  26
ATOM     26  C   UNL     1      12.253  14.300  19.547  0.00  0.00    +0.000 C 
BRANCH  26  27
ATOM     27  C   UNL     1      11.500  15.457  18.916  0.00  0.00    +0.000 C 
BRANCH  27  29
ATOM     28  C   UNL     1       9.567  16.098  17.483  0.00  0.00    +0.000 C 
ATOM     29  C   UNL     1      10.351  14.940  18.065  0.00  0.00    +0.000 C 
ENDBRANCH  27  29
ENDBRANCH  26  27
ENDBRANCH  25  26
ENDBRANCH  24  25
ENDBRANCH  23  24
ENDBRANCH  22  23
ENDBRANCH  21  22
ENDBRANCH  20  21
ENDBRANCH  19  20
ENDBRANCH  18  19
ENDBRANCH  17  18
ENDBRANCH  16  17
ENDBRANCH   1  16
TORSDOF 18
ENDMDL
MODEL 3
REMARK VINA RESULT:      -5.9      3.778      8.365
REMARK  Name = 
REMARK  19 active torsions:
REMARK  status: ('A' for Active; 'I' for Inactive)
REMARK    1  A    between atoms: C_1  and  C_2
REMARK    2  A    between atoms: C_2  and  C_3
REMARK    3  A    between atoms: C_3  and  C_4
REMARK    4  A    between atoms: C_4  and  C_5
REMARK    5  A    between atoms: C_5  and  C_6
REMARK    6  A    between atoms: C_6  and  C_7
REMARK    7  A    between atoms: C_7  and  C_8
REMARK    8  A    between atoms: C_8  and  C_9
REMARK    9  A    between atoms: C_9  and  C_10
REMARK   10  A    between atoms: C_10  and  C_11
REMARK   11  A    between atoms: C_11  and  C_12
REMARK   12  A    between atoms: C_12  and  C_13
REMARK   13  A    between atoms: C_13  and  C_14
REMARK   14  A    between atoms: C_14  and  C_15
REMARK   15  A    between atoms: C_15  and  C_16
REMARK   16  A    between atoms: C_16  and  C_18
REMARK   17  A    between atoms: C_19  and  O_20
REMARK   18  A    between atoms: C_22  and  C_23
REMARK   19  A    between atoms: C_23  and  O_24
REMARK                            x       y       z     vdW  Elec       q    Type
REMARK                         _______ _______ _______ _____ _____    ______ ____
ROOT
ATOM      1  C   UNL     1       4.561   4.028  19.544  0.00  0.00    +0.000 C 
ENDROOT
BRANCH   1   2
ATOM      2  C   UNL     1       5.796   4.758  18.986  0.00  0.00    +0.000 C 
ATOM      3  O   UNL     1       6.665   5.270  19.695  0.00  0.00    +0.000 OA
BRANCH   2   4
ATOM      4  C   UNL     1       5.965   4.801  17.498  0.00  0.00    +0.000 C 
ATOM      5  C   UNL     1       7.155   4.428  16.982  0.00  0.00    +0.000 C 
ATOM      6  C   UNL     1       7.375   4.308  15.512  0.00  0.00    +0.000 C 
ATOM      7  C   UNL     1       6.046   4.011  14.847  0.00  0.00    +0.000 C 
ATOM      8  O   UNL     1       5.052   4.974  15.252  0.00  0.00    +0.000 OA
ATOM      9  C   UNL     1       4.892   5.258  16.572  0.00  0.00    +0.000 C 
ATOM     10  O   UNL     1       3.916   5.902  16.943  0.00  0.00    +0.000 OA
BRANCH   5  11
ATOM     11  O   UNL     1       8.261   4.079  17.729  0.00  0.00    +0.000 OA
ATOM     12  H   UNL     1       8.561   4.858  18.244  0.00  0.00    +0.000 HD
ENDBRANCH   5  11
BRANCH   7  13
ATOM     13  C   UNL     1       6.180   4.097  13.333  0.00  0.00    +0.000 C 
BRANCH  13  14
ATOM     14  O   UNL     1       4.952   3.762  12.694  0.00  0.00    +0.000 OA
ATOM     15  H   UNL     1       4.488   4.612  12.572  0.00  0.00    +0.000 HD
ENDBRANCH  13  14
ENDBRANCH   7  13
ENDBRANCH   2   4
ENDBRANCH   1   2
BRANCH   1  16
ATOM     16  C   UNL     1       4.688   2.520  19.432  0.00  0.00    +0.000 C 
BRANCH  16  17
ATOM     17  C   UNL     1       3.588   1.947  18.550  0.00  0.00    +0.000 C 
BRANCH  17  18
ATOM     18  C   UNL     1       2.524   3.003  18.313  0.00  0.00    +0.000 C 
BRANCH  18  19
ATOM     19  C   UNL     1       1.169   2.488  18.760  0.00  0.00    +0.000 C 
BRANCH  19  20
ATOM     20  C   UNL     1       0.577   3.425  19.794  0.00  0.00    +0.000 C 
BRANCH  20  21
ATOM     21  C   UNL     1       1.439   3.427  21.041  0.00  0.00    +0.000 C 
BRANCH  21  22
ATOM     22  C   UNL     1       2.006   4.814  21.272  0.00  0.00    +0.000 C 
BRANCH  22  23
ATOM     23  C   UNL     1       1.154   5.846  20.556  0.00  0.00    +0.000 C 
BRANCH  23  24
ATOM     24  C   UNL     1       1.971   7.096  20.295  0.00  0.00    +0.000 C 
BRANCH  24  25
ATOM     25  C   UNL     1       1.647   8.151  21.338  0.00  0.00    +0.000 C 
BRANCH  25  26
ATOM     26  C   UNL     1       0.198   8.584  21.202  0.00  0.00    +0.000 C 
BRANCH  26  27
ATOM     27  C   UNL     1      -0.366   8.943  22.565  0.00  0.00    +0.000 C 
BRANCH  27  29
ATOM     28  C   UNL     1      -0.720  11.029  21.251  0.00  0.00    +0.000 C 
ATOM     29  C   UNL     1      -0.647  10.436  22.643  0.00  0.00    +0.000 C 
ENDBRANCH  27  29
ENDBRANCH  26  27
ENDBRANCH  25  26
ENDBRANCH  24  25
ENDBRANCH  23  24
ENDBRANCH  22  23
ENDBRANCH  21  22
ENDBRANCH  20  21
ENDBRANCH  19  20
ENDBRANCH  18  19
ENDBRANCH  17  18
ENDBRANCH  16  17
ENDBRANCH   1  16
TORSDOF 18
ENDMDL
MODEL 4
REMARK VINA RESULT:      -5.7      4.138      9.029
REMARK  Name = 
REMARK  19 active torsions:
REMARK  status: ('A' for Active; 'I' for Inactive)
REMARK    1  A    between atoms: C_1  and  C_2
REMARK    2  A    between atoms: C_2  and  C_3
REMARK    3  A    between atoms: C_3  and  C_4
REMARK    4  A    between atoms: C_4  and  C_5
REMARK    5  A    between atoms: C_5  and  C_6
REMARK    6  A    between atoms: C_6  and  C_7
REMARK    7  A    between atoms: C_7  and  C_8
REMARK    8  A    between atoms: C_8  and  C_9
REMARK    9  A    between atoms: C_9  and  C_10
REMARK   10  A    between atoms: C_10  and  C_11
REMARK   11  A    between atoms: C_11  and  C_12
REMARK   12  A    between atoms: C_12  and  C_13
REMARK   13  A    between atoms: C_13  and  C_14
REMARK   14  A    between atoms: C_14  and  C_15
REMARK   15  A    between atoms: C_15  and  C_16
REMARK   16  A    between atoms: C_16  and  C_18
REMARK   17  A    between atoms: C_19  and  O_20
REMARK   18  A    between atoms: C_22  and  C_23
REMARK   19  A    between atoms: C_23  and  O_24
REMARK                            x       y       z     vdW  Elec       q    Type
REMARK                         _______ _______ _______ _____ _____    ______ ____
ROOT
ATOM      1  C   UNL     1       1.691   3.150  21.058  0.00  0.00    +0.000 C 
ENDROOT
BRANCH   1   2
ATOM      2  C   UNL     1       1.907   2.602  19.636  0.00  0.00    +0.000 C 
ATOM      3  O   UNL     1       1.072   1.926  19.031  0.00  0.00    +0.000 OA
BRANCH   2   4
ATOM      4  C   UNL     1       3.185   2.955  18.940  0.00  0.00    +0.000 C 
ATOM      5  C   UNL     1       3.112   3.462  17.691  0.00  0.00    +0.000 C 
ATOM      6  C   UNL     1       4.316   3.969  16.974  0.00  0.00    +0.000 C 
ATOM      7  C   UNL     1       5.338   4.418  17.998  0.00  0.00    +0.000 C 
ATOM      8  O   UNL     1       5.581   3.373  18.962  0.00  0.00    +0.000 OA
ATOM      9  C   UNL     1       4.527   2.749  19.553  0.00  0.00    +0.000 C 
ATOM     10  O   UNL     1       4.717   2.020  20.522  0.00  0.00    +0.000 OA
BRANCH   5  11
ATOM     11  O   UNL     1       1.944   3.613  16.972  0.00  0.00    +0.000 OA
ATOM     12  H   UNL     1       2.090   3.301  16.054  0.00  0.00    +0.000 HD
ENDBRANCH   5  11
BRANCH   7  13
ATOM     13  C   UNL     1       6.663   4.737  17.321  0.00  0.00    +0.000 C 
BRANCH  13  14
ATOM     14  O   UNL     1       7.738   4.056  17.962  0.00  0.00    +0.000 OA
ATOM     15  H   UNL     1       7.963   3.317  17.366  0.00  0.00    +0.000 HD
ENDBRANCH  13  14
ENDBRANCH   7  13
ENDBRANCH   2   4
ENDBRANCH   1   2
BRANCH   1  16
ATOM     16  C   UNL     1       2.253   4.550  21.223  0.00  0.00    +0.000 C 
BRANCH  16  17
ATOM     17  C   UNL     1       1.492   5.545  20.359  0.00  0.00    +0.000 C 
BRANCH  17  18
ATOM     18  C   UNL     1       2.474   6.364  19.539  0.00  0.00    +0.000 C 
BRANCH  18  19
ATOM     19  C   UNL     1       2.011   7.806  19.459  0.00  0.00    +0.000 C 
BRANCH  19  20
ATOM     20  C   UNL     1       2.478   8.425  18.156  0.00  0.00    +0.000 C 
BRANCH  20  21
ATOM     21  C   UNL     1       1.787   9.757  17.941  0.00  0.00    +0.000 C 
BRANCH  21  22
ATOM     22  C   UNL     1       0.283   9.565  17.962  0.00  0.00    +0.000 C 
BRANCH  22  23
ATOM     23  C   UNL     1      -0.377  10.739  18.660  0.00  0.00    +0.000 C 
BRANCH  23  24
ATOM     24  C   UNL     1      -0.304  10.552  20.163  0.00  0.00    +0.000 C 
BRANCH  24  25
ATOM     25  C   UNL     1      -0.236  11.905  20.848  0.00  0.00    +0.000 C 
BRANCH  25  26
ATOM     26  C   UNL     1      -0.789  12.978  19.929  0.00  0.00    +0.000 C 
BRANCH  26  27
ATOM     27  C   UNL     1      -1.875  13.764  20.642  0.00  0.00    +0.000 C 
BRANCH  27  29
ATOM     28  C   UNL     1      -3.720  12.771  21.987  0.00  0.00    +0.000 C 
ATOM     29  C   UNL     1      -3.195  13.011  20.587  0.00  0.00    +0.000 C 
ENDBRANCH  27  29
ENDBRANCH  26  27
ENDBRANCH  25  26
ENDBRANCH  24  25
ENDBRANCH  23  24
ENDBRANCH  22  23
ENDBRANCH  21  22
ENDBRANCH  20  21
ENDBRANCH  19  20
ENDBRANCH  18  19
ENDBRANCH  17  18
ENDBRANCH  16  17
ENDBRANCH   1  16
TORSDOF 18
ENDMDL
MODEL 5
REMARK VINA RESULT:      -5.7      1.807      2.638
REMARK  Name = 
REMARK  19 active torsions:
REMARK  status: ('A' for Active; 'I' for Inactive)
REMARK    1  A    between atoms: C_1  and  C_2
REMARK    2  A    between atoms: C_2  and  C_3
REMARK    3  A    between atoms: C_3  and  C_4
REMARK    4  A    between atoms: C_4  and  C_5
REMARK    5  A    between atoms: C_5  and  C_6
REMARK    6  A    between atoms: C_6  and  C_7
REMARK    7  A    between atoms: C_7  and  C_8
REMARK    8  A    between atoms: C_8  and  C_9
REMARK    9  A    between atoms: C_9  and  C_10
REMARK   10  A    between atoms: C_10  and  C_11
REMARK   11  A    between atoms: C_11  and  C_12
REMARK   12  A    between atoms: C_12  and  C_13
REMARK   13  A    between atoms: C_13  and  C_14
REMARK   14  A    between atoms: C_14  and  C_15
REMARK   15  A    between atoms: C_15  and  C_16
REMARK   16  A    between atoms: C_16  and  C_18
REMARK   17  A    between atoms: C_19  and  O_20
REMARK   18  A    between atoms: C_22  and  C_23
REMARK   19  A    between atoms: C_23  and  O_24
REMARK                            x       y       z     vdW  Elec       q    Type
REMARK                         _______ _______ _______ _____ _____    ______ ____
ROOT
ATOM      1  C   UNL     1       1.011   9.107  18.308  0.00  0.00    +0.000 C 
ENDROOT
BRANCH   1   2
ATOM      2  C   UNL     1       1.059  10.457  19.046  0.00  0.00    +0.000 C 
ATOM      3  O   UNL     1       1.872  11.348  18.788  0.00  0.00    +0.000 OA
BRANCH   2   4
ATOM      4  C   UNL     1       0.027  10.711  20.101  0.00  0.00    +0.000 C 
ATOM      5  C   UNL     1       0.257  10.235  21.344  0.00  0.00    +0.000 C 
ATOM      6  C   UNL     1      -0.643  10.553  22.489  0.00  0.00    +0.000 C 
ATOM      7  C   UNL     1      -1.326  11.878  22.216  0.00  0.00    +0.000 C 
ATOM      8  O   UNL     1      -1.952  11.865  20.916  0.00  0.00    +0.000 OA
ATOM      9  C   UNL     1      -1.244  11.440  19.836  0.00  0.00    +0.000 C 
ATOM     10  O   UNL     1      -1.685  11.628  18.706  0.00  0.00    +0.000 OA
BRANCH   5  11
ATOM     11  O   UNL     1       1.342   9.462  21.701  0.00  0.00    +0.000 OA
ATOM     12  H   UNL     1       1.086   8.516  21.674  0.00  0.00    +0.000 HD
ENDBRANCH   5  11
BRANCH   7  13
ATOM     13  C   UNL     1      -2.414  12.137  23.248  0.00  0.00    +0.000 C 
BRANCH  13  14
ATOM     14  O   UNL     1      -2.266  13.430  23.829  0.00  0.00    +0.000 OA
ATOM     15  H   UNL     1      -3.146  13.844  23.753  0.00  0.00    +0.000 HD
ENDBRANCH  13  14
ENDBRANCH   7  13
ENDBRANCH   2   4
ENDBRANCH   1   2
BRANCH   1  16
ATOM     16  C   UNL     1       2.394   8.623  17.912  0.00  0.00    +0.000 C 
BRANCH  16  17
ATOM     17  C   UNL     1       2.530   7.124  18.139  0.00  0.00    +0.000 C 
BRANCH  17  18
ATOM     18  C   UNL     1       2.570   6.837  19.630  0.00  0.00    +0.000 C 
BRANCH  18  19
ATOM     19  C   UNL     1       1.545   5.776  19.984  0.00  0.00    +0.000 C 
BRANCH  19  20
ATOM     20  C   UNL     1       2.184   4.716  20.860  0.00  0.00    +0.000 C 
BRANCH  20  21
ATOM     21  C   UNL     1       1.240   3.539  21.014  0.00  0.00    +0.000 C 
BRANCH  21  22
ATOM     22  C   UNL     1       1.741   2.367  20.193  0.00  0.00    +0.000 C 
BRANCH  22  23
ATOM     23  C   UNL     1       1.259   2.499  18.760  0.00  0.00    +0.000 C 
BRANCH  23  24
ATOM     24  C   UNL     1       2.393   2.186  17.804  0.00  0.00    +0.000 C 
BRANCH  24  25
ATOM     25  C   UNL     1       3.122   3.465  17.433  0.00  0.00    +0.000 C 
BRANCH  25  26
ATOM     26  C   UNL     1       4.454   3.529  18.158  0.00  0.00    +0.000 C 
BRANCH  26  27
ATOM     27  C   UNL     1       5.289   4.673  17.612  0.00  0.00    +0.000 C 
BRANCH  27  29
ATOM     28  C   UNL     1       5.235   6.316  15.743  0.00  0.00    +0.000 C 
ATOM     29  C   UNL     1       5.013   4.869  16.130  0.00  0.00    +0.000 C 
ENDBRANCH  27  29
ENDBRANCH  26  27
ENDBRANCH  25  26
ENDBRANCH  24  25
ENDBRANCH  23  24
ENDBRANCH  22  23
ENDBRANCH  21  22
ENDBRANCH  20  21
ENDBRANCH  19  20
ENDBRANCH  18  19
ENDBRANCH  17  18
ENDBRANCH  16  17
ENDBRANCH   1  16
TORSDOF 18
ENDMDL
MODEL 6
REMARK VINA RESULT:      -5.7      1.177      1.570
REMARK  Name = 
REMARK  19 active torsions:
REMARK  status: ('A' for Active; 'I' for Inactive)
REMARK    1  A    between atoms: C_1  and  C_2
REMARK    2  A    between atoms: C_2  and  C_3
REMARK    3  A    between atoms: C_3  and  C_4
REMARK    4  A    between atoms: C_4  and  C_5
REMARK    5  A    between atoms: C_5  and  C_6
REMARK    6  A    between atoms: C_6  and  C_7
REMARK    7  A    between atoms: C_7  and  C_8
REMARK    8  A    between atoms: C_8  and  C_9
REMARK    9  A    between atoms: C_9  and  C_10
REMARK   10  A    between atoms: C_10  and  C_11
REMARK   11  A    between atoms: C_11  and  C_12
REMARK   12  A    between atoms: C_12  and  C_13
REMARK   13  A    between atoms: C_13  and  C_14
REMARK   14  A    between atoms: C_14  and  C_15
REMARK   15  A    between atoms: C_15  and  C_16
REMARK   16  A    between atoms: C_16  and  C_18
REMARK   17  A    between atoms: C_19  and  O_20
REMARK   18  A    between atoms: C_22  and  C_23
REMARK   19  A    between atoms: C_23  and  O_24
REMARK                            x       y       z     vdW  Elec       q    Type
REMARK                         _______ _______ _______ _____ _____    ______ ____
ROOT
ATOM      1  C   UNL     1       1.989   8.723  18.555  0.00  0.00    +0.000 C 
ENDROOT
BRANCH   1   2
ATOM      2  C   UNL     1       0.956   9.864  18.551  0.00  0.00    +0.000 C 
ATOM      3  O   UNL     1      -0.105   9.822  17.924  0.00  0.00    +0.000 OA
BRANCH   2   4
ATOM      4  C   UNL     1       1.244  11.067  19.396  0.00  0.00    +0.000 C 
ATOM      5  C   UNL     1       1.919  12.092  18.835  0.00  0.00    +0.000 C 
ATOM      6  C   UNL     1       2.132  13.382  19.551  0.00  0.00    +0.000 C 
ATOM      7  C   UNL     1       1.013  13.570  20.556  0.00  0.00    +0.000 C 
ATOM      8  O   UNL     1       0.888  12.404  21.395  0.00  0.00    +0.000 OA
ATOM      9  C   UNL     1       0.841  11.170  20.826  0.00  0.00    +0.000 C 
ATOM     10  O   UNL     1       0.519  10.199  21.503  0.00  0.00    +0.000 OA
BRANCH   5  11
ATOM     11  O   UNL     1       2.433  12.087  17.555  0.00  0.00    +0.000 OA
ATOM     12  H   UNL     1       3.346  12.446  17.573  0.00  0.00    +0.000 HD
ENDBRANCH   5  11
BRANCH   7  13
ATOM     13  C   UNL     1       1.306  14.758  21.459  0.00  0.00    +0.000 C 
BRANCH  13  14
ATOM     14  O   UNL     1       2.498  14.545  22.210  0.00  0.00    +0.000 OA
ATOM     15  H   UNL     1       2.830  13.675  21.918  0.00  0.00    +0.000 HD
ENDBRANCH  13  14
ENDBRANCH   7  13
ENDBRANCH   2   4
ENDBRANCH   1   2
BRANCH   1  16
ATOM     16  C   UNL     1       1.903   7.878  19.813  0.00  0.00    +0.000 C 
BRANCH  16  17
ATOM     17  C   UNL     1       2.061   6.400  19.485  0.00  0.00    +0.000 C 
BRANCH  17  18
ATOM     18  C   UNL     1       1.737   5.569  20.714  0.00  0.00    +0.000 C 
BRANCH  18  19
ATOM     19  C   UNL     1       2.209   4.141  20.517  0.00  0.00    +0.000 C 
BRANCH  19  20
ATOM     20  C   UNL     1       1.019   3.236  20.259  0.00  0.00    +0.000 C 
BRANCH  20  21
ATOM     21  C   UNL     1       1.065   2.719  18.835  0.00  0.00    +0.000 C 
BRANCH  21  22
ATOM     22  C   UNL     1       2.505   2.607  18.374  0.00  0.00    +0.000 C 
BRANCH  22  23
ATOM     23  C   UNL     1       2.733   3.501  17.170  0.00  0.00    +0.000 C 
BRANCH  23  24
ATOM     24  C   UNL     1       4.220   3.688  16.941  0.00  0.00    +0.000 C 
BRANCH  24  25
ATOM     25  C   UNL     1       4.714   4.896  17.716  0.00  0.00    +0.000 C 
BRANCH  25  26
ATOM     26  C   UNL     1       4.719   6.120  16.817  0.00  0.00    +0.000 C 
BRANCH  26  27
ATOM     27  C   UNL     1       5.994   6.916  17.029  0.00  0.00    +0.000 C 
BRANCH  27  29
ATOM     28  C   UNL     1       7.931   6.576  18.556  0.00  0.00    +0.000 C 
ATOM     29  C   UNL     1       7.139   5.989  17.406  0.00  0.00    +0.000 C 
ENDBRANCH  27  29
ENDBRANCH  26  27
ENDBRANCH  25  26
ENDBRANCH  24  25
ENDBRANCH  23  24
ENDBRANCH  22  23
ENDBRANCH  21  22
ENDBRANCH  20  21
ENDBRANCH  19  20
ENDBRANCH  18  19
ENDBRANCH  17  18
ENDBRANCH  16  17
ENDBRANCH   1  16
TORSDOF 18
ENDMDL
MODEL 7
REMARK VINA RESULT:      -5.7      2.097      2.990
REMARK  Name = 
REMARK  19 active torsions:
REMARK  status: ('A' for Active; 'I' for Inactive)
REMARK    1  A    between atoms: C_1  and  C_2
REMARK    2  A    between atoms: C_2  and  C_3
REMARK    3  A    between atoms: C_3  and  C_4
REMARK    4  A    between atoms: C_4  and  C_5
REMARK    5  A    between atoms: C_5  and  C_6
REMARK    6  A    between atoms: C_6  and  C_7
REMARK    7  A    between atoms: C_7  and  C_8
REMARK    8  A    between atoms: C_8  and  C_9
REMARK    9  A    between atoms: C_9  and  C_10
REMARK   10  A    between atoms: C_10  and  C_11
REMARK   11  A    between atoms: C_11  and  C_12
REMARK   12  A    between atoms: C_12  and  C_13
REMARK   13  A    between atoms: C_13  and  C_14
REMARK   14  A    between atoms: C_14  and  C_15
REMARK   15  A    between atoms: C_15  and  C_16
REMARK   16  A    between atoms: C_16  and  C_18
REMARK   17  A    between atoms: C_19  and  O_20
REMARK   18  A    between atoms: C_22  and  C_23
REMARK   19  A    between atoms: C_23  and  O_24
REMARK                            x       y       z     vdW  Elec       q    Type
REMARK                         _______ _______ _______ _____ _____    ______ ____
ROOT
ATOM      1  C   UNL     1       0.923   9.538  18.397  0.00  0.00    +0.000 C 
ENDROOT
BRANCH   1   2
ATOM      2  C   UNL     1       0.912  10.865  19.177  0.00  0.00    +0.000 C 
ATOM      3  O   UNL     1       1.701  11.789  18.964  0.00  0.00    +0.000 OA
BRANCH   2   4
ATOM      4  C   UNL     1      -0.150  11.053  20.216  0.00  0.00    +0.000 C 
ATOM      5  C   UNL     1       0.135  10.704  21.488  0.00  0.00    +0.000 C 
ATOM      6  C   UNL     1      -0.804  10.981  22.612  0.00  0.00    +0.000 C 
ATOM      7  C   UNL     1      -1.658  12.178  22.247  0.00  0.00    +0.000 C 
ATOM      8  O   UNL     1      -2.270  11.986  20.955  0.00  0.00    +0.000 OA
ATOM      9  C   UNL     1      -1.506  11.583  19.904  0.00  0.00    +0.000 C 
ATOM     10  O   UNL     1      -1.964  11.628  18.767  0.00  0.00    +0.000 OA
BRANCH   5  11
ATOM     11  O   UNL     1       1.314  10.113  21.895  0.00  0.00    +0.000 OA
ATOM     12  H   UNL     1       1.569   9.424  21.246  0.00  0.00    +0.000 HD
ENDBRANCH   5  11
BRANCH   7  13
ATOM     13  C   UNL     1      -2.776  12.361  23.262  0.00  0.00    +0.000 C 
BRANCH  13  14
ATOM     14  O   UNL     1      -4.053  12.280  22.634  0.00  0.00    +0.000 OA
ATOM     15  H   UNL     1      -4.045  11.432  22.152  0.00  0.00    +0.000 HD
ENDBRANCH  13  14
ENDBRANCH   7  13
ENDBRANCH   2   4
ENDBRANCH   1   2
BRANCH   1  16
ATOM     16  C   UNL     1       2.066   8.635  18.823  0.00  0.00    +0.000 C 
BRANCH  16  17
ATOM     17  C   UNL     1       2.252   7.492  17.835  0.00  0.00    +0.000 C 
BRANCH  17  18
ATOM     18  C   UNL     1       2.139   6.165  18.565  0.00  0.00    +0.000 C 
BRANCH  18  19
ATOM     19  C   UNL     1       2.194   6.388  20.064  0.00  0.00    +0.000 C 
BRANCH  19  20
ATOM     20  C   UNL     1       2.268   5.054  20.781  0.00  0.00    +0.000 C 
BRANCH  20  21
ATOM     21  C   UNL     1       1.087   4.191  20.385  0.00  0.00    +0.000 C 
BRANCH  21  22
ATOM     22  C   UNL     1       1.569   2.807  19.995  0.00  0.00    +0.000 C 
BRANCH  22  23
ATOM     23  C   UNL     1       1.213   2.525  18.547  0.00  0.00    +0.000 C 
BRANCH  23  24
ATOM     24  C   UNL     1       2.466   2.174  17.768  0.00  0.00    +0.000 C 
BRANCH  24  25
ATOM     25  C   UNL     1       3.696   2.478  18.604  0.00  0.00    +0.000 C 
BRANCH  25  26
ATOM     26  C   UNL     1       4.534   3.544  17.920  0.00  0.00    +0.000 C 
BRANCH  26  27
ATOM     27  C   UNL     1       5.353   4.300  18.950  0.00  0.00    +0.000 C 
BRANCH  27  29
ATOM     28  C   UNL     1       7.187   5.615  17.898  0.00  0.00    +0.000 C 
ATOM     29  C   UNL     1       5.761   5.660  18.406  0.00  0.00    +0.000 C 
ENDBRANCH  27  29
ENDBRANCH  26  27
ENDBRANCH  25  26
ENDBRANCH  24  25
ENDBRANCH  23  24
ENDBRANCH  22  23
ENDBRANCH  21  22
ENDBRANCH  20  21
ENDBRANCH  19  20
ENDBRANCH  18  19
ENDBRANCH  17  18
ENDBRANCH  16  17
ENDBRANCH   1  16
TORSDOF 18
ENDMDL
MODEL 8
REMARK VINA RESULT:      -5.6      3.966      8.471
REMARK  Name = 
REMARK  19 active torsions:
REMARK  status: ('A' for Active; 'I' for Inactive)
REMARK    1  A    between atoms: C_1  and  C_2
REMARK    2  A    between atoms: C_2  and  C_3
REMARK    3  A    between atoms: C_3  and  C_4
REMARK    4  A    between atoms: C_4  and  C_5
REMARK    5  A    between atoms: C_5  and  C_6
REMARK    6  A    between atoms: C_6  and  C_7
REMARK    7  A    between atoms: C_7  and  C_8
REMARK    8  A    between atoms: C_8  and  C_9
REMARK    9  A    between atoms: C_9  and  C_10
REMARK   10  A    between atoms: C_10  and  C_11
REMARK   11  A    between atoms: C_11  and  C_12
REMARK   12  A    between atoms: C_12  and  C_13
REMARK   13  A    between atoms: C_13  and  C_14
REMARK   14  A    between atoms: C_14  and  C_15
REMARK   15  A    between atoms: C_15  and  C_16
REMARK   16  A    between atoms: C_16  and  C_18
REMARK   17  A    between atoms: C_19  and  O_20
REMARK   18  A    between atoms: C_22  and  C_23
REMARK   19  A    between atoms: C_23  and  O_24
REMARK                            x       y       z     vdW  Elec       q    Type
REMARK                         _______ _______ _______ _____ _____    ______ ____
ROOT
ATOM      1  C   UNL     1       2.602   4.839  20.566  0.00  0.00    +0.000 C 
ENDROOT
BRANCH   1   2
ATOM      2  C   UNL     1       3.441   3.670  20.021  0.00  0.00    +0.000 C 
ATOM      3  O   UNL     1       3.429   2.536  20.506  0.00  0.00    +0.000 OA
BRANCH   2   4
ATOM      4  C   UNL     1       4.279   3.922  18.805  0.00  0.00    +0.000 C 
ATOM      5  C   UNL     1       3.874   3.392  17.631  0.00  0.00    +0.000 C 
ATOM      6  C   UNL     1       4.564   3.700  16.347  0.00  0.00    +0.000 C 
ATOM      7  C   UNL     1       5.226   5.058  16.465  0.00  0.00    +0.000 C 
ATOM      8  O   UNL     1       6.051   5.117  17.646  0.00  0.00    +0.000 OA
ATOM      9  C   UNL     1       5.544   4.707  18.840  0.00  0.00    +0.000 C 
ATOM     10  O   UNL     1       6.152   4.953  19.876  0.00  0.00    +0.000 OA
BRANCH   5  11
ATOM     11  O   UNL     1       2.779   2.567  17.478  0.00  0.00    +0.000 OA
ATOM     12  H   UNL     1       2.916   1.749  18.002  0.00  0.00    +0.000 HD
ENDBRANCH   5  11
BRANCH   7  13
ATOM     13  C   UNL     1       6.122   5.319  15.264  0.00  0.00    +0.000 C 
BRANCH  13  14
ATOM     14  O   UNL     1       7.393   5.815  15.676  0.00  0.00    +0.000 OA
ATOM     15  H   UNL     1       8.033   5.420  15.054  0.00  0.00    +0.000 HD
ENDBRANCH  13  14
ENDBRANCH   7  13
ENDBRANCH   2   4
ENDBRANCH   1   2
BRANCH   1  16
ATOM     16  C   UNL     1       2.049   5.713  19.456  0.00  0.00    +0.000 C 
BRANCH  16  17
ATOM     17  C   UNL     1       2.664   7.105  19.504  0.00  0.00    +0.000 C 
BRANCH  17  18
ATOM     18  C   UNL     1       1.576   8.133  19.762  0.00  0.00    +0.000 C 
BRANCH  18  19
ATOM     19  C   UNL     1       1.325   8.264  21.252  0.00  0.00    +0.000 C 
BRANCH  19  20
ATOM     20  C   UNL     1      -0.141   8.559  21.503  0.00  0.00    +0.000 C 
BRANCH  20  21
ATOM     21  C   UNL     1      -0.279   9.844  22.294  0.00  0.00    +0.000 C 
BRANCH  21  22
ATOM     22  C   UNL     1      -0.618  10.990  21.359  0.00  0.00    +0.000 C 
BRANCH  22  23
ATOM     23  C   UNL     1       0.625  11.814  21.083  0.00  0.00    +0.000 C 
BRANCH  23  24
ATOM     24  C   UNL     1       0.661  12.218  19.622  0.00  0.00    +0.000 C 
BRANCH  24  25
ATOM     25  C   UNL     1      -0.277  11.336  18.819  0.00  0.00    +0.000 C 
BRANCH  25  26
ATOM     26  C   UNL     1      -1.327  12.190  18.131  0.00  0.00    +0.000 C 
BRANCH  26  27
ATOM     27  C   UNL     1      -2.620  11.408  17.987  0.00  0.00    +0.000 C 
BRANCH  27  29
ATOM     28  C   UNL     1      -2.780   9.806  16.088  0.00  0.00    +0.000 C 
ATOM     29  C   UNL     1      -2.332   9.989  17.524  0.00  0.00    +0.000 C 
ENDBRANCH  27  29
ENDBRANCH  26  27
ENDBRANCH  25  26
ENDBRANCH  24  25
ENDBRANCH  23  24
ENDBRANCH  22  23
ENDBRANCH  21  22
ENDBRANCH  20  21
ENDBRANCH  19  20
ENDBRANCH  18  19
ENDBRANCH  17  18
ENDBRANCH  16  17
ENDBRANCH   1  16
TORSDOF 18
ENDMDL
MODEL 9
REMARK VINA RESULT:      -5.6      3.867      8.136
REMARK  Name = 
REMARK  19 active torsions:
REMARK  status: ('A' for Active; 'I' for Inactive)
REMARK    1  A    between atoms: C_1  and  C_2
REMARK    2  A    between atoms: C_2  and  C_3
REMARK    3  A    between atoms: C_3  and  C_4
REMARK    4  A    between atoms: C_4  and  C_5
REMARK    5  A    between atoms: C_5  and  C_6
REMARK    6  A    between atoms: C_6  and  C_7
REMARK    7  A    between atoms: C_7  and  C_8
REMARK    8  A    between atoms: C_8  and  C_9
REMARK    9  A    between atoms: C_9  and  C_10
REMARK   10  A    between atoms: C_10  and  C_11
REMARK   11  A    between atoms: C_11  and  C_12
REMARK   12  A    between atoms: C_12  and  C_13
REMARK   13  A    between atoms: C_13  and  C_14
REMARK   14  A    between atoms: C_14  and  C_15
REMARK   15  A    between atoms: C_15  and  C_16
REMARK   16  A    between atoms: C_16  and  C_18
REMARK   17  A    between atoms: C_19  and  O_20
REMARK   18  A    between atoms: C_22  and  C_23
REMARK   19  A    between atoms: C_23  and  O_24
REMARK                            x       y       z     vdW  Elec       q    Type
REMARK                         _______ _______ _______ _____ _____    ______ ____
ROOT
ATOM      1  C   UNL     1       5.134   4.587  19.695  0.00  0.00    +0.000 C 
ENDROOT
BRANCH   1   2
ATOM      2  C   UNL     1       6.264   5.336  18.966  0.00  0.00    +0.000 C 
ATOM      3  O   UNL     1       7.157   5.957  19.547  0.00  0.00    +0.000 OA
BRANCH   2   4
ATOM      4  C   UNL     1       6.297   5.260  17.471  0.00  0.00    +0.000 C 
ATOM      5  C   UNL     1       7.304   4.574  16.890  0.00  0.00    +0.000 C 
ATOM      6  C   UNL     1       7.347   4.328  15.420  0.00  0.00    +0.000 C 
ATOM      7  C   UNL     1       5.930   4.342  14.885  0.00  0.00    +0.000 C 
ATOM      8  O   UNL     1       5.246   5.544  15.296  0.00  0.00    +0.000 OA
ATOM      9  C   UNL     1       5.287   5.925  16.601  0.00  0.00    +0.000 C 
ATOM     10  O   UNL     1       4.539   6.812  17.000  0.00  0.00    +0.000 OA
BRANCH   5  11
ATOM     11  O   UNL     1       8.356   3.995  17.571  0.00  0.00    +0.000 OA
ATOM     12  H   UNL     1       9.092   4.641  17.635  0.00  0.00    +0.000 HD
ENDBRANCH   5  11
BRANCH   7  13
ATOM     13  C   UNL     1       5.937   4.315  13.364  0.00  0.00    +0.000 C 
BRANCH  13  14
ATOM     14  O   UNL     1       6.239   3.008  12.880  0.00  0.00    +0.000 OA
ATOM     15  H   UNL     1       7.169   3.053  12.589  0.00  0.00    +0.000 HD
ENDBRANCH  13  14
ENDBRANCH   7  13
ENDBRANCH   2   4
ENDBRANCH   1   2
BRANCH   1  16
ATOM     16  C   UNL     1       4.656   3.375  18.917  0.00  0.00    +0.000 C 
BRANCH  16  17
ATOM     17  C   UNL     1       4.090   2.317  19.854  0.00  0.00    +0.000 C 
BRANCH  17  18
ATOM     18  C   UNL     1       2.801   1.761  19.274  0.00  0.00    +0.000 C 
BRANCH  18  19
ATOM     19  C   UNL     1       2.394   2.558  18.050  0.00  0.00    +0.000 C 
BRANCH  19  20
ATOM     20  C   UNL     1       1.243   3.483  18.397  0.00  0.00    +0.000 C 
BRANCH  20  21
ATOM     21  C   UNL     1       0.906   3.354  19.870  0.00  0.00    +0.000 C 
BRANCH  21  22
ATOM     22  C   UNL     1       1.264   4.637  20.594  0.00  0.00    +0.000 C 
BRANCH  22  23
ATOM     23  C   UNL     1       1.758   5.670  19.600  0.00  0.00    +0.000 C 
BRANCH  23  24
ATOM     24  C   UNL     1       2.181   6.929  20.331  0.00  0.00    +0.000 C 
BRANCH  24  25
ATOM     25  C   UNL     1       0.985   7.541  21.038  0.00  0.00    +0.000 C 
BRANCH  25  26
ATOM     26  C   UNL     1       1.166   9.044  21.152  0.00  0.00    +0.000 C 
BRANCH  26  27
ATOM     27  C   UNL     1       0.465   9.740  19.999  0.00  0.00    +0.000 C 
BRANCH  27  29
ATOM     28  C   UNL     1      -0.045  11.983  19.046  0.00  0.00    +0.000 C 
ATOM     29  C   UNL     1       0.266  11.214  20.314  0.00  0.00    +0.000 C 
ENDBRANCH  27  29
ENDBRANCH  26  27
ENDBRANCH  25  26
ENDBRANCH  24  25
ENDBRANCH  23  24
ENDBRANCH  22  23
ENDBRANCH  21  22
ENDBRANCH  20  21
ENDBRANCH  19  20
ENDBRANCH  18  19
ENDBRANCH  17  18
ENDBRANCH  16  17
ENDBRANCH   1  16
TORSDOF 18
ENDMDL
