MODEL 1
REMARK VINA RESULT:      -7.7      0.000      0.000
REMARK  Name = 
REMARK  10 active torsions:
REMARK  status: ('A' for Active; 'I' for Inactive)
REMARK    1  A    between atoms: C_1  and  O_2
REMARK    2  A    between atoms: O_2  and  C_3
REMARK    3  A    between atoms: C_6  and  C_7
REMARK    4  A    between atoms: C_7  and  C_8
REMARK    5  A    between atoms: C_8  and  N_9
REMARK    6  A    between atoms: C_13  and  C_14
REMARK    7  A    between atoms: C_14  and  N_15
REMARK    8  A    between atoms: N_15  and  C_16
REMARK    9  A    between atoms: C_17  and  C_19
REMARK   10  A    between atoms: C_23  and  C_24
REMARK                            x       y       z     vdW  Elec       q    Type
REMARK                         _______ _______ _______ _____ _____    ______ ____
ROOT
ATOM      1  N   UNL     1       1.825   4.087  18.234  0.00  0.00    +0.000 NA
ATOM      2  C   UNL     1       1.839   3.272  19.461  0.00  0.00    +0.000 C 
ATOM      3  C   UNL     1       1.111   3.961  20.611  0.00  0.00    +0.000 C 
ATOM      4  C   UNL     1       1.702   5.335  20.889  0.00  0.00    +0.000 C 
ATOM      5  C   UNL     1       1.672   6.171  19.604  0.00  0.00    +0.000 C 
ATOM      6  C   UNL     1       2.424   5.416  18.482  0.00  0.00    +0.000 C 
ENDROOT
BRANCH   1   7
ATOM      7  C   UNL     1       2.527   3.396  17.125  0.00  0.00    +0.000 C 
BRANCH   7   8
ATOM      8  C   UNL     1       3.949   2.942  17.506  0.00  0.00    +0.000 C 
BRANCH   8  12
ATOM      9  C   UNL     1       6.873   6.071  16.949  0.00  0.00    +0.000 A 
ATOM     10  C   UNL     1       6.063   5.666  15.888  0.00  0.00    +0.000 A 
ATOM     11  C   UNL     1       5.124   4.649  16.065  0.00  0.00    +0.000 A 
ATOM     12  C   UNL     1       4.995   4.013  17.307  0.00  0.00    +0.000 A 
ATOM     13  C   UNL     1       5.831   4.400  18.358  0.00  0.00    +0.000 A 
ATOM     14  C   UNL     1       6.765   5.425  18.181  0.00  0.00    +0.000 A 
BRANCH   9  16
ATOM     15  C   UNL     1       7.827   8.125  17.618  0.00  0.00    +0.000 C 
ATOM     16  O   UNL     1       7.755   7.077  16.659  0.00  0.00    +0.000 OA
ENDBRANCH   9  16
ENDBRANCH   8  12
ENDBRANCH   7   8
ENDBRANCH   1   7
BRANCH   5  17
ATOM     17  C   UNL     1       2.270   7.575  19.823  0.00  0.00    +0.000 C 
BRANCH  17  18
ATOM     18  N   UNL     1       1.538   8.657  19.146  0.00  0.00    +0.000 N 
ATOM     19  C   UNL     1       1.969   8.990  17.790  0.00  0.00    +0.000 C 
ATOM     20  C   UNL     1       0.632   9.436  19.886  0.00  0.00    +0.000 C 
ATOM     21  O   UNL     1       0.486   9.270  21.101  0.00  0.00    +0.000 OA
BRANCH  20  22
ATOM     22  C   UNL     1      -0.145  10.463  19.191  0.00  0.00    +0.000 A 
ATOM     23  C   UNL     1      -1.368  10.370  18.453  0.00  0.00    +0.000 A 
ATOM     24  C   UNL     1      -1.647  11.627  17.978  0.00  0.00    +0.000 A 
ATOM     25  O   UNL     1      -0.723  12.510  18.411  0.00  0.00    +0.000 OA
ATOM     26  C   UNL     1       0.179  11.813  19.161  0.00  0.00    +0.000 A 
ATOM     27  C   UNL     1       1.281  12.619  19.734  0.00  0.00    +0.000 C 
ENDBRANCH  20  22
ENDBRANCH  17  18
ENDBRANCH   5  17
TORSDOF 7
ENDMDL
MODEL 2
REMARK VINA RESULT:      -7.7      4.278      7.805
REMARK  Name = 
REMARK  10 active torsions:
REMARK  status: ('A' for Active; 'I' for Inactive)
REMARK    1  A    between atoms: C_1  and  O_2
REMARK    2  A    between atoms: O_2  and  C_3
REMARK    3  A    between atoms: C_6  and  C_7
REMARK    4  A    between atoms: C_7  and  C_8
REMARK    5  A    between atoms: C_8  and  N_9
REMARK    6  A    between atoms: C_13  and  C_14
REMARK    7  A    between atoms: C_14  and  N_15
REMARK    8  A    between atoms: N_15  and  C_16
REMARK    9  A    between atoms: C_17  and  C_19
REMARK   10  A    between atoms: C_23  and  C_24
REMARK                            x       y       z     vdW  Elec       q    Type
REMARK                         _______ _______ _______ _____ _____    ______ ____
ROOT
ATOM      1  N   UNL     1       7.905   7.809  17.673  0.00  0.00    +0.000 NA
ATOM      2  C   UNL     1       8.185   7.022  18.886  0.00  0.00    +0.000 C 
ATOM      3  C   UNL     1       7.917   5.535  18.674  0.00  0.00    +0.000 C 
ATOM      4  C   UNL     1       6.487   5.295  18.212  0.00  0.00    +0.000 C 
ATOM      5  C   UNL     1       6.218   6.116  16.946  0.00  0.00    +0.000 C 
ATOM      6  C   UNL     1       6.509   7.609  17.229  0.00  0.00    +0.000 C 
ENDROOT
BRANCH   1   7
ATOM      7  C   UNL     1       8.182   9.249  17.895  0.00  0.00    +0.000 C 
BRANCH   7   8
ATOM      8  C   UNL     1       9.031   9.509  19.154  0.00  0.00    +0.000 C 
BRANCH   8  12
ATOM      9  C   UNL     1      11.127  13.282  19.003  0.00  0.00    +0.000 A 
ATOM     10  C   UNL     1      10.837  12.588  17.828  0.00  0.00    +0.000 A 
ATOM     11  C   UNL     1      10.167  11.365  17.876  0.00  0.00    +0.000 A 
ATOM     12  C   UNL     1       9.793  10.812  19.108  0.00  0.00    +0.000 A 
ATOM     13  C   UNL     1      10.114  11.495  20.285  0.00  0.00    +0.000 A 
ATOM     14  C   UNL     1      10.776  12.724  20.233  0.00  0.00    +0.000 A 
BRANCH   9  16
ATOM     15  C   UNL     1      12.333  14.686  17.537  0.00  0.00    +0.000 C 
ATOM     16  O   UNL     1      11.784  14.470  18.832  0.00  0.00    +0.000 OA
ENDBRANCH   9  16
ENDBRANCH   8  12
ENDBRANCH   7   8
ENDBRANCH   1   7
BRANCH   5  17
ATOM     17  C   UNL     1       4.775   5.921  16.436  0.00  0.00    +0.000 C 
BRANCH  17  18
ATOM     18  N   UNL     1       3.854   5.348  17.430  0.00  0.00    +0.000 N 
ATOM     19  C   UNL     1       3.371   6.250  18.473  0.00  0.00    +0.000 C 
ATOM     20  C   UNL     1       3.658   3.956  17.455  0.00  0.00    +0.000 C 
ATOM     21  O   UNL     1       4.286   3.205  16.703  0.00  0.00    +0.000 OA
BRANCH  20  22
ATOM     22  C   UNL     1       2.687   3.399  18.398  0.00  0.00    +0.000 A 
ATOM     23  C   UNL     1       1.256   3.386  18.368  0.00  0.00    +0.000 A 
ATOM     24  C   UNL     1       0.836   2.763  19.516  0.00  0.00    +0.000 A 
ATOM     25  O   UNL     1       1.894   2.335  20.234  0.00  0.00    +0.000 OA
ATOM     26  C   UNL     1       3.018   2.702  19.553  0.00  0.00    +0.000 A 
ATOM     27  C   UNL     1       4.297   2.312  20.187  0.00  0.00    +0.000 C 
ENDBRANCH  20  22
ENDBRANCH  17  18
ENDBRANCH   5  17
TORSDOF 7
ENDMDL
MODEL 3
REMARK VINA RESULT:      -7.6      4.089      7.472
REMARK  Name = 
REMARK  10 active torsions:
REMARK  status: ('A' for Active; 'I' for Inactive)
REMARK    1  A    between atoms: C_1  and  O_2
REMARK    2  A    between atoms: O_2  and  C_3
REMARK    3  A    between atoms: C_6  and  C_7
REMARK    4  A    between atoms: C_7  and  C_8
REMARK    5  A    between atoms: C_8  and  N_9
REMARK    6  A    between atoms: C_13  and  C_14
REMARK    7  A    between atoms: C_14  and  N_15
REMARK    8  A    between atoms: N_15  and  C_16
REMARK    9  A    between atoms: C_17  and  C_19
REMARK   10  A    between atoms: C_23  and  C_24
REMARK                            x       y       z     vdW  Elec       q    Type
REMARK                         _______ _______ _______ _____ _____    ______ ____
ROOT
ATOM      1  N   UNL     1       7.484   7.465  17.442  0.00  0.00    +0.000 NA
ATOM      2  C   UNL     1       8.003   6.620  18.531  0.00  0.00    +0.000 C 
ATOM      3  C   UNL     1       7.592   5.160  18.365  0.00  0.00    +0.000 C 
ATOM      4  C   UNL     1       6.080   5.022  18.271  0.00  0.00    +0.000 C 
ATOM      5  C   UNL     1       5.559   5.902  17.128  0.00  0.00    +0.000 C 
ATOM      6  C   UNL     1       6.011   7.364  17.358  0.00  0.00    +0.000 C 
ENDROOT
BRANCH   1   7
ATOM      7  C   UNL     1       7.903   8.877  17.614  0.00  0.00    +0.000 C 
BRANCH   7   8
ATOM      8  C   UNL     1       8.892   9.070  18.779  0.00  0.00    +0.000 C 
BRANCH   8  12
ATOM      9  C   UNL     1       9.938  13.184  19.573  0.00  0.00    +0.000 A 
ATOM     10  C   UNL     1       9.667  12.309  20.625  0.00  0.00    +0.000 A 
ATOM     11  C   UNL     1       9.321  10.982  20.369  0.00  0.00    +0.000 A 
ATOM     12  C   UNL     1       9.226  10.517  19.051  0.00  0.00    +0.000 A 
ATOM     13  C   UNL     1       9.467  11.406  17.999  0.00  0.00    +0.000 A 
ATOM     14  C   UNL     1       9.823  12.732  18.258  0.00  0.00    +0.000 A 
BRANCH   9  16
ATOM     15  C   UNL     1      10.479  14.657  21.338  0.00  0.00    +0.000 C 
ATOM     16  O   UNL     1      10.269  14.459  19.945  0.00  0.00    +0.000 OA
ENDBRANCH   9  16
ENDBRANCH   8  12
ENDBRANCH   7   8
ENDBRANCH   1   7
BRANCH   5  17
ATOM     17  C   UNL     1       4.026   5.812  16.992  0.00  0.00    +0.000 C 
BRANCH  17  18
ATOM     18  N   UNL     1       3.402   4.790  17.846  0.00  0.00    +0.000 N 
ATOM     19  C   UNL     1       3.044   3.528  17.203  0.00  0.00    +0.000 C 
ATOM     20  C   UNL     1       2.997   5.141  19.146  0.00  0.00    +0.000 C 
ATOM     21  O   UNL     1       3.100   6.300  19.559  0.00  0.00    +0.000 OA
BRANCH  20  22
ATOM     22  C   UNL     1       2.443   4.102  20.016  0.00  0.00    +0.000 A 
ATOM     23  C   UNL     1       1.133   3.950  20.573  0.00  0.00    +0.000 A 
ATOM     24  C   UNL     1       1.154   2.816  21.345  0.00  0.00    +0.000 A 
ATOM     25  O   UNL     1       2.360   2.216  21.267  0.00  0.00    +0.000 OA
ATOM     26  C   UNL     1       3.139   2.981  20.449  0.00  0.00    +0.000 A 
ATOM     27  C   UNL     1       4.514   2.478  20.234  0.00  0.00    +0.000 C 
ENDBRANCH  20  22
ENDBRANCH  17  18
ENDBRANCH   5  17
TORSDOF 7
ENDMDL
MODEL 4
REMARK VINA RESULT:      -7.6      4.100      7.495
REMARK  Name = 
REMARK  10 active torsions:
REMARK  status: ('A' for Active; 'I' for Inactive)
REMARK    1  A    between atoms: C_1  and  O_2
REMARK    2  A    between atoms: O_2  and  C_3
REMARK    3  A    between atoms: C_6  and  C_7
REMARK    4  A    between atoms: C_7  and  C_8
REMARK    5  A    between atoms: C_8  and  N_9
REMARK    6  A    between atoms: C_13  and  C_14
REMARK    7  A    between atoms: C_14  and  N_15
REMARK    8  A    between atoms: N_15  and  C_16
REMARK    9  A    between atoms: C_17  and  C_19
REMARK   10  A    between atoms: C_23  and  C_24
REMARK                            x       y       z     vdW  Elec       q    Type
REMARK                         _______ _______ _______ _____ _____    ______ ____
ROOT
ATOM      1  N   UNL     1       7.625   7.517  17.476  0.00  0.00    +0.000 NA
ATOM      2  C   UNL     1       8.162   6.798  18.643  0.00  0.00    +0.000 C 
ATOM      3  C   UNL     1       7.911   5.295  18.552  0.00  0.00    +0.000 C 
ATOM      4  C   UNL     1       6.428   4.996  18.389  0.00  0.00    +0.000 C 
ATOM      5  C   UNL     1       5.889   5.747  17.166  0.00  0.00    +0.000 C 
ATOM      6  C   UNL     1       6.177   7.259  17.322  0.00  0.00    +0.000 C 
ENDROOT
BRANCH   1   7
ATOM      7  C   UNL     1       7.889   8.973  17.577  0.00  0.00    +0.000 C 
BRANCH   7   8
ATOM      8  C   UNL     1       8.774   9.339  18.784  0.00  0.00    +0.000 C 
BRANCH   8  12
ATOM      9  C   UNL     1      10.402  13.333  18.562  0.00  0.00    +0.000 A 
ATOM     10  C   UNL     1      10.906  12.415  19.484  0.00  0.00    +0.000 A 
ATOM     11  C   UNL     1      10.375  11.127  19.562  0.00  0.00    +0.000 A 
ATOM     12  C   UNL     1       9.318  10.746  18.726  0.00  0.00    +0.000 A 
ATOM     13  C   UNL     1       8.794  11.679  17.825  0.00  0.00    +0.000 A 
ATOM     14  C   UNL     1       9.334  12.965  17.743  0.00  0.00    +0.000 A 
BRANCH   9  16
ATOM     15  C   UNL     1      11.365  15.054  19.861  0.00  0.00    +0.000 C 
ATOM     16  O   UNL     1      11.002  14.562  18.576  0.00  0.00    +0.000 OA
ENDBRANCH   9  16
ENDBRANCH   8  12
ENDBRANCH   7   8
ENDBRANCH   1   7
BRANCH   5  17
ATOM     17  C   UNL     1       4.383   5.489  16.957  0.00  0.00    +0.000 C 
BRANCH  17  18
ATOM     18  N   UNL     1       3.780   4.585  17.949  0.00  0.00    +0.000 N 
ATOM     19  C   UNL     1       4.009   3.155  17.755  0.00  0.00    +0.000 C 
ATOM     20  C   UNL     1       2.867   5.106  18.882  0.00  0.00    +0.000 C 
ATOM     21  O   UNL     1       2.516   6.289  18.845  0.00  0.00    +0.000 OA
BRANCH  20  22
ATOM     22  C   UNL     1       2.326   4.216  19.910  0.00  0.00    +0.000 A 
ATOM     23  C   UNL     1       2.623   4.112  21.306  0.00  0.00    +0.000 A 
ATOM     24  C   UNL     1       1.856   3.089  21.805  0.00  0.00    +0.000 A 
ATOM     25  O   UNL     1       1.060   2.583  20.840  0.00  0.00    +0.000 OA
ATOM     26  C   UNL     1       1.328   3.274  19.694  0.00  0.00    +0.000 A 
ATOM     27  C   UNL     1       0.542   2.863  18.510  0.00  0.00    +0.000 C 
ENDBRANCH  20  22
ENDBRANCH  17  18
ENDBRANCH   5  17
TORSDOF 7
ENDMDL
MODEL 5
REMARK VINA RESULT:      -7.5      0.951      1.192
REMARK  Name = 
REMARK  10 active torsions:
REMARK  status: ('A' for Active; 'I' for Inactive)
REMARK    1  A    between atoms: C_1  and  O_2
REMARK    2  A    between atoms: O_2  and  C_3
REMARK    3  A    between atoms: C_6  and  C_7
REMARK    4  A    between atoms: C_7  and  C_8
REMARK    5  A    between atoms: C_8  and  N_9
REMARK    6  A    between atoms: C_13  and  C_14
REMARK    7  A    between atoms: C_14  and  N_15
REMARK    8  A    between atoms: N_15  and  C_16
REMARK    9  A    between atoms: C_17  and  C_19
REMARK   10  A    between atoms: C_23  and  C_24
REMARK                            x       y       z     vdW  Elec       q    Type
REMARK                         _______ _______ _______ _____ _____    ______ ____
ROOT
ATOM      1  N   UNL     1       2.983   3.857  18.360  0.00  0.00    +0.000 NA
ATOM      2  C   UNL     1       2.323   2.925  19.290  0.00  0.00    +0.000 C 
ATOM      3  C   UNL     1       1.033   3.507  19.860  0.00  0.00    +0.000 C 
ATOM      4  C   UNL     1       1.290   4.840  20.548  0.00  0.00    +0.000 C 
ATOM      5  C   UNL     1       1.970   5.798  19.562  0.00  0.00    +0.000 C 
ATOM      6  C   UNL     1       3.266   5.147  19.024  0.00  0.00    +0.000 C 
ENDROOT
BRANCH   1   7
ATOM      7  C   UNL     1       4.228   3.269  17.808  0.00  0.00    +0.000 C 
BRANCH   7   8
ATOM      8  C   UNL     1       4.843   4.119  16.680  0.00  0.00    +0.000 C 
BRANCH   8  12
ATOM      9  C   UNL     1       7.713   6.994  18.147  0.00  0.00    +0.000 A 
ATOM     10  C   UNL     1       6.685   7.395  17.294  0.00  0.00    +0.000 A 
ATOM     11  C   UNL     1       5.763   6.466  16.812  0.00  0.00    +0.000 A 
ATOM     12  C   UNL     1       5.868   5.115  17.168  0.00  0.00    +0.000 A 
ATOM     13  C   UNL     1       6.919   4.711  17.998  0.00  0.00    +0.000 A 
ATOM     14  C   UNL     1       7.836   5.646  18.486  0.00  0.00    +0.000 A 
BRANCH   9  16
ATOM     15  C   UNL     1       8.259   9.289  18.051  0.00  0.00    +0.000 C 
ATOM     16  O   UNL     1       8.555   7.992  18.556  0.00  0.00    +0.000 OA
ENDBRANCH   9  16
ENDBRANCH   8  12
ENDBRANCH   7   8
ENDBRANCH   1   7
BRANCH   5  17
ATOM     17  C   UNL     1       2.266   7.166  20.210  0.00  0.00    +0.000 C 
BRANCH  17  18
ATOM     18  N   UNL     1       1.633   8.307  19.530  0.00  0.00    +0.000 N 
ATOM     19  C   UNL     1       2.092   8.598  18.173  0.00  0.00    +0.000 C 
ATOM     20  C   UNL     1       0.799   9.165  20.268  0.00  0.00    +0.000 C 
ATOM     21  O   UNL     1       0.639   9.015  21.483  0.00  0.00    +0.000 OA
BRANCH  20  22
ATOM     22  C   UNL     1       0.117  10.255  19.570  0.00  0.00    +0.000 A 
ATOM     23  C   UNL     1      -1.000  10.237  18.674  0.00  0.00    +0.000 A 
ATOM     24  C   UNL     1      -1.218  11.533  18.278  0.00  0.00    +0.000 A 
ATOM     25  O   UNL     1      -0.360  12.367  18.902  0.00  0.00    +0.000 OA
ATOM     26  C   UNL     1       0.439  11.600  19.700  0.00  0.00    +0.000 A 
ATOM     27  C   UNL     1       1.454  12.343  20.478  0.00  0.00    +0.000 C 
ENDBRANCH  20  22
ENDBRANCH  17  18
ENDBRANCH   5  17
TORSDOF 7
ENDMDL
MODEL 6
REMARK VINA RESULT:      -7.5      1.378      1.793
REMARK  Name = 
REMARK  10 active torsions:
REMARK  status: ('A' for Active; 'I' for Inactive)
REMARK    1  A    between atoms: C_1  and  O_2
REMARK    2  A    between atoms: O_2  and  C_3
REMARK    3  A    between atoms: C_6  and  C_7
REMARK    4  A    between atoms: C_7  and  C_8
REMARK    5  A    between atoms: C_8  and  N_9
REMARK    6  A    between atoms: C_13  and  C_14
REMARK    7  A    between atoms: C_14  and  N_15
REMARK    8  A    between atoms: N_15  and  C_16
REMARK    9  A    between atoms: C_17  and  C_19
REMARK   10  A    between atoms: C_23  and  C_24
REMARK                            x       y       z     vdW  Elec       q    Type
REMARK                         _______ _______ _______ _____ _____    ______ ____
ROOT
ATOM      1  N   UNL     1       1.925   4.198  18.240  0.00  0.00    +0.000 NA
ATOM      2  C   UNL     1       1.974   3.313  19.416  0.00  0.00    +0.000 C 
ATOM      3  C   UNL     1       1.225   3.905  20.606  0.00  0.00    +0.000 C 
ATOM      4  C   UNL     1       1.764   5.282  20.964  0.00  0.00    +0.000 C 
ATOM      5  C   UNL     1       1.698   6.190  19.730  0.00  0.00    +0.000 C 
ATOM      6  C   UNL     1       2.474   5.532  18.565  0.00  0.00    +0.000 C 
ENDROOT
BRANCH   1   7
ATOM      7  C   UNL     1       2.648   3.601  17.091  0.00  0.00    +0.000 C 
BRANCH   7   8
ATOM      8  C   UNL     1       4.072   3.139  17.454  0.00  0.00    +0.000 C 
BRANCH   8  12
ATOM      9  C   UNL     1       7.084   5.065  15.031  0.00  0.00    +0.000 A 
ATOM     10  C   UNL     1       6.180   4.171  14.456  0.00  0.00    +0.000 A 
ATOM     11  C   UNL     1       5.213   3.542  15.239  0.00  0.00    +0.000 A 
ATOM     12  C   UNL     1       5.147   3.789  16.617  0.00  0.00    +0.000 A 
ATOM     13  C   UNL     1       6.075   4.661  17.195  0.00  0.00    +0.000 A 
ATOM     14  C   UNL     1       7.038   5.297  16.406  0.00  0.00    +0.000 A 
BRANCH   9  16
ATOM     15  C   UNL     1       7.848   5.233  12.803  0.00  0.00    +0.000 C 
ATOM     16  O   UNL     1       7.985   5.622  14.165  0.00  0.00    +0.000 OA
ENDBRANCH   9  16
ENDBRANCH   8  12
ENDBRANCH   7   8
ENDBRANCH   1   7
BRANCH   5  17
ATOM     17  C   UNL     1       2.244   7.601  20.031  0.00  0.00    +0.000 C 
BRANCH  17  18
ATOM     18  N   UNL     1       1.252   8.677  19.885  0.00  0.00    +0.000 N 
ATOM     19  C   UNL     1       0.301   8.846  20.982  0.00  0.00    +0.000 C 
ATOM     20  C   UNL     1       1.132   9.332  18.646  0.00  0.00    +0.000 C 
ATOM     21  O   UNL     1       1.798   8.980  17.668  0.00  0.00    +0.000 OA
BRANCH  20  22
ATOM     22  C   UNL     1       0.194  10.449  18.529  0.00  0.00    +0.000 A 
ATOM     23  C   UNL     1      -1.177  10.479  18.119  0.00  0.00    +0.000 A 
ATOM     24  C   UNL     1      -1.579  11.790  18.156  0.00  0.00    +0.000 A 
ATOM     25  O   UNL     1      -0.582  12.576  18.612  0.00  0.00    +0.000 OA
ATOM     26  C   UNL     1       0.489  11.766  18.857  0.00  0.00    +0.000 A 
ATOM     27  C   UNL     1       1.695  12.451  19.373  0.00  0.00    +0.000 C 
ENDBRANCH  20  22
ENDBRANCH  17  18
ENDBRANCH   5  17
TORSDOF 7
ENDMDL
MODEL 7
REMARK VINA RESULT:      -7.5      1.134      1.485
REMARK  Name = 
REMARK  10 active torsions:
REMARK  status: ('A' for Active; 'I' for Inactive)
REMARK    1  A    between atoms: C_1  and  O_2
REMARK    2  A    between atoms: O_2  and  C_3
REMARK    3  A    between atoms: C_6  and  C_7
REMARK    4  A    between atoms: C_7  and  C_8
REMARK    5  A    between atoms: C_8  and  N_9
REMARK    6  A    between atoms: C_13  and  C_14
REMARK    7  A    between atoms: C_14  and  N_15
REMARK    8  A    between atoms: N_15  and  C_16
REMARK    9  A    between atoms: C_17  and  C_19
REMARK   10  A    between atoms: C_23  and  C_24
REMARK                            x       y       z     vdW  Elec       q    Type
REMARK                         _______ _______ _______ _____ _____    ______ ____
ROOT
ATOM      1  N   UNL     1       1.966   4.194  18.152  0.00  0.00    +0.000 NA
ATOM      2  C   UNL     1       1.924   3.352  19.359  0.00  0.00    +0.000 C 
ATOM      3  C   UNL     1       1.120   4.003  20.480  0.00  0.00    +0.000 C 
ATOM      4  C   UNL     1       1.670   5.381  20.821  0.00  0.00    +0.000 C 
ATOM      5  C   UNL     1       1.699   6.244  19.554  0.00  0.00    +0.000 C 
ATOM      6  C   UNL     1       2.527   5.527  18.462  0.00  0.00    +0.000 C 
ENDROOT
BRANCH   1   7
ATOM      7  C   UNL     1       2.742   3.539  17.070  0.00  0.00    +0.000 C 
BRANCH   7   8
ATOM      8  C   UNL     1       4.183   3.194  17.491  0.00  0.00    +0.000 C 
BRANCH   8  12
ATOM      9  C   UNL     1       7.122   5.103  14.967  0.00  0.00    +0.000 A 
ATOM     10  C   UNL     1       6.365   4.035  14.485  0.00  0.00    +0.000 A 
ATOM     11  C   UNL     1       5.422   3.412  15.303  0.00  0.00    +0.000 A 
ATOM     12  C   UNL     1       5.235   3.843  16.623  0.00  0.00    +0.000 A 
ATOM     13  C   UNL     1       6.018   4.893  17.112  0.00  0.00    +0.000 A 
ATOM     14  C   UNL     1       6.956   5.521  16.288  0.00  0.00    +0.000 A 
BRANCH   9  16
ATOM     15  C   UNL     1       7.858   5.212  12.726  0.00  0.00    +0.000 C 
ATOM     16  O   UNL     1       8.014   5.635  14.075  0.00  0.00    +0.000 OA
ENDBRANCH   9  16
ENDBRANCH   8  12
ENDBRANCH   7   8
ENDBRANCH   1   7
BRANCH   5  17
ATOM     17  C   UNL     1       2.260   7.653  19.837  0.00  0.00    +0.000 C 
BRANCH  17  18
ATOM     18  N   UNL     1       1.539   8.739  19.156  0.00  0.00    +0.000 N 
ATOM     19  C   UNL     1       1.967   9.057  17.796  0.00  0.00    +0.000 C 
ATOM     20  C   UNL     1       0.647   9.535  19.896  0.00  0.00    +0.000 C 
ATOM     21  O   UNL     1       0.505   9.379  21.112  0.00  0.00    +0.000 OA
BRANCH  20  22
ATOM     22  C   UNL     1      -0.120  10.567  19.197  0.00  0.00    +0.000 A 
ATOM     23  C   UNL     1      -1.346  10.484  18.462  0.00  0.00    +0.000 A 
ATOM     24  C   UNL     1      -1.612  11.742  17.981  0.00  0.00    +0.000 A 
ATOM     25  O   UNL     1      -0.677  12.616  18.408  0.00  0.00    +0.000 OA
ATOM     26  C   UNL     1       0.219  11.914  19.160  0.00  0.00    +0.000 A 
ATOM     27  C   UNL     1       1.330  12.709  19.727  0.00  0.00    +0.000 C 
ENDBRANCH  20  22
ENDBRANCH  17  18
ENDBRANCH   5  17
TORSDOF 7
ENDMDL
MODEL 8
REMARK VINA RESULT:      -7.5      4.141      7.509
REMARK  Name = 
REMARK  10 active torsions:
REMARK  status: ('A' for Active; 'I' for Inactive)
REMARK    1  A    between atoms: C_1  and  O_2
REMARK    2  A    between atoms: O_2  and  C_3
REMARK    3  A    between atoms: C_6  and  C_7
REMARK    4  A    between atoms: C_7  and  C_8
REMARK    5  A    between atoms: C_8  and  N_9
REMARK    6  A    between atoms: C_13  and  C_14
REMARK    7  A    between atoms: C_14  and  N_15
REMARK    8  A    between atoms: N_15  and  C_16
REMARK    9  A    between atoms: C_17  and  C_19
REMARK   10  A    between atoms: C_23  and  C_24
REMARK                            x       y       z     vdW  Elec       q    Type
REMARK                         _______ _______ _______ _____ _____    ______ ____
ROOT
ATOM      1  N   UNL     1       7.669   7.562  17.480  0.00  0.00    +0.000 NA
ATOM      2  C   UNL     1       8.122   7.071  18.792  0.00  0.00    +0.000 C 
ATOM      3  C   UNL     1       7.851   5.579  18.967  0.00  0.00    +0.000 C 
ATOM      4  C   UNL     1       6.376   5.262  18.769  0.00  0.00    +0.000 C 
ATOM      5  C   UNL     1       5.926   5.774  17.396  0.00  0.00    +0.000 C 
ATOM      6  C   UNL     1       6.229   7.287  17.286  0.00  0.00    +0.000 C 
ENDROOT
BRANCH   1   7
ATOM      7  C   UNL     1       7.951   9.009  17.324  0.00  0.00    +0.000 C 
BRANCH   7   8
ATOM      8  C   UNL     1       8.730   9.599  18.516  0.00  0.00    +0.000 C 
BRANCH   8  12
ATOM      9  C   UNL     1      10.608  13.408  17.727  0.00  0.00    +0.000 A 
ATOM     10  C   UNL     1       9.218  13.305  17.787  0.00  0.00    +0.000 A 
ATOM     11  C   UNL     1       8.610  12.073  18.033  0.00  0.00    +0.000 A 
ATOM     12  C   UNL     1       9.389  10.922  18.207  0.00  0.00    +0.000 A 
ATOM     13  C   UNL     1      10.781  11.023  18.114  0.00  0.00    +0.000 A 
ATOM     14  C   UNL     1      11.387  12.260  17.876  0.00  0.00    +0.000 A 
BRANCH   9  16
ATOM     15  C   UNL     1      10.452  15.716  18.197  0.00  0.00    +0.000 C 
ATOM     16  O   UNL     1      11.090  14.664  17.481  0.00  0.00    +0.000 OA
ENDBRANCH   9  16
ENDBRANCH   8  12
ENDBRANCH   7   8
ENDBRANCH   1   7
BRANCH   5  17
ATOM     17  C   UNL     1       4.431   5.490  17.144  0.00  0.00    +0.000 C 
BRANCH  17  18
ATOM     18  N   UNL     1       3.824   4.550  18.100  0.00  0.00    +0.000 N 
ATOM     19  C   UNL     1       4.087   3.130  17.879  0.00  0.00    +0.000 C 
ATOM     20  C   UNL     1       2.878   5.031  19.022  0.00  0.00    +0.000 C 
ATOM     21  O   UNL     1       2.504   6.207  19.004  0.00  0.00    +0.000 OA
BRANCH  20  22
ATOM     22  C   UNL     1       2.332   4.106  20.016  0.00  0.00    +0.000 A 
ATOM     23  C   UNL     1       2.628   3.947  21.408  0.00  0.00    +0.000 A 
ATOM     24  C   UNL     1       1.855   2.910  21.867  0.00  0.00    +0.000 A 
ATOM     25  O   UNL     1       1.056   2.447  20.884  0.00  0.00    +0.000 OA
ATOM     26  C   UNL     1       1.327   3.179  19.765  0.00  0.00    +0.000 A 
ATOM     27  C   UNL     1       0.539   2.819  18.567  0.00  0.00    +0.000 C 
ENDBRANCH  20  22
ENDBRANCH  17  18
ENDBRANCH   5  17
TORSDOF 7
ENDMDL
MODEL 9
REMARK VINA RESULT:      -7.3      1.487      2.206
REMARK  Name = 
REMARK  10 active torsions:
REMARK  status: ('A' for Active; 'I' for Inactive)
REMARK    1  A    between atoms: C_1  and  O_2
REMARK    2  A    between atoms: O_2  and  C_3
REMARK    3  A    between atoms: C_6  and  C_7
REMARK    4  A    between atoms: C_7  and  C_8
REMARK    5  A    between atoms: C_8  and  N_9
REMARK    6  A    between atoms: C_13  and  C_14
REMARK    7  A    between atoms: C_14  and  N_15
REMARK    8  A    between atoms: N_15  and  C_16
REMARK    9  A    between atoms: C_17  and  C_19
REMARK   10  A    between atoms: C_23  and  C_24
REMARK                            x       y       z     vdW  Elec       q    Type
REMARK                         _______ _______ _______ _____ _____    ______ ____
ROOT
ATOM      1  N   UNL     1       3.144   4.141  19.123  0.00  0.00    +0.000 NA
ATOM      2  C   UNL     1       2.365   3.480  20.184  0.00  0.00    +0.000 C 
ATOM      3  C   UNL     1       1.034   4.183  20.435  0.00  0.00    +0.000 C 
ATOM      4  C   UNL     1       1.245   5.651  20.777  0.00  0.00    +0.000 C 
ATOM      5  C   UNL     1       2.051   6.323  19.659  0.00  0.00    +0.000 C 
ATOM      6  C   UNL     1       3.383   5.562  19.456  0.00  0.00    +0.000 C 
ENDROOT
BRANCH   1   7
ATOM      7  C   UNL     1       4.427   3.437  18.885  0.00  0.00    +0.000 C 
BRANCH   7   8
ATOM      8  C   UNL     1       5.586   4.398  18.556  0.00  0.00    +0.000 C 
BRANCH   8  12
ATOM      9  C   UNL     1       6.574   4.492  14.352  0.00  0.00    +0.000 A 
ATOM     10  C   UNL     1       7.500   4.917  15.305  0.00  0.00    +0.000 A 
ATOM     11  C   UNL     1       7.178   4.895  16.662  0.00  0.00    +0.000 A 
ATOM     12  C   UNL     1       5.915   4.460  17.084  0.00  0.00    +0.000 A 
ATOM     13  C   UNL     1       4.978   4.065  16.123  0.00  0.00    +0.000 A 
ATOM     14  C   UNL     1       5.306   4.080  14.765  0.00  0.00    +0.000 A 
BRANCH   9  16
ATOM     15  C   UNL     1       6.469   3.564  12.184  0.00  0.00    +0.000 C 
ATOM     16  O   UNL     1       7.000   4.557  13.054  0.00  0.00    +0.000 OA
ENDBRANCH   9  16
ENDBRANCH   8  12
ENDBRANCH   7   8
ENDBRANCH   1   7
BRANCH   5  17
ATOM     17  C   UNL     1       2.306   7.814  19.958  0.00  0.00    +0.000 C 
BRANCH  17  18
ATOM     18  N   UNL     1       1.483   8.740  19.163  0.00  0.00    +0.000 N 
ATOM     19  C   UNL     1       1.817   8.862  17.746  0.00  0.00    +0.000 C 
ATOM     20  C   UNL     1       0.584   9.593  19.826  0.00  0.00    +0.000 C 
ATOM     21  O   UNL     1       0.517   9.624  21.058  0.00  0.00    +0.000 OA
BRANCH  20  22
ATOM     22  C   UNL     1      -0.283  10.460  19.026  0.00  0.00    +0.000 A 
ATOM     23  C   UNL     1      -1.503  10.179  18.333  0.00  0.00    +0.000 A 
ATOM     24  C   UNL     1      -1.889  11.340  17.712  0.00  0.00    +0.000 A 
ATOM     25  O   UNL     1      -1.035  12.340  18.010  0.00  0.00    +0.000 OA
ATOM     26  C   UNL     1      -0.069  11.817  18.820  0.00  0.00    +0.000 A 
ATOM     27  C   UNL     1       0.970  12.772  19.263  0.00  0.00    +0.000 C 
ENDBRANCH  20  22
ENDBRANCH  17  18
ENDBRANCH   5  17
TORSDOF 7
ENDMDL
