MODEL 1
REMARK VINA RESULT:      -8.7      0.000      0.000
REMARK  Name = 
REMARK  5 active torsions:
REMARK  status: ('A' for Active; 'I' for Inactive)
REMARK    1  A    between atoms: C_2  and  C_3
REMARK    2  A    between atoms: C_3  and  C_4
REMARK    3  A    between atoms: N_7  and  N_8
REMARK    4  A    between atoms: C_9  and  C_10
REMARK    5  A    between atoms: N_22  and  C_23
REMARK                            x       y       z     vdW  Elec       q    Type
REMARK                         _______ _______ _______ _____ _____    ______ ____
ROOT
ATOM      1  C   UNL     1       7.103   4.429  16.466  0.00  0.00    +0.000 C 
ATOM      2  S   UNL     1       7.292   5.170  18.114  0.00  0.00    +0.000 S 
ATOM      3  C   UNL     1       7.579   6.734  17.383  0.00  0.00    +0.000 C 
ATOM      4  N   UNL     1       7.788   7.756  18.273  0.00  0.00    +0.000 N 
ATOM      5  N   UNL     1       7.588   6.783  16.095  0.00  0.00    +0.000 NA
ATOM      6  C   UNL     1       7.298   5.582  15.502  0.00  0.00    +0.000 C 
ATOM      7  O   UNL     1       7.171   5.430  14.290  0.00  0.00    +0.000 OA
ATOM      8  H   UNL     1       7.661   7.503  19.250  0.00  0.00    +0.000 HD
ENDROOT
BRANCH   4   9
ATOM      9  N   UNL     1       8.457   8.896  17.941  0.00  0.00    +0.000 NA
ATOM     10  C   UNL     1       7.902  10.011  18.287  0.00  0.00    +0.000 C 
BRANCH  10  11
ATOM     11  C   UNL     1       8.611  11.244  18.013  0.00  0.00    +0.000 A 
ATOM     12  C   UNL     1       8.137  12.278  17.229  0.00  0.00    +0.000 A 
ATOM     13  N   UNL     1       9.080  13.265  17.195  0.00  0.00    +0.000 N 
ATOM     14  C   UNL     1      10.176  12.900  17.942  0.00  0.00    +0.000 A 
ATOM     15  C   UNL     1      11.365  13.594  18.189  0.00  0.00    +0.000 A 
ATOM     16  C   UNL     1      12.323  12.971  18.993  0.00  0.00    +0.000 A 
ATOM     17  C   UNL     1      12.097  11.705  19.529  0.00  0.00    +0.000 A 
ATOM     18  C   UNL     1      10.900  11.026  19.275  0.00  0.00    +0.000 A 
ATOM     19  C   UNL     1       9.913  11.630  18.467  0.00  0.00    +0.000 A 
ATOM     20  H   UNL     1       8.991  14.140  16.696  0.00  0.00    +0.000 HD
ENDBRANCH  10  11
ENDBRANCH   4   9
BRANCH   1  21
ATOM     21  C   UNL     1       5.778   3.718  16.222  0.00  0.00    +0.000 C 
BRANCH  21  23
ATOM     22  O   UNL     1       4.142   5.309  16.885  0.00  0.00    +0.000 OA
ATOM     23  C   UNL     1       4.657   4.218  17.114  0.00  0.00    +0.000 C 
ATOM     24  N   UNL     1       4.309   3.354  18.135  0.00  0.00    +0.000 N 
ATOM     25  H   UNL     1       4.927   2.575  18.336  0.00  0.00    +0.000 HD
BRANCH  24  26
ATOM     26  C   UNL     1       3.219   3.527  19.022  0.00  0.00    +0.000 A 
ATOM     27  C   UNL     1       2.138   2.643  19.084  0.00  0.00    +0.000 A 
ATOM     28  C   UNL     1       1.094   2.851  19.990  0.00  0.00    +0.000 A 
ATOM     29  C   UNL     1       1.119   3.952  20.841  0.00  0.00    +0.000 A 
ATOM     30  C   UNL     1       2.191   4.839  20.792  0.00  0.00    +0.000 A 
ATOM     31  C   UNL     1       3.244   4.621  19.895  0.00  0.00    +0.000 A 
ENDBRANCH  24  26
ENDBRANCH  21  23
ENDBRANCH   1  21
TORSDOF 5
ENDMDL
MODEL 2
REMARK VINA RESULT:      -8.5      2.499      2.904
REMARK  Name = 
REMARK  5 active torsions:
REMARK  status: ('A' for Active; 'I' for Inactive)
REMARK    1  A    between atoms: C_2  and  C_3
REMARK    2  A    between atoms: C_3  and  C_4
REMARK    3  A    between atoms: N_7  and  N_8
REMARK    4  A    between atoms: C_9  and  C_10
REMARK    5  A    between atoms: N_22  and  C_23
REMARK                            x       y       z     vdW  Elec       q    Type
REMARK                         _______ _______ _______ _____ _____    ______ ____
ROOT
ATOM      1  C   UNL     1       6.448   5.212  17.156  0.00  0.00    +0.000 C 
ATOM      2  S   UNL     1       7.599   5.529  18.526  0.00  0.00    +0.000 S 
ATOM      3  C   UNL     1       7.682   7.217  18.072  0.00  0.00    +0.000 C 
ATOM      4  N   UNL     1       8.486   7.989  18.871  0.00  0.00    +0.000 N 
ATOM      5  N   UNL     1       7.007   7.576  17.034  0.00  0.00    +0.000 NA
ATOM      6  C   UNL     1       6.268   6.560  16.487  0.00  0.00    +0.000 C 
ATOM      7  O   UNL     1       5.490   6.708  15.548  0.00  0.00    +0.000 OA
ATOM      8  H   UNL     1       8.866   7.509  19.683  0.00  0.00    +0.000 HD
ENDROOT
BRANCH   4   9
ATOM      9  N   UNL     1       9.036   9.162  18.448  0.00  0.00    +0.000 NA
ATOM     10  C   UNL     1       9.207  10.075  19.345  0.00  0.00    +0.000 C 
BRANCH  10  11
ATOM     11  C   UNL     1       9.850  11.312  18.952  0.00  0.00    +0.000 A 
ATOM     12  C   UNL     1      10.397  11.565  17.709  0.00  0.00    +0.000 A 
ATOM     13  N   UNL     1      10.917  12.828  17.713  0.00  0.00    +0.000 N 
ATOM     14  C   UNL     1      10.728  13.415  18.942  0.00  0.00    +0.000 A 
ATOM     15  C   UNL     1      11.092  14.688  19.395  0.00  0.00    +0.000 A 
ATOM     16  C   UNL     1      10.774  15.022  20.713  0.00  0.00    +0.000 A 
ATOM     17  C   UNL     1      10.116  14.119  21.544  0.00  0.00    +0.000 A 
ATOM     18  C   UNL     1       9.754  12.851  21.074  0.00  0.00    +0.000 A 
ATOM     19  C   UNL     1      10.062  12.484  19.747  0.00  0.00    +0.000 A 
ATOM     20  H   UNL     1      11.376  13.271  16.929  0.00  0.00    +0.000 HD
ENDBRANCH  10  11
ENDBRANCH   4   9
BRANCH   1  21
ATOM     21  C   UNL     1       5.109   4.609  17.560  0.00  0.00    +0.000 C 
BRANCH  21  23
ATOM     22  O   UNL     1       4.519   5.441  19.706  0.00  0.00    +0.000 OA
ATOM     23  C   UNL     1       4.310   5.496  18.497  0.00  0.00    +0.000 C 
ATOM     24  N   UNL     1       3.394   6.316  17.868  0.00  0.00    +0.000 N 
ATOM     25  H   UNL     1       3.180   6.138  16.892  0.00  0.00    +0.000 HD
BRANCH  24  26
ATOM     26  C   UNL     1       2.620   7.319  18.499  0.00  0.00    +0.000 A 
ATOM     27  C   UNL     1       2.222   8.494  17.855  0.00  0.00    +0.000 A 
ATOM     28  C   UNL     1       1.443   9.447  18.520  0.00  0.00    +0.000 A 
ATOM     29  C   UNL     1       1.059   9.235  19.840  0.00  0.00    +0.000 A 
ATOM     30  C   UNL     1       1.445   8.067  20.492  0.00  0.00    +0.000 A 
ATOM     31  C   UNL     1       2.212   7.106  19.821  0.00  0.00    +0.000 A 
ENDBRANCH  24  26
ENDBRANCH  21  23
ENDBRANCH   1  21
TORSDOF 5
ENDMDL
MODEL 3
REMARK VINA RESULT:      -8.5      1.740      2.123
REMARK  Name = 
REMARK  5 active torsions:
REMARK  status: ('A' for Active; 'I' for Inactive)
REMARK    1  A    between atoms: C_2  and  C_3
REMARK    2  A    between atoms: C_3  and  C_4
REMARK    3  A    between atoms: N_7  and  N_8
REMARK    4  A    between atoms: C_9  and  C_10
REMARK    5  A    between atoms: N_22  and  C_23
REMARK                            x       y       z     vdW  Elec       q    Type
REMARK                         _______ _______ _______ _____ _____    ______ ____
ROOT
ATOM      1  C   UNL     1       6.382   4.533  16.598  0.00  0.00    +0.000 C 
ATOM      2  S   UNL     1       7.546   4.995  17.914  0.00  0.00    +0.000 S 
ATOM      3  C   UNL     1       7.341   6.685  17.508  0.00  0.00    +0.000 C 
ATOM      4  N   UNL     1       8.060   7.555  18.286  0.00  0.00    +0.000 N 
ATOM      5  N   UNL     1       6.560   6.956  16.519  0.00  0.00    +0.000 NA
ATOM      6  C   UNL     1       5.958   5.850  15.981  0.00  0.00    +0.000 C 
ATOM      7  O   UNL     1       5.114   5.895  15.089  0.00  0.00    +0.000 OA
ATOM      8  H   UNL     1       8.555   7.123  19.063  0.00  0.00    +0.000 HD
ENDROOT
BRANCH   4   9
ATOM      9  N   UNL     1       8.397   8.809  17.870  0.00  0.00    +0.000 NA
ATOM     10  C   UNL     1       8.549   9.700  18.793  0.00  0.00    +0.000 C 
BRANCH  10  11
ATOM     11  C   UNL     1       8.972  11.029  18.401  0.00  0.00    +0.000 A 
ATOM     12  C   UNL     1       8.266  11.876  17.569  0.00  0.00    +0.000 A 
ATOM     13  N   UNL     1       8.978  13.033  17.422  0.00  0.00    +0.000 N 
ATOM     14  C   UNL     1      10.149  12.963  18.140  0.00  0.00    +0.000 A 
ATOM     15  C   UNL     1      11.172  13.907  18.281  0.00  0.00    +0.000 A 
ATOM     16  C   UNL     1      12.265  13.562  19.080  0.00  0.00    +0.000 A 
ATOM     17  C   UNL     1      12.329  12.323  19.714  0.00  0.00    +0.000 A 
ATOM     18  C   UNL     1      11.295  11.392  19.565  0.00  0.00    +0.000 A 
ATOM     19  C   UNL     1      10.177  11.712  18.764  0.00  0.00    +0.000 A 
ATOM     20  H   UNL     1       8.690  13.827  16.867  0.00  0.00    +0.000 HD
ENDBRANCH  10  11
ENDBRANCH   4   9
BRANCH   1  21
ATOM     21  C   UNL     1       5.178   3.718  17.053  0.00  0.00    +0.000 C 
BRANCH  21  23
ATOM     22  O   UNL     1       4.223   3.976  19.214  0.00  0.00    +0.000 OA
ATOM     23  C   UNL     1       4.322   4.437  18.080  0.00  0.00    +0.000 C 
ATOM     24  N   UNL     1       3.721   5.591  17.617  0.00  0.00    +0.000 N 
ATOM     25  H   UNL     1       3.723   5.768  16.618  0.00  0.00    +0.000 HD
BRANCH  24  26
ATOM     26  C   UNL     1       2.980   6.505  18.406  0.00  0.00    +0.000 A 
ATOM     27  C   UNL     1       2.573   7.759  17.942  0.00  0.00    +0.000 A 
ATOM     28  C   UNL     1       1.828   8.617  18.757  0.00  0.00    +0.000 A 
ATOM     29  C   UNL     1       1.488   8.231  20.049  0.00  0.00    +0.000 A 
ATOM     30  C   UNL     1       1.885   6.983  20.524  0.00  0.00    +0.000 A 
ATOM     31  C   UNL     1       2.617   6.117  19.701  0.00  0.00    +0.000 A 
ENDBRANCH  24  26
ENDBRANCH  21  23
ENDBRANCH   1  21
TORSDOF 5
ENDMDL
MODEL 4
REMARK VINA RESULT:      -8.4      1.161      1.864
REMARK  Name = 
REMARK  5 active torsions:
REMARK  status: ('A' for Active; 'I' for Inactive)
REMARK    1  A    between atoms: C_2  and  C_3
REMARK    2  A    between atoms: C_3  and  C_4
REMARK    3  A    between atoms: N_7  and  N_8
REMARK    4  A    between atoms: C_9  and  C_10
REMARK    5  A    between atoms: N_22  and  C_23
REMARK                            x       y       z     vdW  Elec       q    Type
REMARK                         _______ _______ _______ _____ _____    ______ ____
ROOT
ATOM      1  C   UNL     1       7.005   4.534  16.603  0.00  0.00    +0.000 C 
ATOM      2  S   UNL     1       7.113   5.451  18.168  0.00  0.00    +0.000 S 
ATOM      3  C   UNL     1       7.467   6.921  17.288  0.00  0.00    +0.000 C 
ATOM      4  N   UNL     1       7.643   8.033  18.071  0.00  0.00    +0.000 N 
ATOM      5  N   UNL     1       7.549   6.828  16.005  0.00  0.00    +0.000 NA
ATOM      6  C   UNL     1       7.272   5.572  15.532  0.00  0.00    +0.000 C 
ATOM      7  O   UNL     1       7.210   5.288  14.338  0.00  0.00    +0.000 OA
ATOM      8  H   UNL     1       7.458   7.890  19.061  0.00  0.00    +0.000 HD
ENDROOT
BRANCH   4   9
ATOM      9  N   UNL     1       8.348   9.123  17.656  0.00  0.00    +0.000 NA
ATOM     10  C   UNL     1       8.818   9.892  18.581  0.00  0.00    +0.000 C 
BRANCH  10  11
ATOM     11  C   UNL     1       9.630  11.024  18.186  0.00  0.00    +0.000 A 
ATOM     12  C   UNL     1      10.924  10.948  17.708  0.00  0.00    +0.000 A 
ATOM     13  N   UNL     1      11.366  12.214  17.448  0.00  0.00    +0.000 N 
ATOM     14  C   UNL     1      10.386  13.130  17.752  0.00  0.00    +0.000 A 
ATOM     15  C   UNL     1      10.397  14.525  17.643  0.00  0.00    +0.000 A 
ATOM     16  C   UNL     1       9.246  15.214  18.034  0.00  0.00    +0.000 A 
ATOM     17  C   UNL     1       8.129  14.533  18.512  0.00  0.00    +0.000 A 
ATOM     18  C   UNL     1       8.134  13.136  18.610  0.00  0.00    +0.000 A 
ATOM     19  C   UNL     1       9.281  12.413  18.223  0.00  0.00    +0.000 A 
ATOM     20  H   UNL     1      12.280  12.449  17.085  0.00  0.00    +0.000 HD
ENDBRANCH  10  11
ENDBRANCH   4   9
BRANCH   1  21
ATOM     21  C   UNL     1       5.684   3.815  16.362  0.00  0.00    +0.000 C 
BRANCH  21  23
ATOM     22  O   UNL     1       4.200   5.238  17.555  0.00  0.00    +0.000 OA
ATOM     23  C   UNL     1       4.644   4.099  17.430  0.00  0.00    +0.000 C 
ATOM     24  N   UNL     1       4.281   3.000  18.184  0.00  0.00    +0.000 N 
ATOM     25  H   UNL     1       4.848   2.162  18.115  0.00  0.00    +0.000 HD
BRANCH  24  26
ATOM     26  C   UNL     1       3.248   2.972  19.151  0.00  0.00    +0.000 A 
ATOM     27  C   UNL     1       3.491   2.955  20.528  0.00  0.00    +0.000 A 
ATOM     28  C   UNL     1       2.434   2.945  21.442  0.00  0.00    +0.000 A 
ATOM     29  C   UNL     1       1.119   2.943  20.988  0.00  0.00    +0.000 A 
ATOM     30  C   UNL     1       0.862   2.962  19.620  0.00  0.00    +0.000 A 
ATOM     31  C   UNL     1       1.921   2.989  18.704  0.00  0.00    +0.000 A 
ENDBRANCH  24  26
ENDBRANCH  21  23
ENDBRANCH   1  21
TORSDOF 5
ENDMDL
MODEL 5
REMARK VINA RESULT:      -8.4      6.495      9.954
REMARK  Name = 
REMARK  5 active torsions:
REMARK  status: ('A' for Active; 'I' for Inactive)
REMARK    1  A    between atoms: C_2  and  C_3
REMARK    2  A    between atoms: C_3  and  C_4
REMARK    3  A    between atoms: N_7  and  N_8
REMARK    4  A    between atoms: C_9  and  C_10
REMARK    5  A    between atoms: N_22  and  C_23
REMARK                            x       y       z     vdW  Elec       q    Type
REMARK                         _______ _______ _______ _____ _____    ______ ____
ROOT
ATOM      1  C   UNL     1       1.122  11.488  20.407  0.00  0.00    +0.000 C 
ATOM      2  S   UNL     1       1.653  11.064  18.722  0.00  0.00    +0.000 S 
ATOM      3  C   UNL     1       1.532   9.362  19.106  0.00  0.00    +0.000 C 
ATOM      4  N   UNL     1       1.841   8.515  18.074  0.00  0.00    +0.000 N 
ATOM      5  N   UNL     1       1.187   9.059  20.311  0.00  0.00    +0.000 NA
ATOM      6  C   UNL     1       0.902  10.151  21.087  0.00  0.00    +0.000 C 
ATOM      7  O   UNL     1       0.473  10.083  22.236  0.00  0.00    +0.000 OA
ATOM      8  H   UNL     1       2.017   8.974  17.183  0.00  0.00    +0.000 HD
ENDROOT
BRANCH   4   9
ATOM      9  N   UNL     1       2.246   7.228  18.272  0.00  0.00    +0.000 NA
ATOM     10  C   UNL     1       3.494   6.976  18.051  0.00  0.00    +0.000 C 
BRANCH  10  11
ATOM     11  C   UNL     1       3.981   5.638  18.313  0.00  0.00    +0.000 A 
ATOM     12  C   UNL     1       5.304   5.298  18.516  0.00  0.00    +0.000 A 
ATOM     13  N   UNL     1       5.379   3.950  18.725  0.00  0.00    +0.000 N 
ATOM     14  C   UNL     1       4.125   3.390  18.660  0.00  0.00    +0.000 A 
ATOM     15  C   UNL     1       3.727   2.057  18.814  0.00  0.00    +0.000 A 
ATOM     16  C   UNL     1       2.367   1.768  18.690  0.00  0.00    +0.000 A 
ATOM     17  C   UNL     1       1.440   2.774  18.425  0.00  0.00    +0.000 A 
ATOM     18  C   UNL     1       1.854   4.103  18.278  0.00  0.00    +0.000 A 
ATOM     19  C   UNL     1       3.222   4.426  18.398  0.00  0.00    +0.000 A 
ATOM     20  H   UNL     1       6.230   3.434  18.903  0.00  0.00    +0.000 HD
ENDBRANCH  10  11
ENDBRANCH   4   9
BRANCH   1  21
ATOM     21  C   UNL     1      -0.119  12.367  20.495  0.00  0.00    +0.000 C 
BRANCH  21  23
ATOM     22  O   UNL     1      -0.764  13.314  18.414  0.00  0.00    +0.000 OA
ATOM     23  C   UNL     1      -0.926  12.394  19.211  0.00  0.00    +0.000 C 
ATOM     24  N   UNL     1      -1.795  11.331  19.058  0.00  0.00    +0.000 N 
ATOM     25  H   UNL     1      -1.977  10.740  19.862  0.00  0.00    +0.000 HD
BRANCH  24  26
ATOM     26  C   UNL     1      -2.564  11.058  17.901  0.00  0.00    +0.000 A 
ATOM     27  C   UNL     1      -3.848  11.571  17.699  0.00  0.00    +0.000 A 
ATOM     28  C   UNL     1      -4.559  11.284  16.530  0.00  0.00    +0.000 A 
ATOM     29  C   UNL     1      -3.992  10.473  15.551  0.00  0.00    +0.000 A 
ATOM     30  C   UNL     1      -2.713   9.958  15.738  0.00  0.00    +0.000 A 
ATOM     31  C   UNL     1      -1.995  10.259  16.902  0.00  0.00    +0.000 A 
ENDBRANCH  24  26
ENDBRANCH  21  23
ENDBRANCH   1  21
TORSDOF 5
ENDMDL
MODEL 6
REMARK VINA RESULT:      -8.3      1.315      1.423
REMARK  Name = 
REMARK  5 active torsions:
REMARK  status: ('A' for Active; 'I' for Inactive)
REMARK    1  A    between atoms: C_2  and  C_3
REMARK    2  A    between atoms: C_3  and  C_4
REMARK    3  A    between atoms: N_7  and  N_8
REMARK    4  A    between atoms: C_9  and  C_10
REMARK    5  A    between atoms: N_22  and  C_23
REMARK                            x       y       z     vdW  Elec       q    Type
REMARK                         _______ _______ _______ _____ _____    ______ ____
ROOT
ATOM      1  C   UNL     1       6.705   4.620  16.746  0.00  0.00    +0.000 C 
ATOM      2  S   UNL     1       6.806   5.337  18.412  0.00  0.00    +0.000 S 
ATOM      3  C   UNL     1       7.572   6.767  17.756  0.00  0.00    +0.000 C 
ATOM      4  N   UNL     1       7.879   7.732  18.680  0.00  0.00    +0.000 N 
ATOM      5  N   UNL     1       7.794   6.779  16.486  0.00  0.00    +0.000 NA
ATOM      6  C   UNL     1       7.320   5.668  15.840  0.00  0.00    +0.000 C 
ATOM      7  O   UNL     1       7.350   5.519  14.621  0.00  0.00    +0.000 OA
ATOM      8  H   UNL     1       7.544   7.542  19.622  0.00  0.00    +0.000 HD
ENDROOT
BRANCH   4   9
ATOM      9  N   UNL     1       8.846   8.670  18.473  0.00  0.00    +0.000 NA
ATOM     10  C   UNL     1       8.488   9.905  18.601  0.00  0.00    +0.000 C 
BRANCH  10  11
ATOM     11  C   UNL     1       9.500  10.931  18.455  0.00  0.00    +0.000 A 
ATOM     12  C   UNL     1      10.352  11.060  17.376  0.00  0.00    +0.000 A 
ATOM     13  N   UNL     1      11.169  12.134  17.594  0.00  0.00    +0.000 N 
ATOM     14  C   UNL     1      10.873  12.716  18.804  0.00  0.00    +0.000 A 
ATOM     15  C   UNL     1      11.446  13.830  19.429  0.00  0.00    +0.000 A 
ATOM     16  C   UNL     1      10.944  14.202  20.677  0.00  0.00    +0.000 A 
ATOM     17  C   UNL     1       9.907  13.489  21.276  0.00  0.00    +0.000 A 
ATOM     18  C   UNL     1       9.342  12.380  20.636  0.00  0.00    +0.000 A 
ATOM     19  C   UNL     1       9.828  11.980  19.373  0.00  0.00    +0.000 A 
ATOM     20  H   UNL     1      11.887  12.458  16.961  0.00  0.00    +0.000 HD
ENDBRANCH  10  11
ENDBRANCH   4   9
BRANCH   1  21
ATOM     21  C   UNL     1       5.303   4.242  16.287  0.00  0.00    +0.000 C 
BRANCH  21  23
ATOM     22  O   UNL     1       3.619   5.478  17.420  0.00  0.00    +0.000 OA
ATOM     23  C   UNL     1       4.249   4.425  17.364  0.00  0.00    +0.000 C 
ATOM     24  N   UNL     1       4.095   3.340  18.204  0.00  0.00    +0.000 N 
ATOM     25  H   UNL     1       4.797   2.608  18.178  0.00  0.00    +0.000 HD
BRANCH  24  26
ATOM     26  C   UNL     1       3.100   3.210  19.204  0.00  0.00    +0.000 A 
ATOM     27  C   UNL     1       1.755   3.522  18.987  0.00  0.00    +0.000 A 
ATOM     28  C   UNL     1       0.809   3.360  20.004  0.00  0.00    +0.000 A 
ATOM     29  C   UNL     1       1.202   2.890  21.253  0.00  0.00    +0.000 A 
ATOM     30  C   UNL     1       2.539   2.573  21.482  0.00  0.00    +0.000 A 
ATOM     31  C   UNL     1       3.483   2.720  20.458  0.00  0.00    +0.000 A 
ENDBRANCH  24  26
ENDBRANCH  21  23
ENDBRANCH   1  21
TORSDOF 5
ENDMDL
MODEL 7
REMARK VINA RESULT:      -8.3      5.179      8.627
REMARK  Name = 
REMARK  5 active torsions:
REMARK  status: ('A' for Active; 'I' for Inactive)
REMARK    1  A    between atoms: C_2  and  C_3
REMARK    2  A    between atoms: C_3  and  C_4
REMARK    3  A    between atoms: N_7  and  N_8
REMARK    4  A    between atoms: C_9  and  C_10
REMARK    5  A    between atoms: N_22  and  C_23
REMARK                            x       y       z     vdW  Elec       q    Type
REMARK                         _______ _______ _______ _____ _____    ______ ____
ROOT
ATOM      1  C   UNL     1       2.475   3.046  19.645  0.00  0.00    +0.000 C 
ATOM      2  S   UNL     1       2.093   4.549  18.699  0.00  0.00    +0.000 S 
ATOM      3  C   UNL     1       1.956   5.458  20.188  0.00  0.00    +0.000 C 
ATOM      4  N   UNL     1       1.664   6.788  20.027  0.00  0.00    +0.000 N 
ATOM      5  N   UNL     1       2.121   4.804  21.287  0.00  0.00    +0.000 NA
ATOM      6  C   UNL     1       2.448   3.488  21.095  0.00  0.00    +0.000 C 
ATOM      7  O   UNL     1       2.731   2.712  22.004  0.00  0.00    +0.000 OA
ATOM      8  H   UNL     1       1.651   7.107  19.061  0.00  0.00    +0.000 HD
ENDROOT
BRANCH   4   9
ATOM      9  N   UNL     1       1.083   7.538  21.005  0.00  0.00    +0.000 NA
ATOM     10  C   UNL     1       0.737   8.740  20.680  0.00  0.00    +0.000 C 
BRANCH  10  11
ATOM     11  C   UNL     1       0.055   9.549  21.669  0.00  0.00    +0.000 A 
ATOM     12  C   UNL     1      -0.113   9.208  22.997  0.00  0.00    +0.000 A 
ATOM     13  N   UNL     1      -0.807  10.209  23.617  0.00  0.00    +0.000 N 
ATOM     14  C   UNL     1      -1.106  11.206  22.719  0.00  0.00    +0.000 A 
ATOM     15  C   UNL     1      -1.794  12.409  22.909  0.00  0.00    +0.000 A 
ATOM     16  C   UNL     1      -1.959  13.243  21.802  0.00  0.00    +0.000 A 
ATOM     17  C   UNL     1      -1.452  12.888  20.553  0.00  0.00    +0.000 A 
ATOM     18  C   UNL     1      -0.762  11.683  20.381  0.00  0.00    +0.000 A 
ATOM     19  C   UNL     1      -0.580  10.819  21.482  0.00  0.00    +0.000 A 
ATOM     20  H   UNL     1      -1.066  10.219  24.595  0.00  0.00    +0.000 HD
ENDBRANCH  10  11
ENDBRANCH   4   9
BRANCH   1  21
ATOM     21  C   UNL     1       3.797   2.376  19.293  0.00  0.00    +0.000 C 
BRANCH  21  23
ATOM     22  O   UNL     1       4.921   3.084  17.322  0.00  0.00    +0.000 OA
ATOM     23  C   UNL     1       4.740   3.281  18.521  0.00  0.00    +0.000 C 
ATOM     24  N   UNL     1       5.320   4.281  19.276  0.00  0.00    +0.000 N 
ATOM     25  H   UNL     1       5.242   4.228  20.286  0.00  0.00    +0.000 HD
BRANCH  24  26
ATOM     26  C   UNL     1       6.133   5.325  18.771  0.00  0.00    +0.000 A 
ATOM     27  C   UNL     1       7.405   5.613  19.274  0.00  0.00    +0.000 A 
ATOM     28  C   UNL     1       8.174   6.645  18.728  0.00  0.00    +0.000 A 
ATOM     29  C   UNL     1       7.674   7.405  17.676  0.00  0.00    +0.000 A 
ATOM     30  C   UNL     1       6.410   7.128  17.163  0.00  0.00    +0.000 A 
ATOM     31  C   UNL     1       5.646   6.083  17.700  0.00  0.00    +0.000 A 
ENDBRANCH  24  26
ENDBRANCH  21  23
ENDBRANCH   1  21
TORSDOF 5
ENDMDL
MODEL 8
REMARK VINA RESULT:      -8.2      6.558      9.867
REMARK  Name = 
REMARK  5 active torsions:
REMARK  status: ('A' for Active; 'I' for Inactive)
REMARK    1  A    between atoms: C_2  and  C_3
REMARK    2  A    between atoms: C_3  and  C_4
REMARK    3  A    between atoms: N_7  and  N_8
REMARK    4  A    between atoms: C_9  and  C_10
REMARK    5  A    between atoms: N_22  and  C_23
REMARK                            x       y       z     vdW  Elec       q    Type
REMARK                         _______ _______ _______ _____ _____    ______ ____
ROOT
ATOM      1  C   UNL     1       1.015  11.627  20.399  0.00  0.00    +0.000 C 
ATOM      2  S   UNL     1       1.751  11.253  18.781  0.00  0.00    +0.000 S 
ATOM      3  C   UNL     1       1.469   9.546  19.042  0.00  0.00    +0.000 C 
ATOM      4  N   UNL     1       1.867   8.732  18.013  0.00  0.00    +0.000 N 
ATOM      5  N   UNL     1       0.938   9.208  20.167  0.00  0.00    +0.000 NA
ATOM      6  C   UNL     1       0.617  10.277  20.961  0.00  0.00    +0.000 C 
ATOM      7  O   UNL     1       0.026  10.181  22.033  0.00  0.00    +0.000 OA
ATOM      8  H   UNL     1       2.195   9.223  17.185  0.00  0.00    +0.000 HD
ENDROOT
BRANCH   4   9
ATOM      9  N   UNL     1       2.157   7.412  18.188  0.00  0.00    +0.000 NA
ATOM     10  C   UNL     1       3.383   7.059  17.982  0.00  0.00    +0.000 C 
BRANCH  10  11
ATOM     11  C   UNL     1       3.750   5.679  18.221  0.00  0.00    +0.000 A 
ATOM     12  C   UNL     1       4.602   4.933  17.431  0.00  0.00    +0.000 A 
ATOM     13  N   UNL     1       4.701   3.678  17.962  0.00  0.00    +0.000 N 
ATOM     14  C   UNL     1       3.923   3.579  19.092  0.00  0.00    +0.000 A 
ATOM     15  C   UNL     1       3.723   2.494  19.952  0.00  0.00    +0.000 A 
ATOM     16  C   UNL     1       2.862   2.677  21.036  0.00  0.00    +0.000 A 
ATOM     17  C   UNL     1       2.228   3.898  21.252  0.00  0.00    +0.000 A 
ATOM     18  C   UNL     1       2.442   4.976  20.384  0.00  0.00    +0.000 A 
ATOM     19  C   UNL     1       3.307   4.821  19.280  0.00  0.00    +0.000 A 
ATOM     20  H   UNL     1       5.264   2.928  17.584  0.00  0.00    +0.000 HD
ENDBRANCH  10  11
ENDBRANCH   4   9
BRANCH   1  21
ATOM     21  C   UNL     1      -0.167  12.587  20.369  0.00  0.00    +0.000 C 
BRANCH  21  23
ATOM     22  O   UNL     1      -0.770  13.395  18.216  0.00  0.00    +0.000 OA
ATOM     23  C   UNL     1      -0.951  12.531  19.070  0.00  0.00    +0.000 C 
ATOM     24  N   UNL     1      -1.822  11.463  18.973  0.00  0.00    +0.000 N 
ATOM     25  H   UNL     1      -2.022  10.928  19.811  0.00  0.00    +0.000 HD
BRANCH  24  26
ATOM     26  C   UNL     1      -2.570  11.116  17.822  0.00  0.00    +0.000 A 
ATOM     27  C   UNL     1      -3.829  11.653  17.540  0.00  0.00    +0.000 A 
ATOM     28  C   UNL     1      -4.520  11.288  16.380  0.00  0.00    +0.000 A 
ATOM     29  C   UNL     1      -3.959  10.376  15.492  0.00  0.00    +0.000 A 
ATOM     30  C   UNL     1      -2.704   9.835  15.760  0.00  0.00    +0.000 A 
ATOM     31  C   UNL     1      -2.006  10.213  16.914  0.00  0.00    +0.000 A 
ENDBRANCH  24  26
ENDBRANCH  21  23
ENDBRANCH   1  21
TORSDOF 5
ENDMDL
MODEL 9
REMARK VINA RESULT:      -8.1      6.994      9.983
REMARK  Name = 
REMARK  5 active torsions:
REMARK  status: ('A' for Active; 'I' for Inactive)
REMARK    1  A    between atoms: C_2  and  C_3
REMARK    2  A    between atoms: C_3  and  C_4
REMARK    3  A    between atoms: N_7  and  N_8
REMARK    4  A    between atoms: C_9  and  C_10
REMARK    5  A    between atoms: N_22  and  C_23
REMARK                            x       y       z     vdW  Elec       q    Type
REMARK                         _______ _______ _______ _____ _____    ______ ____
ROOT
ATOM      1  C   UNL     1       0.072  10.588  20.746  0.00  0.00    +0.000 C 
ATOM      2  S   UNL     1       0.437   9.080  21.690  0.00  0.00    +0.000 S 
ATOM      3  C   UNL     1       1.431   8.492  20.376  0.00  0.00    +0.000 C 
ATOM      4  N   UNL     1       2.019   7.273  20.598  0.00  0.00    +0.000 N 
ATOM      5  N   UNL     1       1.507   9.235  19.325  0.00  0.00    +0.000 NA
ATOM      6  C   UNL     1       0.831  10.420  19.446  0.00  0.00    +0.000 C 
ATOM      7  O   UNL     1       0.846  11.307  18.596  0.00  0.00    +0.000 OA
ATOM      8  H   UNL     1       1.880   6.898  21.533  0.00  0.00    +0.000 HD
ENDROOT
BRANCH   4   9
ATOM      9  N   UNL     1       2.429   6.458  19.586  0.00  0.00    +0.000 NA
ATOM     10  C   UNL     1       3.521   5.796  19.786  0.00  0.00    +0.000 C 
BRANCH  10  11
ATOM     11  C   UNL     1       3.957   4.868  18.764  0.00  0.00    +0.000 A 
ATOM     12  C   UNL     1       3.917   3.491  18.869  0.00  0.00    +0.000 A 
ATOM     13  N   UNL     1       4.415   2.952  17.717  0.00  0.00    +0.000 N 
ATOM     14  C   UNL     1       4.792   3.952  16.850  0.00  0.00    +0.000 A 
ATOM     15  C   UNL     1       5.344   3.867  15.568  0.00  0.00    +0.000 A 
ATOM     16  C   UNL     1       5.637   5.063  14.909  0.00  0.00    +0.000 A 
ATOM     17  C   UNL     1       5.383   6.295  15.508  0.00  0.00    +0.000 A 
ATOM     18  C   UNL     1       4.826   6.362  16.790  0.00  0.00    +0.000 A 
ATOM     19  C   UNL     1       4.519   5.171  17.482  0.00  0.00    +0.000 A 
ATOM     20  H   UNL     1       4.499   1.963  17.524  0.00  0.00    +0.000 HD
ENDBRANCH  10  11
ENDBRANCH   4   9
BRANCH   1  21
ATOM     21  C   UNL     1       0.440  11.894  21.440  0.00  0.00    +0.000 C 
BRANCH  21  23
ATOM     22  O   UNL     1      -0.444  13.349  23.098  0.00  0.00    +0.000 OA
ATOM     23  C   UNL     1      -0.686  12.460  22.286  0.00  0.00    +0.000 C 
ATOM     24  N   UNL     1      -1.924  11.899  22.042  0.00  0.00    +0.000 N 
ATOM     25  H   UNL     1      -1.966  11.049  21.489  0.00  0.00    +0.000 HD
BRANCH  24  26
ATOM     26  C   UNL     1      -3.149  12.334  22.604  0.00  0.00    +0.000 A 
ATOM     27  C   UNL     1      -3.484  12.139  23.947  0.00  0.00    +0.000 A 
ATOM     28  C   UNL     1      -4.701  12.604  24.456  0.00  0.00    +0.000 A 
ATOM     29  C   UNL     1      -5.598  13.264  23.623  0.00  0.00    +0.000 A 
ATOM     30  C   UNL     1      -5.276  13.467  22.284  0.00  0.00    +0.000 A 
ATOM     31  C   UNL     1      -4.050  13.016  21.778  0.00  0.00    +0.000 A 
ENDBRANCH  24  26
ENDBRANCH  21  23
ENDBRANCH   1  21
TORSDOF 5
ENDMDL
