MODEL 1
REMARK VINA RESULT:      -8.0      0.000      0.000
REMARK  Name = 
REMARK  9 active torsions:
REMARK  status: ('A' for Active; 'I' for Inactive)
REMARK    1  A    between atoms: O_1  and  C_2
REMARK    2  A    between atoms: C_2  and  C_3
REMARK    3  A    between atoms: C_5  and  C_6
REMARK    4  A    between atoms: C_11  and  C_12
REMARK    5  A    between atoms: C_12  and  C_13
REMARK    6  A    between atoms: C_16  and  C_17
REMARK    7  A    between atoms: C_23  and  O_24
REMARK    8  A    between atoms: C_25  and  O_26
REMARK    9  A    between atoms: C_27  and  O_28
REMARK                            x       y       z     vdW  Elec       q    Type
REMARK                         _______ _______ _______ _____ _____    ______ ____
ROOT
ATOM      1  C   UNL     1       2.644   6.310  19.558  0.00  0.00    +0.000 A 
ATOM      2  C   UNL     1       1.706   5.276  19.640  0.00  0.00    +0.000 A 
ATOM      3  C   UNL     1       2.110   3.945  19.515  0.00  0.00    +0.000 A 
ATOM      4  C   UNL     1       3.456   3.627  19.303  0.00  0.00    +0.000 A 
ATOM      5 CL   UNL     1       3.868   1.953  19.207  0.00  0.00    +0.000 Cl
ATOM      6  C   UNL     1       4.415   4.643  19.186  0.00  0.00    +0.000 A 
ATOM      7  C   UNL     1       3.985   5.980  19.309  0.00  0.00    +0.000 A 
ENDROOT
BRANCH   1  10
ATOM      8  C   UNL     1       0.884   9.111  21.196  0.00  0.00    +0.000 C 
ATOM      9  O   UNL     1       1.269   7.779  20.822  0.00  0.00    +0.000 OA
ATOM     10  C   UNL     1       2.220   7.754  19.755  0.00  0.00    +0.000 C 
ATOM     11  C   UNL     1       1.609   8.367  18.473  0.00  0.00    +0.000 C 
ATOM     12  C   UNL     1       1.075   9.778  18.782  0.00  0.00    +0.000 C 
ATOM     13  C   UNL     1       0.164   9.785  20.020  0.00  0.00    +0.000 C 
BRANCH  11  14
ATOM     14  O   UNL     1       2.569   8.414  17.408  0.00  0.00    +0.000 OA
ATOM     15  H   UNL     1       2.177   8.875  16.647  0.00  0.00    +0.000 HD
ENDBRANCH  11  14
BRANCH  12  16
ATOM     16  O   UNL     1       0.382  10.323  17.649  0.00  0.00    +0.000 OA
ATOM     17  H   UNL     1      -0.574  10.151  17.762  0.00  0.00    +0.000 HD
ENDBRANCH  12  16
BRANCH  13  18
ATOM     18  O   UNL     1      -0.226  11.116  20.374  0.00  0.00    +0.000 OA
ATOM     19  H   UNL     1       0.421  11.743  20.001  0.00  0.00    +0.000 HD
ENDBRANCH  13  18
BRANCH   8  20
ATOM     20  C   UNL     1      -0.025   9.029  22.427  0.00  0.00    +0.000 C 
BRANCH  20  21
ATOM     21  O   UNL     1       0.179  10.177  23.254  0.00  0.00    +0.000 OA
ATOM     22  H   UNL     1      -0.699  10.484  23.535  0.00  0.00    +0.000 HD
ENDBRANCH  20  21
ENDBRANCH   8  20
ENDBRANCH   1  10
BRANCH   6  23
ATOM     23  C   UNL     1       5.887   4.380  18.929  0.00  0.00    +0.000 C 
BRANCH  23  24
ATOM     24  C   UNL     1       6.250   4.527  17.483  0.00  0.00    +0.000 A 
ATOM     25  N   UNL     1       7.422   4.943  17.044  0.00  0.00    +0.000 NA
ATOM     26  N   UNL     1       7.529   4.853  15.675  0.00  0.00    +0.000 NA
ATOM     27  C   UNL     1       6.434   4.379  15.112  0.00  0.00    +0.000 A 
ATOM     28  S   UNL     1       5.156   4.087  16.234  0.00  0.00    +0.000 S 
BRANCH  27  29
ATOM     29  C   UNL     1       6.245   4.073  13.667  0.00  0.00    +0.000 C 
ATOM     30  F   UNL     1       7.121   4.742  12.867  0.00  0.00    +0.000 F 
ATOM     31  F   UNL     1       6.419   2.749  13.395  0.00  0.00    +0.000 F 
ATOM     32  F   UNL     1       4.998   4.395  13.226  0.00  0.00    +0.000 F 
ENDBRANCH  27  29
ENDBRANCH  23  24
ENDBRANCH   6  23
TORSDOF 9
ENDMDL
MODEL 2
REMARK VINA RESULT:      -7.7      2.476      2.832
REMARK  Name = 
REMARK  9 active torsions:
REMARK  status: ('A' for Active; 'I' for Inactive)
REMARK    1  A    between atoms: O_1  and  C_2
REMARK    2  A    between atoms: C_2  and  C_3
REMARK    3  A    between atoms: C_5  and  C_6
REMARK    4  A    between atoms: C_11  and  C_12
REMARK    5  A    between atoms: C_12  and  C_13
REMARK    6  A    between atoms: C_16  and  C_17
REMARK    7  A    between atoms: C_23  and  O_24
REMARK    8  A    between atoms: C_25  and  O_26
REMARK    9  A    between atoms: C_27  and  O_28
REMARK                            x       y       z     vdW  Elec       q    Type
REMARK                         _______ _______ _______ _____ _____    ______ ____
ROOT
ATOM      1  C   UNL     1       2.094   6.190  19.795  0.00  0.00    +0.000 A 
ATOM      2  C   UNL     1       1.327   5.247  20.487  0.00  0.00    +0.000 A 
ATOM      3  C   UNL     1       1.509   3.882  20.256  0.00  0.00    +0.000 A 
ATOM      4  C   UNL     1       2.458   3.438  19.328  0.00  0.00    +0.000 A 
ATOM      5 CL   UNL     1       2.644   1.731  19.143  0.00  0.00    +0.000 Cl
ATOM      6  C   UNL     1       3.220   4.359  18.597  0.00  0.00    +0.000 A 
ATOM      7  C   UNL     1       3.016   5.733  18.840  0.00  0.00    +0.000 A 
ENDROOT
BRANCH   1  10
ATOM      8  C   UNL     1       0.741   9.165  21.511  0.00  0.00    +0.000 C 
ATOM      9  O   UNL     1       0.897   7.814  21.050  0.00  0.00    +0.000 OA
ATOM     10  C   UNL     1       1.944   7.672  20.087  0.00  0.00    +0.000 C 
ATOM     11  C   UNL     1       1.623   8.492  18.815  0.00  0.00    +0.000 C 
ATOM     12  C   UNL     1       1.346   9.956  19.205  0.00  0.00    +0.000 C 
ATOM     13  C   UNL     1       0.314  10.059  20.339  0.00  0.00    +0.000 C 
BRANCH  11  14
ATOM     14  O   UNL     1       2.693   8.418  17.863  0.00  0.00    +0.000 OA
ATOM     15  H   UNL     1       3.449   7.963  18.271  0.00  0.00    +0.000 HD
ENDBRANCH  11  14
BRANCH  12  16
ATOM     16  O   UNL     1       0.914  10.715  18.065  0.00  0.00    +0.000 OA
ATOM     17  H   UNL     1      -0.056  10.826  18.120  0.00  0.00    +0.000 HD
ENDBRANCH  12  16
BRANCH  13  18
ATOM     18  O   UNL     1       0.156  11.413  20.779  0.00  0.00    +0.000 OA
ATOM     19  H   UNL     1       1.030  11.842  20.794  0.00  0.00    +0.000 HD
ENDBRANCH  13  18
BRANCH   8  20
ATOM     20  C   UNL     1      -0.306   9.182  22.630  0.00  0.00    +0.000 C 
BRANCH  20  21
ATOM     21  O   UNL     1      -0.096  10.321  23.468  0.00  0.00    +0.000 OA
ATOM     22  H   UNL     1       0.710  10.762  23.151  0.00  0.00    +0.000 HD
ENDBRANCH  20  21
ENDBRANCH   8  20
ENDBRANCH   1  10
BRANCH   6  23
ATOM     23  C   UNL     1       4.246   3.956  17.555  0.00  0.00    +0.000 C 
BRANCH  23  24
ATOM     24  C   UNL     1       5.207   5.062  17.240  0.00  0.00    +0.000 A 
ATOM     25  N   UNL     1       5.171   5.798  16.146  0.00  0.00    +0.000 NA
ATOM     26  N   UNL     1       6.083   6.827  16.178  0.00  0.00    +0.000 NA
ATOM     27  C   UNL     1       6.792   6.840  17.290  0.00  0.00    +0.000 A 
ATOM     28  S   UNL     1       6.437   5.523  18.347  0.00  0.00    +0.000 S 
BRANCH  27  29
ATOM     29  C   UNL     1       7.798   7.865  17.685  0.00  0.00    +0.000 C 
ATOM     30  F   UNL     1       8.698   8.128  16.698  0.00  0.00    +0.000 F 
ATOM     31  F   UNL     1       7.221   9.059  17.999  0.00  0.00    +0.000 F 
ATOM     32  F   UNL     1       8.522   7.490  18.776  0.00  0.00    +0.000 F 
ENDBRANCH  27  29
ENDBRANCH  23  24
ENDBRANCH   6  23
TORSDOF 9
ENDMDL
MODEL 3
REMARK VINA RESULT:      -7.4      6.584      8.716
REMARK  Name = 
REMARK  9 active torsions:
REMARK  status: ('A' for Active; 'I' for Inactive)
REMARK    1  A    between atoms: O_1  and  C_2
REMARK    2  A    between atoms: C_2  and  C_3
REMARK    3  A    between atoms: C_5  and  C_6
REMARK    4  A    between atoms: C_11  and  C_12
REMARK    5  A    between atoms: C_12  and  C_13
REMARK    6  A    between atoms: C_16  and  C_17
REMARK    7  A    between atoms: C_23  and  O_24
REMARK    8  A    between atoms: C_25  and  O_26
REMARK    9  A    between atoms: C_27  and  O_28
REMARK                            x       y       z     vdW  Elec       q    Type
REMARK                         _______ _______ _______ _____ _____    ______ ____
ROOT
ATOM      1  C   UNL     1       2.122   6.934  19.193  0.00  0.00    +0.000 A 
ATOM      2  C   UNL     1       1.947   6.934  20.581  0.00  0.00    +0.000 A 
ATOM      3  C   UNL     1       1.417   8.054  21.226  0.00  0.00    +0.000 A 
ATOM      4  C   UNL     1       1.057   9.191  20.496  0.00  0.00    +0.000 A 
ATOM      5 CL   UNL     1       0.369  10.509  21.373  0.00  0.00    +0.000 Cl
ATOM      6  C   UNL     1       1.249   9.233  19.108  0.00  0.00    +0.000 A 
ATOM      7  C   UNL     1       1.791   8.095  18.476  0.00  0.00    +0.000 A 
ENDROOT
BRANCH   1  10
ATOM      8  C   UNL     1       2.190   3.363  18.263  0.00  0.00    +0.000 C 
ATOM      9  O   UNL     1       1.885   4.582  18.958  0.00  0.00    +0.000 OA
ATOM     10  C   UNL     1       2.639   5.698  18.480  0.00  0.00    +0.000 C 
ATOM     11  C   UNL     1       4.150   5.471  18.718  0.00  0.00    +0.000 C 
ATOM     12  C   UNL     1       4.574   4.132  18.086  0.00  0.00    +0.000 C 
ATOM     13  C   UNL     1       3.654   2.980  18.519  0.00  0.00    +0.000 C 
BRANCH  11  14
ATOM     14  O   UNL     1       4.930   6.551  18.183  0.00  0.00    +0.000 OA
ATOM     15  H   UNL     1       5.787   6.580  18.641  0.00  0.00    +0.000 HD
ENDBRANCH  11  14
BRANCH  12  16
ATOM     16  O   UNL     1       5.941   3.827  18.403  0.00  0.00    +0.000 OA
ATOM     17  H   UNL     1       6.498   4.091  17.644  0.00  0.00    +0.000 HD
ENDBRANCH  12  16
BRANCH  13  18
ATOM     18  O   UNL     1       3.978   1.767  17.831  0.00  0.00    +0.000 OA
ATOM     19  H   UNL     1       4.923   1.783  17.594  0.00  0.00    +0.000 HD
ENDBRANCH  13  18
BRANCH   8  20
ATOM     20  C   UNL     1       1.238   2.268  18.757  0.00  0.00    +0.000 C 
BRANCH  20  21
ATOM     21  O   UNL     1       0.382   2.797  19.773  0.00  0.00    +0.000 OA
ATOM     22  H   UNL     1      -0.040   3.591  19.403  0.00  0.00    +0.000 HD
ENDBRANCH  20  21
ENDBRANCH   8  20
ENDBRANCH   1  10
BRANCH   6  23
ATOM     23  C   UNL     1       0.910  10.439  18.252  0.00  0.00    +0.000 C 
BRANCH  23  24
ATOM     24  C   UNL     1      -0.550  10.517  17.925  0.00  0.00    +0.000 A 
ATOM     25  N   UNL     1      -1.224   9.585  17.279  0.00  0.00    +0.000 NA
ATOM     26  N   UNL     1      -2.573   9.851  17.235  0.00  0.00    +0.000 NA
ATOM     27  C   UNL     1      -2.885  10.981  17.841  0.00  0.00    +0.000 A 
ATOM     28  S   UNL     1      -1.515  11.842  18.439  0.00  0.00    +0.000 S 
BRANCH  27  29
ATOM     29  C   UNL     1      -4.257  11.519  18.054  0.00  0.00    +0.000 C 
ATOM     30  F   UNL     1      -5.173  10.544  18.310  0.00  0.00    +0.000 F 
ATOM     31  F   UNL     1      -4.315  12.378  19.110  0.00  0.00    +0.000 F 
ATOM     32  F   UNL     1      -4.720  12.207  16.974  0.00  0.00    +0.000 F 
ENDBRANCH  27  29
ENDBRANCH  23  24
ENDBRANCH   6  23
TORSDOF 9
ENDMDL
MODEL 4
REMARK VINA RESULT:      -7.4      3.219      4.205
REMARK  Name = 
REMARK  9 active torsions:
REMARK  status: ('A' for Active; 'I' for Inactive)
REMARK    1  A    between atoms: O_1  and  C_2
REMARK    2  A    between atoms: C_2  and  C_3
REMARK    3  A    between atoms: C_5  and  C_6
REMARK    4  A    between atoms: C_11  and  C_12
REMARK    5  A    between atoms: C_12  and  C_13
REMARK    6  A    between atoms: C_16  and  C_17
REMARK    7  A    between atoms: C_23  and  O_24
REMARK    8  A    between atoms: C_25  and  O_26
REMARK    9  A    between atoms: C_27  and  O_28
REMARK                            x       y       z     vdW  Elec       q    Type
REMARK                         _______ _______ _______ _____ _____    ______ ____
ROOT
ATOM      1  C   UNL     1       1.146   9.256  19.282  0.00  0.00    +0.000 A 
ATOM      2  C   UNL     1       0.924   8.928  20.624  0.00  0.00    +0.000 A 
ATOM      3  C   UNL     1       1.276   7.667  21.110  0.00  0.00    +0.000 A 
ATOM      4  C   UNL     1       1.850   6.713  20.262  0.00  0.00    +0.000 A 
ATOM      5 CL   UNL     1       2.293   5.198  20.963  0.00  0.00    +0.000 Cl
ATOM      6  C   UNL     1       2.055   7.001  18.906  0.00  0.00    +0.000 A 
ATOM      7  C   UNL     1       1.688   8.278  18.434  0.00  0.00    +0.000 A 
ENDROOT
BRANCH   1  10
ATOM      8  C   UNL     1       1.067  12.946  19.358  0.00  0.00    +0.000 C 
ATOM      9  O   UNL     1       1.202  11.579  19.778  0.00  0.00    +0.000 OA
ATOM     10  C   UNL     1       0.823  10.645  18.764  0.00  0.00    +0.000 C 
ATOM     11  C   UNL     1      -0.674  10.809  18.412  0.00  0.00    +0.000 C 
ATOM     12  C   UNL     1      -0.955  12.274  18.029  0.00  0.00    +0.000 C 
ATOM     13  C   UNL     1      -0.410  13.253  19.081  0.00  0.00    +0.000 C 
BRANCH  11  14
ATOM     14  O   UNL     1      -1.059   9.927  17.347  0.00  0.00    +0.000 OA
ATOM     15  H   UNL     1      -0.433  10.028  16.611  0.00  0.00    +0.000 HD
ENDBRANCH  11  14
BRANCH  12  16
ATOM     16  O   UNL     1      -2.360  12.489  17.826  0.00  0.00    +0.000 OA
ATOM     17  H   UNL     1      -2.697  11.783  17.241  0.00  0.00    +0.000 HD
ENDBRANCH  12  16
BRANCH  13  18
ATOM     18  O   UNL     1      -0.564  14.612  18.658  0.00  0.00    +0.000 OA
ATOM     19  H   UNL     1       0.314  15.030  18.616  0.00  0.00    +0.000 HD
ENDBRANCH  13  18
BRANCH   8  20
ATOM     20  C   UNL     1       1.624  13.853  20.461  0.00  0.00    +0.000 C 
BRANCH  20  21
ATOM     21  O   UNL     1       1.071  13.470  21.722  0.00  0.00    +0.000 OA
ATOM     22  H   UNL     1       0.865  14.291  22.202  0.00  0.00    +0.000 HD
ENDBRANCH  20  21
ENDBRANCH   8  20
ENDBRANCH   1  10
BRANCH   6  23
ATOM     23  C   UNL     1       2.645   6.011  17.920  0.00  0.00    +0.000 C 
BRANCH  23  24
ATOM     24  C   UNL     1       4.142   6.067  17.878  0.00  0.00    +0.000 A 
ATOM     25  N   UNL     1       4.840   6.813  17.043  0.00  0.00    +0.000 NA
ATOM     26  N   UNL     1       6.189   6.776  17.313  0.00  0.00    +0.000 NA
ATOM     27  C   UNL     1       6.478   5.999  18.339  0.00  0.00    +0.000 A 
ATOM     28  S   UNL     1       5.104   5.187  18.995  0.00  0.00    +0.000 S 
BRANCH  27  29
ATOM     29  C   UNL     1       7.823   5.806  18.949  0.00  0.00    +0.000 C 
ATOM     30  F   UNL     1       8.633   6.889  18.794  0.00  0.00    +0.000 F 
ATOM     31  F   UNL     1       7.751   5.575  20.290  0.00  0.00    +0.000 F 
ATOM     32  F   UNL     1       8.490   4.747  18.412  0.00  0.00    +0.000 F 
ENDBRANCH  27  29
ENDBRANCH  23  24
ENDBRANCH   6  23
TORSDOF 9
ENDMDL
MODEL 5
REMARK VINA RESULT:      -7.4      6.230      8.477
REMARK  Name = 
REMARK  9 active torsions:
REMARK  status: ('A' for Active; 'I' for Inactive)
REMARK    1  A    between atoms: O_1  and  C_2
REMARK    2  A    between atoms: C_2  and  C_3
REMARK    3  A    between atoms: C_5  and  C_6
REMARK    4  A    between atoms: C_11  and  C_12
REMARK    5  A    between atoms: C_12  and  C_13
REMARK    6  A    between atoms: C_16  and  C_17
REMARK    7  A    between atoms: C_23  and  O_24
REMARK    8  A    between atoms: C_25  and  O_26
REMARK    9  A    between atoms: C_27  and  O_28
REMARK                            x       y       z     vdW  Elec       q    Type
REMARK                         _______ _______ _______ _____ _____    ______ ____
ROOT
ATOM      1  C   UNL     1       2.179   6.885  19.203  0.00  0.00    +0.000 A 
ATOM      2  C   UNL     1       1.887   6.850  20.571  0.00  0.00    +0.000 A 
ATOM      3  C   UNL     1       1.368   7.978  21.211  0.00  0.00    +0.000 A 
ATOM      4  C   UNL     1       1.137   9.158  20.496  0.00  0.00    +0.000 A 
ATOM      5 CL   UNL     1       0.452  10.486  21.362  0.00  0.00    +0.000 Cl
ATOM      6  C   UNL     1       1.449   9.234  19.132  0.00  0.00    +0.000 A 
ATOM      7  C   UNL     1       1.978   8.087  18.506  0.00  0.00    +0.000 A 
ENDROOT
BRANCH   1  10
ATOM      8  C   UNL     1       2.211   3.313  18.271  0.00  0.00    +0.000 C 
ATOM      9  O   UNL     1       1.918   4.535  18.966  0.00  0.00    +0.000 OA
ATOM     10  C   UNL     1       2.684   5.644  18.490  0.00  0.00    +0.000 C 
ATOM     11  C   UNL     1       4.192   5.401  18.730  0.00  0.00    +0.000 C 
ATOM     12  C   UNL     1       4.603   4.058  18.098  0.00  0.00    +0.000 C 
ATOM     13  C   UNL     1       3.671   2.916  18.528  0.00  0.00    +0.000 C 
BRANCH  11  14
ATOM     14  O   UNL     1       4.984   6.473  18.196  0.00  0.00    +0.000 OA
ATOM     15  H   UNL     1       4.476   6.929  17.505  0.00  0.00    +0.000 HD
ENDBRANCH  11  14
BRANCH  12  16
ATOM     16  O   UNL     1       5.966   3.739  18.416  0.00  0.00    +0.000 OA
ATOM     17  H   UNL     1       6.012   2.791  18.651  0.00  0.00    +0.000 HD
ENDBRANCH  12  16
BRANCH  13  18
ATOM     18  O   UNL     1       3.983   1.700  17.840  0.00  0.00    +0.000 OA
ATOM     19  H   UNL     1       3.175   1.366  17.410  0.00  0.00    +0.000 HD
ENDBRANCH  13  18
BRANCH   8  20
ATOM     20  C   UNL     1       1.247   2.228  18.763  0.00  0.00    +0.000 C 
BRANCH  20  21
ATOM     21  O   UNL     1       0.375   2.774  19.755  0.00  0.00    +0.000 OA
ATOM     22  H   UNL     1      -0.210   3.405  19.303  0.00  0.00    +0.000 HD
ENDBRANCH  20  21
ENDBRANCH   8  20
ENDBRANCH   1  10
BRANCH   6  23
ATOM     23  C   UNL     1       1.254  10.485  18.296  0.00  0.00    +0.000 C 
BRANCH  23  24
ATOM     24  C   UNL     1      -0.185  10.888  18.196  0.00  0.00    +0.000 A 
ATOM     25  N   UNL     1      -0.651  12.085  18.497  0.00  0.00    +0.000 NA
ATOM     26  N   UNL     1      -1.983  12.221  18.184  0.00  0.00    +0.000 NA
ATOM     27  C   UNL     1      -2.495  11.123  17.663  0.00  0.00    +0.000 A 
ATOM     28  S   UNL     1      -1.379   9.807  17.599  0.00  0.00    +0.000 S 
BRANCH  27  29
ATOM     29  C   UNL     1      -3.877  10.956  17.134  0.00  0.00    +0.000 C 
ATOM     30  F   UNL     1      -4.528  12.142  16.974  0.00  0.00    +0.000 F 
ATOM     31  F   UNL     1      -3.892  10.349  15.914  0.00  0.00    +0.000 F 
ATOM     32  F   UNL     1      -4.659  10.196  17.951  0.00  0.00    +0.000 F 
ENDBRANCH  27  29
ENDBRANCH  23  24
ENDBRANCH   6  23
TORSDOF 9
ENDMDL
MODEL 6
REMARK VINA RESULT:      -7.3      6.541      8.826
REMARK  Name = 
REMARK  9 active torsions:
REMARK  status: ('A' for Active; 'I' for Inactive)
REMARK    1  A    between atoms: O_1  and  C_2
REMARK    2  A    between atoms: C_2  and  C_3
REMARK    3  A    between atoms: C_5  and  C_6
REMARK    4  A    between atoms: C_11  and  C_12
REMARK    5  A    between atoms: C_12  and  C_13
REMARK    6  A    between atoms: C_16  and  C_17
REMARK    7  A    between atoms: C_23  and  O_24
REMARK    8  A    between atoms: C_25  and  O_26
REMARK    9  A    between atoms: C_27  and  O_28
REMARK                            x       y       z     vdW  Elec       q    Type
REMARK                         _______ _______ _______ _____ _____    ______ ____
ROOT
ATOM      1  C   UNL     1       2.201   7.314  19.643  0.00  0.00    +0.000 A 
ATOM      2  C   UNL     1       1.730   7.234  20.958  0.00  0.00    +0.000 A 
ATOM      3  C   UNL     1       0.910   8.239  21.477  0.00  0.00    +0.000 A 
ATOM      4  C   UNL     1       0.551   9.340  20.692  0.00  0.00    +0.000 A 
ATOM      5 CL   UNL     1      -0.503  10.508  21.403  0.00  0.00    +0.000 Cl
ATOM      6  C   UNL     1       1.032   9.464  19.382  0.00  0.00    +0.000 A 
ATOM      7  C   UNL     1       1.864   8.442  18.879  0.00  0.00    +0.000 A 
ENDROOT
BRANCH   1  10
ATOM      8  C   UNL     1       4.877   5.846  17.567  0.00  0.00    +0.000 C 
ATOM      9  O   UNL     1       3.933   6.785  18.105  0.00  0.00    +0.000 OA
ATOM     10  C   UNL     1       3.042   6.196  19.055  0.00  0.00    +0.000 C 
ATOM     11  C   UNL     1       2.178   5.104  18.381  0.00  0.00    +0.000 C 
ATOM     12  C   UNL     1       3.095   4.080  17.687  0.00  0.00    +0.000 C 
ATOM     13  C   UNL     1       4.129   4.763  16.778  0.00  0.00    +0.000 C 
BRANCH  11  14
ATOM     14  O   UNL     1       1.325   4.453  19.333  0.00  0.00    +0.000 OA
ATOM     15  H   UNL     1       1.875   4.004  19.996  0.00  0.00    +0.000 HD
ENDBRANCH  11  14
BRANCH  12  16
ATOM     16  O   UNL     1       2.324   3.127  16.939  0.00  0.00    +0.000 OA
ATOM     17  H   UNL     1       1.735   3.618  16.333  0.00  0.00    +0.000 HD
ENDBRANCH  12  16
BRANCH  13  18
ATOM     18  O   UNL     1       5.054   3.815  16.236  0.00  0.00    +0.000 OA
ATOM     19  H   UNL     1       5.948   4.203  16.251  0.00  0.00    +0.000 HD
ENDBRANCH  13  18
BRANCH   8  20
ATOM     20  C   UNL     1       5.862   6.603  16.670  0.00  0.00    +0.000 C 
BRANCH  20  21
ATOM     21  O   UNL     1       5.381   6.607  15.324  0.00  0.00    +0.000 OA
ATOM     22  H   UNL     1       5.992   6.058  14.803  0.00  0.00    +0.000 HD
ENDBRANCH  20  21
ENDBRANCH   8  20
ENDBRANCH   1  10
BRANCH   6  23
ATOM     23  C   UNL     1       0.711  10.640  18.479  0.00  0.00    +0.000 C 
BRANCH  23  24
ATOM     24  C   UNL     1      -0.720  10.646  18.034  0.00  0.00    +0.000 A 
ATOM     25  N   UNL     1      -1.311   9.651  17.401  0.00  0.00    +0.000 NA
ATOM     26  N   UNL     1      -2.659   9.867  17.233  0.00  0.00    +0.000 NA
ATOM     27  C   UNL     1      -3.053  11.022  17.734  0.00  0.00    +0.000 A 
ATOM     28  S   UNL     1      -1.761  11.967  18.379  0.00  0.00    +0.000 S 
BRANCH  27  29
ATOM     29  C   UNL     1      -4.453  11.525  17.802  0.00  0.00    +0.000 C 
ATOM     30  F   UNL     1      -5.363  10.529  17.988  0.00  0.00    +0.000 F 
ATOM     31  F   UNL     1      -4.637  12.401  18.829  0.00  0.00    +0.000 F 
ATOM     32  F   UNL     1      -4.826  12.179  16.667  0.00  0.00    +0.000 F 
ENDBRANCH  27  29
ENDBRANCH  23  24
ENDBRANCH   6  23
TORSDOF 9
ENDMDL
MODEL 7
REMARK VINA RESULT:      -7.2      6.547      8.800
REMARK  Name = 
REMARK  9 active torsions:
REMARK  status: ('A' for Active; 'I' for Inactive)
REMARK    1  A    between atoms: O_1  and  C_2
REMARK    2  A    between atoms: C_2  and  C_3
REMARK    3  A    between atoms: C_5  and  C_6
REMARK    4  A    between atoms: C_11  and  C_12
REMARK    5  A    between atoms: C_12  and  C_13
REMARK    6  A    between atoms: C_16  and  C_17
REMARK    7  A    between atoms: C_23  and  O_24
REMARK    8  A    between atoms: C_25  and  O_26
REMARK    9  A    between atoms: C_27  and  O_28
REMARK                            x       y       z     vdW  Elec       q    Type
REMARK                         _______ _______ _______ _____ _____    ______ ____
ROOT
ATOM      1  C   UNL     1       2.472   7.056  18.708  0.00  0.00    +0.000 A 
ATOM      2  C   UNL     1       2.175   6.640  20.010  0.00  0.00    +0.000 A 
ATOM      3  C   UNL     1       1.464   7.476  20.874  0.00  0.00    +0.000 A 
ATOM      4  C   UNL     1       1.041   8.741  20.451  0.00  0.00    +0.000 A 
ATOM      5 CL   UNL     1       0.129   9.685  21.573  0.00  0.00    +0.000 Cl
ATOM      6  C   UNL     1       1.350   9.198  19.163  0.00  0.00    +0.000 A 
ATOM      7  C   UNL     1       2.074   8.342  18.309  0.00  0.00    +0.000 A 
ENDROOT
BRANCH   1  10
ATOM      8  C   UNL     1       3.419   3.806  17.236  0.00  0.00    +0.000 C 
ATOM      9  O   UNL     1       2.901   4.787  18.148  0.00  0.00    +0.000 OA
ATOM     10  C   UNL     1       3.190   6.128  17.746  0.00  0.00    +0.000 C 
ATOM     11  C   UNL     1       4.718   6.369  17.727  0.00  0.00    +0.000 C 
ATOM     12  C   UNL     1       5.395   5.306  16.841  0.00  0.00    +0.000 C 
ATOM     13  C   UNL     1       4.952   3.883  17.218  0.00  0.00    +0.000 C 
BRANCH  11  14
ATOM     14  O   UNL     1       5.032   7.689  17.259  0.00  0.00    +0.000 OA
ATOM     15  H   UNL     1       5.991   7.831  17.333  0.00  0.00    +0.000 HD
ENDBRANCH  11  14
BRANCH  12  16
ATOM     16  O   UNL     1       6.824   5.419  16.908  0.00  0.00    +0.000 OA
ATOM     17  H   UNL     1       7.059   6.367  16.868  0.00  0.00    +0.000 HD
ENDBRANCH  12  16
BRANCH  13  18
ATOM     18  O   UNL     1       5.487   2.913  16.311  0.00  0.00    +0.000 OA
ATOM     19  H   UNL     1       4.750   2.476  15.847  0.00  0.00    +0.000 HD
ENDBRANCH  13  18
BRANCH   8  20
ATOM     20  C   UNL     1       2.940   2.421  17.686  0.00  0.00    +0.000 C 
BRANCH  20  21
ATOM     21  O   UNL     1       3.993   1.752  18.386  0.00  0.00    +0.000 OA
ATOM     22  H   UNL     1       3.748   0.813  18.435  0.00  0.00    +0.000 HD
ENDBRANCH  20  21
ENDBRANCH   8  20
ENDBRANCH   1  10
BRANCH   6  23
ATOM     23  C   UNL     1       0.952  10.567  18.643  0.00  0.00    +0.000 C 
BRANCH  23  24
ATOM     24  C   UNL     1      -0.483  10.621  18.213  0.00  0.00    +0.000 A 
ATOM     25  N   UNL     1      -1.065   9.731  17.433  0.00  0.00    +0.000 NA
ATOM     26  N   UNL     1      -2.418   9.949  17.311  0.00  0.00    +0.000 NA
ATOM     27  C   UNL     1      -2.824  11.002  17.993  0.00  0.00    +0.000 A 
ATOM     28  S   UNL     1      -1.541  11.852  18.773  0.00  0.00    +0.000 S 
BRANCH  27  29
ATOM     29  C   UNL     1      -4.231  11.465  18.150  0.00  0.00    +0.000 C 
ATOM     30  F   UNL     1      -5.098  10.444  18.394  0.00  0.00    +0.000 F 
ATOM     31  F   UNL     1      -4.373  12.339  19.185  0.00  0.00    +0.000 F 
ATOM     32  F   UNL     1      -4.694  12.105  17.040  0.00  0.00    +0.000 F 
ENDBRANCH  27  29
ENDBRANCH  23  24
ENDBRANCH   6  23
TORSDOF 9
ENDMDL
MODEL 8
REMARK VINA RESULT:      -7.1      3.461      4.787
REMARK  Name = 
REMARK  9 active torsions:
REMARK  status: ('A' for Active; 'I' for Inactive)
REMARK    1  A    between atoms: O_1  and  C_2
REMARK    2  A    between atoms: C_2  and  C_3
REMARK    3  A    between atoms: C_5  and  C_6
REMARK    4  A    between atoms: C_11  and  C_12
REMARK    5  A    between atoms: C_12  and  C_13
REMARK    6  A    between atoms: C_16  and  C_17
REMARK    7  A    between atoms: C_23  and  O_24
REMARK    8  A    between atoms: C_25  and  O_26
REMARK    9  A    between atoms: C_27  and  O_28
REMARK                            x       y       z     vdW  Elec       q    Type
REMARK                         _______ _______ _______ _____ _____    ______ ____
ROOT
ATOM      1  C   UNL     1       1.192   9.693  19.171  0.00  0.00    +0.000 A 
ATOM      2  C   UNL     1       0.960   9.400  20.519  0.00  0.00    +0.000 A 
ATOM      3  C   UNL     1       1.250   8.131  21.026  0.00  0.00    +0.000 A 
ATOM      4  C   UNL     1       1.771   7.135  20.194  0.00  0.00    +0.000 A 
ATOM      5 CL   UNL     1       2.140   5.612  20.919  0.00  0.00    +0.000 Cl
ATOM      6  C   UNL     1       1.985   7.388  18.832  0.00  0.00    +0.000 A 
ATOM      7  C   UNL     1       1.681   8.673  18.338  0.00  0.00    +0.000 A 
ENDROOT
BRANCH   1  10
ATOM      8  C   UNL     1       2.042  13.183  18.319  0.00  0.00    +0.000 C 
ATOM      9  O   UNL     1       2.103  11.871  18.900  0.00  0.00    +0.000 OA
ATOM     10  C   UNL     1       0.938  11.087  18.629  0.00  0.00    +0.000 C 
ATOM     11  C   UNL     1      -0.313  11.744  19.258  0.00  0.00    +0.000 C 
ATOM     12  C   UNL     1      -0.429  13.200  18.770  0.00  0.00    +0.000 C 
ATOM     13  C   UNL     1       0.888  13.971  18.955  0.00  0.00    +0.000 C 
BRANCH  11  14
ATOM     14  O   UNL     1      -1.504  11.009  18.939  0.00  0.00    +0.000 OA
ATOM     15  H   UNL     1      -2.270  11.466  19.324  0.00  0.00    +0.000 HD
ENDBRANCH  11  14
BRANCH  12  16
ATOM     16  O   UNL     1      -1.503  13.879  19.438  0.00  0.00    +0.000 OA
ATOM     17  H   UNL     1      -1.999  14.397  18.774  0.00  0.00    +0.000 HD
ENDBRANCH  12  16
BRANCH  13  18
ATOM     18  O   UNL     1       0.809  15.282  18.386  0.00  0.00    +0.000 OA
ATOM     19  H   UNL     1       1.629  15.459  17.890  0.00  0.00    +0.000 HD
ENDBRANCH  13  18
BRANCH   8  20
ATOM     20  C   UNL     1       3.385  13.883  18.553  0.00  0.00    +0.000 C 
BRANCH  20  21
ATOM     21  O   UNL     1       3.695  14.716  17.433  0.00  0.00    +0.000 OA
ATOM     22  H   UNL     1       4.628  14.974  17.521  0.00  0.00    +0.000 HD
ENDBRANCH  20  21
ENDBRANCH   8  20
ENDBRANCH   1  10
BRANCH   6  23
ATOM     23  C   UNL     1       2.521   6.352  17.861  0.00  0.00    +0.000 C 
BRANCH  23  24
ATOM     24  C   UNL     1       4.018   6.330  17.816  0.00  0.00    +0.000 A 
ATOM     25  N   UNL     1       4.754   7.073  17.011  0.00  0.00    +0.000 NA
ATOM     26  N   UNL     1       6.099   6.953  17.274  0.00  0.00    +0.000 NA
ATOM     27  C   UNL     1       6.348   6.117  18.264  0.00  0.00    +0.000 A 
ATOM     28  S   UNL     1       4.934   5.351  18.890  0.00  0.00    +0.000 S 
BRANCH  27  29
ATOM     29  C   UNL     1       7.681   5.825  18.860  0.00  0.00    +0.000 C 
ATOM     30  F   UNL     1       8.548   6.870  18.751  0.00  0.00    +0.000 F 
ATOM     31  F   UNL     1       7.599   5.538  20.189  0.00  0.00    +0.000 F 
ATOM     32  F   UNL     1       8.291   4.758  18.273  0.00  0.00    +0.000 F 
ENDBRANCH  27  29
ENDBRANCH  23  24
ENDBRANCH   6  23
TORSDOF 9
ENDMDL
MODEL 9
REMARK VINA RESULT:      -6.9      6.617      8.759
REMARK  Name = 
REMARK  9 active torsions:
REMARK  status: ('A' for Active; 'I' for Inactive)
REMARK    1  A    between atoms: O_1  and  C_2
REMARK    2  A    between atoms: C_2  and  C_3
REMARK    3  A    between atoms: C_5  and  C_6
REMARK    4  A    between atoms: C_11  and  C_12
REMARK    5  A    between atoms: C_12  and  C_13
REMARK    6  A    between atoms: C_16  and  C_17
REMARK    7  A    between atoms: C_23  and  O_24
REMARK    8  A    between atoms: C_25  and  O_26
REMARK    9  A    between atoms: C_27  and  O_28
REMARK                            x       y       z     vdW  Elec       q    Type
REMARK                         _______ _______ _______ _____ _____    ______ ____
ROOT
ATOM      1  C   UNL     1       1.764   7.419  20.006  0.00  0.00    +0.000 A 
ATOM      2  C   UNL     1       1.654   7.667  21.378  0.00  0.00    +0.000 A 
ATOM      3  C   UNL     1       1.203   8.907  21.838  0.00  0.00    +0.000 A 
ATOM      4  C   UNL     1       0.861   9.918  20.934  0.00  0.00    +0.000 A 
ATOM      5 CL   UNL     1       0.271  11.401  21.594  0.00  0.00    +0.000 Cl
ATOM      6  C   UNL     1       0.990   9.711  19.554  0.00  0.00    +0.000 A 
ATOM      7  C   UNL     1       1.453   8.455  19.111  0.00  0.00    +0.000 A 
ENDROOT
BRANCH   1  10
ATOM      8  C   UNL     1       2.111   3.745  20.107  0.00  0.00    +0.000 C 
ATOM      9  O   UNL     1       1.872   5.101  20.516  0.00  0.00    +0.000 OA
ATOM     10  C   UNL     1       2.194   6.054  19.500  0.00  0.00    +0.000 C 
ATOM     11  C   UNL     1       3.703   5.999  19.166  0.00  0.00    +0.000 C 
ATOM     12  C   UNL     1       4.095   4.556  18.796  0.00  0.00    +0.000 C 
ATOM     13  C   UNL     1       3.611   3.546  19.848  0.00  0.00    +0.000 C 
BRANCH  11  14
ATOM     14  O   UNL     1       4.034   6.900  18.100  0.00  0.00    +0.000 OA
ATOM     15  H   UNL     1       4.296   7.757  18.479  0.00  0.00    +0.000 HD
ENDBRANCH  11  14
BRANCH  12  16
ATOM     16  O   UNL     1       5.514   4.443  18.610  0.00  0.00    +0.000 OA
ATOM     17  H   UNL     1       5.834   3.688  19.142  0.00  0.00    +0.000 HD
ENDBRANCH  12  16
BRANCH  13  18
ATOM     18  O   UNL     1       3.868   2.199  19.435  0.00  0.00    +0.000 OA
ATOM     19  H   UNL     1       3.825   2.155  18.463  0.00  0.00    +0.000 HD
ENDBRANCH  13  18
BRANCH   8  20
ATOM     20  C   UNL     1       1.610   2.806  21.209  0.00  0.00    +0.000 C 
BRANCH  20  21
ATOM     21  O   UNL     1       2.687   2.482  22.092  0.00  0.00    +0.000 OA
ATOM     22  H   UNL     1       2.322   1.911  22.788  0.00  0.00    +0.000 HD
ENDBRANCH  20  21
ENDBRANCH   8  20
ENDBRANCH   1  10
BRANCH   6  23
ATOM     23  C   UNL     1       0.666  10.767  18.514  0.00  0.00    +0.000 C 
BRANCH  23  24
ATOM     24  C   UNL     1      -0.780  10.759  18.122  0.00  0.00    +0.000 A 
ATOM     25  N   UNL     1      -1.355   9.815  17.401  0.00  0.00    +0.000 NA
ATOM     26  N   UNL     1      -2.716   9.988  17.305  0.00  0.00    +0.000 NA
ATOM     27  C   UNL     1      -3.136  11.061  17.947  0.00  0.00    +0.000 A 
ATOM     28  S   UNL     1      -1.860  11.985  18.651  0.00  0.00    +0.000 S 
BRANCH  27  29
ATOM     29  C   UNL     1      -4.552  11.490  18.119  0.00  0.00    +0.000 C 
ATOM     30  F   UNL     1      -4.727  12.314  19.190  0.00  0.00    +0.000 F 
ATOM     31  F   UNL     1      -5.018  12.173  17.036  0.00  0.00    +0.000 F 
ATOM     32  F   UNL     1      -5.396  10.437  18.303  0.00  0.00    +0.000 F 
ENDBRANCH  27  29
ENDBRANCH  23  24
ENDBRANCH   6  23
TORSDOF 9
ENDMDL
