MODEL 1
REMARK VINA RESULT:      -6.4      0.000      0.000
REMARK  Name = 
REMARK  8 active torsions:
REMARK  status: ('A' for Active; 'I' for Inactive)
REMARK    1  A    between atoms: C_1  and  C_2
REMARK    2  A    between atoms: C_2  and  C_3
REMARK    3  A    between atoms: C_4  and  C_5
REMARK    4  A    between atoms: C_7  and  N_8
REMARK    5  A    between atoms: C_9  and  C_10
REMARK    6  A    between atoms: C_12  and  C_13
REMARK    7  A    between atoms: C_13  and  O_15
REMARK    8  A    between atoms: O_15  and  C_16
REMARK                            x       y       z     vdW  Elec       q    Type
REMARK                         _______ _______ _______ _____ _____    ______ ____
ROOT
ATOM      1  C   UNL     1       3.779   6.392  18.024  0.00  0.00    +0.000 A 
ATOM      2  C   UNL     1       2.796   7.295  18.415  0.00  0.00    +0.000 A 
ATOM      3  C   UNL     1       2.335   8.555  17.751  0.00  0.00    +0.000 C 
ATOM      4  S   UNL     1       2.021   6.807  19.852  0.00  0.00    +0.000 S 
ATOM      5  C   UNL     1       3.009   5.435  20.011  0.00  0.00    +0.000 A 
ATOM      6  C   UNL     1       3.815   5.217  18.904  0.00  0.00    +0.000 A 
ENDROOT
BRANCH   5   7
ATOM      7  N   UNL     1       2.689   4.712  21.137  0.00  0.00    +0.000 N 
ATOM      8  C   UNL     1       1.806   3.671  21.223  0.00  0.00    +0.000 C 
ATOM      9  C   UNL     1       0.912   3.276  20.078  0.00  0.00    +0.000 C 
ATOM     10  O   UNL     1       1.788   3.014  22.271  0.00  0.00    +0.000 OA
ATOM     11  H   UNL     1       3.435   4.585  21.810  0.00  0.00    +0.000 HD
ENDBRANCH   5   7
BRANCH   1  13
ATOM     12  C   UNL     1       6.090   6.953  17.150  0.00  0.00    +0.000 C 
ATOM     13  C   UNL     1       4.656   6.582  16.806  0.00  0.00    +0.000 C 
ENDBRANCH   1  13
BRANCH   6  14
ATOM     14  C   UNL     1       4.525   3.964  18.582  0.00  0.00    +0.000 C 
ATOM     15  O   UNL     1       5.629   3.685  19.023  0.00  0.00    +0.000 OA
BRANCH  14  16
ATOM     16  O   UNL     1       3.860   3.192  17.679  0.00  0.00    +0.000 OA
ATOM     17  C   UNL     1       3.555   1.853  18.079  0.00  0.00    +0.000 C 
ENDBRANCH  14  16
ENDBRANCH   6  14
TORSDOF 4
ENDMDL
MODEL 2
REMARK VINA RESULT:      -6.1      2.378      4.429
REMARK  Name = 
REMARK  8 active torsions:
REMARK  status: ('A' for Active; 'I' for Inactive)
REMARK    1  A    between atoms: C_1  and  C_2
REMARK    2  A    between atoms: C_2  and  C_3
REMARK    3  A    between atoms: C_4  and  C_5
REMARK    4  A    between atoms: C_7  and  N_8
REMARK    5  A    between atoms: C_9  and  C_10
REMARK    6  A    between atoms: C_12  and  C_13
REMARK    7  A    between atoms: C_13  and  O_15
REMARK    8  A    between atoms: O_15  and  C_16
REMARK                            x       y       z     vdW  Elec       q    Type
REMARK                         _______ _______ _______ _____ _____    ______ ____
ROOT
ATOM      1  C   UNL     1       2.769   5.330  18.532  0.00  0.00    +0.000 A 
ATOM      2  C   UNL     1       2.951   6.682  18.258  0.00  0.00    +0.000 A 
ATOM      3  C   UNL     1       2.171   7.868  18.732  0.00  0.00    +0.000 C 
ATOM      4  S   UNL     1       4.306   6.951  17.260  0.00  0.00    +0.000 S 
ATOM      5  C   UNL     1       4.634   5.290  17.125  0.00  0.00    +0.000 A 
ATOM      6  C   UNL     1       3.850   4.513  17.964  0.00  0.00    +0.000 A 
ENDROOT
BRANCH   5   7
ATOM      7  N   UNL     1       5.736   5.057  16.333  0.00  0.00    +0.000 N 
ATOM      8  C   UNL     1       7.030   4.907  16.748  0.00  0.00    +0.000 C 
ATOM      9  C   UNL     1       7.453   5.154  18.171  0.00  0.00    +0.000 C 
ATOM     10  O   UNL     1       7.860   4.511  15.921  0.00  0.00    +0.000 OA
ATOM     11  H   UNL     1       5.575   4.500  15.502  0.00  0.00    +0.000 HD
ENDBRANCH   5   7
BRANCH   1  13
ATOM     12  C   UNL     1       1.909   4.809  20.857  0.00  0.00    +0.000 C 
ATOM     13  C   UNL     1       1.627   4.789  19.363  0.00  0.00    +0.000 C 
ENDBRANCH   1  13
BRANCH   6  14
ATOM     14  C   UNL     1       4.104   3.107  18.332  0.00  0.00    +0.000 C 
ATOM     15  O   UNL     1       3.593   2.159  17.756  0.00  0.00    +0.000 OA
BRANCH  14  16
ATOM     16  O   UNL     1       4.900   2.979  19.430  0.00  0.00    +0.000 OA
ATOM     17  C   UNL     1       4.445   2.090  20.453  0.00  0.00    +0.000 C 
ENDBRANCH  14  16
ENDBRANCH   6  14
TORSDOF 4
ENDMDL
MODEL 3
REMARK VINA RESULT:      -6.1      2.037      4.343
REMARK  Name = 
REMARK  8 active torsions:
REMARK  status: ('A' for Active; 'I' for Inactive)
REMARK    1  A    between atoms: C_1  and  C_2
REMARK    2  A    between atoms: C_2  and  C_3
REMARK    3  A    between atoms: C_4  and  C_5
REMARK    4  A    between atoms: C_7  and  N_8
REMARK    5  A    between atoms: C_9  and  C_10
REMARK    6  A    between atoms: C_12  and  C_13
REMARK    7  A    between atoms: C_13  and  O_15
REMARK    8  A    between atoms: O_15  and  C_16
REMARK                            x       y       z     vdW  Elec       q    Type
REMARK                         _______ _______ _______ _____ _____    ______ ____
ROOT
ATOM      1  C   UNL     1       2.737   5.593  19.640  0.00  0.00    +0.000 A 
ATOM      2  C   UNL     1       2.497   6.946  19.430  0.00  0.00    +0.000 A 
ATOM      3  C   UNL     1       1.702   7.915  20.248  0.00  0.00    +0.000 C 
ATOM      4  S   UNL     1       3.288   7.523  18.035  0.00  0.00    +0.000 S 
ATOM      5  C   UNL     1       3.907   5.988  17.657  0.00  0.00    +0.000 A 
ATOM      6  C   UNL     1       3.685   5.053  18.656  0.00  0.00    +0.000 A 
ENDROOT
BRANCH   5   7
ATOM      7  N   UNL     1       4.660   6.018  16.505  0.00  0.00    +0.000 N 
ATOM      8  C   UNL     1       6.021   6.115  16.413  0.00  0.00    +0.000 C 
ATOM      9  C   UNL     1       6.891   6.378  17.612  0.00  0.00    +0.000 C 
ATOM     10  O   UNL     1       6.540   5.933  15.306  0.00  0.00    +0.000 OA
ATOM     11  H   UNL     1       4.301   5.478  15.726  0.00  0.00    +0.000 HD
ENDBRANCH   5   7
BRANCH   1  13
ATOM     12  C   UNL     1       0.979   3.913  20.352  0.00  0.00    +0.000 C 
ATOM     13  C   UNL     1       2.137   4.801  20.781  0.00  0.00    +0.000 C 
ENDBRANCH   1  13
BRANCH   6  14
ATOM     14  C   UNL     1       4.367   3.750  18.793  0.00  0.00    +0.000 C 
ATOM     15  O   UNL     1       5.349   3.578  19.496  0.00  0.00    +0.000 OA
BRANCH  14  16
ATOM     16  O   UNL     1       3.837   2.786  17.991  0.00  0.00    +0.000 OA
ATOM     17  C   UNL     1       3.546   1.528  18.606  0.00  0.00    +0.000 C 
ENDBRANCH  14  16
ENDBRANCH   6  14
TORSDOF 4
ENDMDL
MODEL 4
REMARK VINA RESULT:      -6.0      2.311      4.260
REMARK  Name = 
REMARK  8 active torsions:
REMARK  status: ('A' for Active; 'I' for Inactive)
REMARK    1  A    between atoms: C_1  and  C_2
REMARK    2  A    between atoms: C_2  and  C_3
REMARK    3  A    between atoms: C_4  and  C_5
REMARK    4  A    between atoms: C_7  and  N_8
REMARK    5  A    between atoms: C_9  and  C_10
REMARK    6  A    between atoms: C_12  and  C_13
REMARK    7  A    between atoms: C_13  and  O_15
REMARK    8  A    between atoms: O_15  and  C_16
REMARK                            x       y       z     vdW  Elec       q    Type
REMARK                         _______ _______ _______ _____ _____    ______ ____
ROOT
ATOM      1  C   UNL     1       2.850   5.333  18.560  0.00  0.00    +0.000 A 
ATOM      2  C   UNL     1       3.072   6.614  18.066  0.00  0.00    +0.000 A 
ATOM      3  C   UNL     1       2.254   7.857  18.227  0.00  0.00    +0.000 C 
ATOM      4  S   UNL     1       4.530   6.714  17.190  0.00  0.00    +0.000 S 
ATOM      5  C   UNL     1       4.858   5.060  17.397  0.00  0.00    +0.000 A 
ATOM      6  C   UNL     1       3.980   4.440  18.272  0.00  0.00    +0.000 A 
ENDROOT
BRANCH   5   7
ATOM      7  N   UNL     1       6.038   4.700  16.787  0.00  0.00    +0.000 N 
ATOM      8  C   UNL     1       7.294   4.758  17.325  0.00  0.00    +0.000 C 
ATOM      9  C   UNL     1       7.570   5.407  18.655  0.00  0.00    +0.000 C 
ATOM     10  O   UNL     1       8.214   4.213  16.705  0.00  0.00    +0.000 OA
ATOM     11  H   UNL     1       5.981   3.931  16.130  0.00  0.00    +0.000 HD
ENDBRANCH   5   7
BRANCH   1  13
ATOM     12  C   UNL     1       1.839   4.945  20.850  0.00  0.00    +0.000 C 
ATOM     13  C   UNL     1       1.619   4.939  19.345  0.00  0.00    +0.000 C 
ENDBRANCH   1  13
BRANCH   6  14
ATOM     14  C   UNL     1       4.180   3.127  18.917  0.00  0.00    +0.000 C 
ATOM     15  O   UNL     1       4.888   2.962  19.898  0.00  0.00    +0.000 OA
BRANCH  14  16
ATOM     16  O   UNL     1       3.563   2.109  18.256  0.00  0.00    +0.000 OA
ATOM     17  C   UNL     1       2.299   1.682  18.771  0.00  0.00    +0.000 C 
ENDBRANCH  14  16
ENDBRANCH   6  14
TORSDOF 4
ENDMDL
MODEL 5
REMARK VINA RESULT:      -6.0      2.362      4.383
REMARK  Name = 
REMARK  8 active torsions:
REMARK  status: ('A' for Active; 'I' for Inactive)
REMARK    1  A    between atoms: C_1  and  C_2
REMARK    2  A    between atoms: C_2  and  C_3
REMARK    3  A    between atoms: C_4  and  C_5
REMARK    4  A    between atoms: C_7  and  N_8
REMARK    5  A    between atoms: C_9  and  C_10
REMARK    6  A    between atoms: C_12  and  C_13
REMARK    7  A    between atoms: C_13  and  O_15
REMARK    8  A    between atoms: O_15  and  C_16
REMARK                            x       y       z     vdW  Elec       q    Type
REMARK                         _______ _______ _______ _____ _____    ______ ____
ROOT
ATOM      1  C   UNL     1       2.920   4.280  19.969  0.00  0.00    +0.000 A 
ATOM      2  C   UNL     1       3.064   5.647  19.755  0.00  0.00    +0.000 A 
ATOM      3  C   UNL     1       2.126   6.770  20.072  0.00  0.00    +0.000 C 
ATOM      4  S   UNL     1       4.573   6.025  19.059  0.00  0.00    +0.000 S 
ATOM      5  C   UNL     1       5.031   4.392  18.975  0.00  0.00    +0.000 A 
ATOM      6  C   UNL     1       4.145   3.547  19.625  0.00  0.00    +0.000 A 
ENDROOT
BRANCH   5   7
ATOM      7  N   UNL     1       6.285   4.248  18.424  0.00  0.00    +0.000 N 
ATOM      8  C   UNL     1       6.610   4.300  17.097  0.00  0.00    +0.000 C 
ATOM      9  C   UNL     1       5.568   4.359  16.014  0.00  0.00    +0.000 C 
ATOM     10  O   UNL     1       7.809   4.345  16.798  0.00  0.00    +0.000 OA
ATOM     11  H   UNL     1       7.057   4.596  18.981  0.00  0.00    +0.000 HD
ENDBRANCH   5   7
BRANCH   1  13
ATOM     12  C   UNL     1       0.755   3.060  19.479  0.00  0.00    +0.000 C 
ATOM     13  C   UNL     1       1.670   3.648  20.541  0.00  0.00    +0.000 C 
ENDBRANCH   1  13
BRANCH   6  14
ATOM     14  C   UNL     1       4.412   2.150  20.021  0.00  0.00    +0.000 C 
ATOM     15  O   UNL     1       5.155   1.843  20.940  0.00  0.00    +0.000 OA
BRANCH  14  16
ATOM     16  O   UNL     1       3.809   1.241  19.206  0.00  0.00    +0.000 OA
ATOM     17  C   UNL     1       3.672   1.605  17.830  0.00  0.00    +0.000 C 
ENDBRANCH  14  16
ENDBRANCH   6  14
TORSDOF 4
ENDMDL
MODEL 6
REMARK VINA RESULT:      -6.0      2.486      4.454
REMARK  Name = 
REMARK  8 active torsions:
REMARK  status: ('A' for Active; 'I' for Inactive)
REMARK    1  A    between atoms: C_1  and  C_2
REMARK    2  A    between atoms: C_2  and  C_3
REMARK    3  A    between atoms: C_4  and  C_5
REMARK    4  A    between atoms: C_7  and  N_8
REMARK    5  A    between atoms: C_9  and  C_10
REMARK    6  A    between atoms: C_12  and  C_13
REMARK    7  A    between atoms: C_13  and  O_15
REMARK    8  A    between atoms: O_15  and  C_16
REMARK                            x       y       z     vdW  Elec       q    Type
REMARK                         _______ _______ _______ _____ _____    ______ ____
ROOT
ATOM      1  C   UNL     1       2.974   5.673  18.276  0.00  0.00    +0.000 A 
ATOM      2  C   UNL     1       3.060   7.012  17.911  0.00  0.00    +0.000 A 
ATOM      3  C   UNL     1       2.096   8.133  18.146  0.00  0.00    +0.000 C 
ATOM      4  S   UNL     1       4.526   7.361  17.113  0.00  0.00    +0.000 S 
ATOM      5  C   UNL     1       5.039   5.743  17.185  0.00  0.00    +0.000 A 
ATOM      6  C   UNL     1       4.211   4.946  17.960  0.00  0.00    +0.000 A 
ENDROOT
BRANCH   5   7
ATOM      7  N   UNL     1       6.273   5.580  16.598  0.00  0.00    +0.000 N 
ATOM      8  C   UNL     1       6.534   5.054  15.363  0.00  0.00    +0.000 C 
ATOM      9  C   UNL     1       5.467   4.407  14.522  0.00  0.00    +0.000 C 
ATOM     10  O   UNL     1       7.683   5.163  14.919  0.00  0.00    +0.000 OA
ATOM     11  H   UNL     1       6.969   6.280  16.826  0.00  0.00    +0.000 HD
ENDBRANCH   5   7
BRANCH   1  13
ATOM     12  C   UNL     1       1.833   5.177  20.483  0.00  0.00    +0.000 C 
ATOM     13  C   UNL     1       1.773   5.068  18.967  0.00  0.00    +0.000 C 
ENDBRANCH   1  13
BRANCH   6  14
ATOM     14  C   UNL     1       4.543   3.610  18.492  0.00  0.00    +0.000 C 
ATOM     15  O   UNL     1       5.297   3.431  19.435  0.00  0.00    +0.000 OA
BRANCH  14  16
ATOM     16  O   UNL     1       3.988   2.597  17.771  0.00  0.00    +0.000 OA
ATOM     17  C   UNL     1       3.545   1.453  18.506  0.00  0.00    +0.000 C 
ENDBRANCH  14  16
ENDBRANCH   6  14
TORSDOF 4
ENDMDL
MODEL 7
REMARK VINA RESULT:      -6.0      2.905      5.486
REMARK  Name = 
REMARK  8 active torsions:
REMARK  status: ('A' for Active; 'I' for Inactive)
REMARK    1  A    between atoms: C_1  and  C_2
REMARK    2  A    between atoms: C_2  and  C_3
REMARK    3  A    between atoms: C_4  and  C_5
REMARK    4  A    between atoms: C_7  and  N_8
REMARK    5  A    between atoms: C_9  and  C_10
REMARK    6  A    between atoms: C_12  and  C_13
REMARK    7  A    between atoms: C_13  and  O_15
REMARK    8  A    between atoms: O_15  and  C_16
REMARK                            x       y       z     vdW  Elec       q    Type
REMARK                         _______ _______ _______ _____ _____    ______ ____
ROOT
ATOM      1  C   UNL     1       2.628   4.565  18.624  0.00  0.00    +0.000 A 
ATOM      2  C   UNL     1       3.222   3.540  17.896  0.00  0.00    +0.000 A 
ATOM      3  C   UNL     1       2.846   2.095  17.794  0.00  0.00    +0.000 C 
ATOM      4  S   UNL     1       4.547   4.098  16.980  0.00  0.00    +0.000 S 
ATOM      5  C   UNL     1       4.393   5.680  17.576  0.00  0.00    +0.000 A 
ATOM      6  C   UNL     1       3.244   5.865  18.331  0.00  0.00    +0.000 A 
ENDROOT
BRANCH   5   7
ATOM      7  N   UNL     1       5.353   6.513  17.048  0.00  0.00    +0.000 N 
ATOM      8  C   UNL     1       6.656   6.624  17.448  0.00  0.00    +0.000 C 
ATOM      9  C   UNL     1       7.181   5.938  18.680  0.00  0.00    +0.000 C 
ATOM     10  O   UNL     1       7.425   7.280  16.736  0.00  0.00    +0.000 OA
ATOM     11  H   UNL     1       5.283   6.697  16.054  0.00  0.00    +0.000 HD
ENDBRANCH   5   7
BRANCH   1  13
ATOM     12  C   UNL     1       1.867   4.044  20.984  0.00  0.00    +0.000 C 
ATOM     13  C   UNL     1       1.453   4.360  19.555  0.00  0.00    +0.000 C 
ENDBRANCH   1  13
BRANCH   6  14
ATOM     14  C   UNL     1       2.651   7.165  18.703  0.00  0.00    +0.000 C 
ATOM     15  O   UNL     1       2.278   7.432  19.834  0.00  0.00    +0.000 OA
BRANCH  14  16
ATOM     16  O   UNL     1       2.489   8.000  17.640  0.00  0.00    +0.000 OA
ATOM     17  C   UNL     1       1.963   9.300  17.920  0.00  0.00    +0.000 C 
ENDBRANCH  14  16
ENDBRANCH   6  14
TORSDOF 4
ENDMDL
MODEL 8
REMARK VINA RESULT:      -5.9      2.314      4.475
REMARK  Name = 
REMARK  8 active torsions:
REMARK  status: ('A' for Active; 'I' for Inactive)
REMARK    1  A    between atoms: C_1  and  C_2
REMARK    2  A    between atoms: C_2  and  C_3
REMARK    3  A    between atoms: C_4  and  C_5
REMARK    4  A    between atoms: C_7  and  N_8
REMARK    5  A    between atoms: C_9  and  C_10
REMARK    6  A    between atoms: C_12  and  C_13
REMARK    7  A    between atoms: C_13  and  O_15
REMARK    8  A    between atoms: O_15  and  C_16
REMARK                            x       y       z     vdW  Elec       q    Type
REMARK                         _______ _______ _______ _____ _____    ______ ____
ROOT
ATOM      1  C   UNL     1       2.743   4.584  18.138  0.00  0.00    +0.000 A 
ATOM      2  C   UNL     1       3.088   5.932  18.147  0.00  0.00    +0.000 A 
ATOM      3  C   UNL     1       2.211   7.144  18.145  0.00  0.00    +0.000 C 
ATOM      4  S   UNL     1       4.776   6.155  18.210  0.00  0.00    +0.000 S 
ATOM      5  C   UNL     1       5.077   4.484  18.164  0.00  0.00    +0.000 A 
ATOM      6  C   UNL     1       3.924   3.723  18.281  0.00  0.00    +0.000 A 
ENDROOT
BRANCH   5   7
ATOM      7  N   UNL     1       6.427   4.214  18.192  0.00  0.00    +0.000 N 
ATOM      8  C   UNL     1       7.309   4.322  17.153  0.00  0.00    +0.000 C 
ATOM      9  C   UNL     1       6.863   4.605  15.744  0.00  0.00    +0.000 C 
ATOM     10  O   UNL     1       8.515   4.227  17.407  0.00  0.00    +0.000 OA
ATOM     11  H   UNL     1       6.900   4.410  19.066  0.00  0.00    +0.000 HD
ENDBRANCH   5   7
BRANCH   1  13
ATOM     12  C   UNL     1       0.767   3.604  19.384  0.00  0.00    +0.000 C 
ATOM     13  C   UNL     1       1.318   4.084  18.051  0.00  0.00    +0.000 C 
ENDBRANCH   1  13
BRANCH   6  14
ATOM     14  C   UNL     1       3.864   2.284  18.607  0.00  0.00    +0.000 C 
ATOM     15  O   UNL     1       3.294   1.461  17.909  0.00  0.00    +0.000 OA
BRANCH  14  16
ATOM     16  O   UNL     1       4.437   1.986  19.805  0.00  0.00    +0.000 OA
ATOM     17  C   UNL     1       3.714   2.372  20.977  0.00  0.00    +0.000 C 
ENDBRANCH  14  16
ENDBRANCH   6  14
TORSDOF 4
ENDMDL
MODEL 9
REMARK VINA RESULT:      -5.9      2.217      4.338
REMARK  Name = 
REMARK  8 active torsions:
REMARK  status: ('A' for Active; 'I' for Inactive)
REMARK    1  A    between atoms: C_1  and  C_2
REMARK    2  A    between atoms: C_2  and  C_3
REMARK    3  A    between atoms: C_4  and  C_5
REMARK    4  A    between atoms: C_7  and  N_8
REMARK    5  A    between atoms: C_9  and  C_10
REMARK    6  A    between atoms: C_12  and  C_13
REMARK    7  A    between atoms: C_13  and  O_15
REMARK    8  A    between atoms: O_15  and  C_16
REMARK                            x       y       z     vdW  Elec       q    Type
REMARK                         _______ _______ _______ _____ _____    ______ ____
ROOT
ATOM      1  C   UNL     1       2.873   4.917  19.683  0.00  0.00    +0.000 A 
ATOM      2  C   UNL     1       2.843   6.243  19.266  0.00  0.00    +0.000 A 
ATOM      3  C   UNL     1       2.190   7.431  19.900  0.00  0.00    +0.000 C 
ATOM      4  S   UNL     1       3.737   6.479  17.834  0.00  0.00    +0.000 S 
ATOM      5  C   UNL     1       4.124   4.830  17.712  0.00  0.00    +0.000 A 
ATOM      6  C   UNL     1       3.745   4.100  18.829  0.00  0.00    +0.000 A 
ENDROOT
BRANCH   5   7
ATOM      7  N   UNL     1       4.892   4.574  16.599  0.00  0.00    +0.000 N 
ATOM      8  C   UNL     1       6.255   4.476  16.545  0.00  0.00    +0.000 C 
ATOM      9  C   UNL     1       7.133   4.814  17.719  0.00  0.00    +0.000 C 
ATOM     10  O   UNL     1       6.763   4.049  15.501  0.00  0.00    +0.000 OA
ATOM     11  H   UNL     1       4.476   3.966  15.903  0.00  0.00    +0.000 HD
ENDBRANCH   5   7
BRANCH   1  13
ATOM     12  C   UNL     1       0.885   3.617  20.563  0.00  0.00    +0.000 C 
ATOM     13  C   UNL     1       2.140   4.404  20.903  0.00  0.00    +0.000 C 
ENDBRANCH   1  13
BRANCH   6  14
ATOM     14  C   UNL     1       4.220   2.748  19.183  0.00  0.00    +0.000 C 
ATOM     15  O   UNL     1       5.038   2.533  20.063  0.00  0.00    +0.000 OA
BRANCH  14  16
ATOM     16  O   UNL     1       3.713   1.777  18.374  0.00  0.00    +0.000 OA
ATOM     17  C   UNL     1       2.468   2.062  17.732  0.00  0.00    +0.000 C 
ENDBRANCH  14  16
ENDBRANCH   6  14
TORSDOF 4
ENDMDL
