MODEL 1
REMARK VINA RESULT:      -6.9      0.000      0.000
REMARK  Name = 
REMARK  6 active torsions:
REMARK  status: ('A' for Active; 'I' for Inactive)
REMARK    1  A    between atoms: C_1  and  C_2
REMARK    2  A    between atoms: C_2  and  C_3
REMARK    3  A    between atoms: C_2  and  O_4
REMARK    4  A    between atoms: O_4  and  C_5
REMARK    5  A    between atoms: C_8  and  N_9
REMARK    6  A    between atoms: N_16  and  C_17
REMARK                            x       y       z     vdW  Elec       q    Type
REMARK                         _______ _______ _______ _____ _____    ______ ____
ROOT
ATOM      1  C   UNL     1       4.030   3.318  17.994  0.00  0.00    +0.000 A 
ATOM      2  C   UNL     1       5.104   3.868  17.310  0.00  0.00    +0.000 A 
ATOM      3  C   UNL     1       5.260   3.967  15.920  0.00  0.00    +0.000 A 
ATOM      4  C   UNL     1       6.524   4.536  15.580  0.00  0.00    +0.000 A 
ATOM      5  C   UNL     1       7.507   4.952  16.544  0.00  0.00    +0.000 A 
ATOM      6  C   UNL     1       7.306   4.851  17.933  0.00  0.00    +0.000 A 
ATOM      7  C   UNL     1       6.071   4.292  18.295  0.00  0.00    +0.000 A 
ATOM      8  N   UNL     1       5.593   4.053  19.516  0.00  0.00    +0.000 NA
ATOM      9  N   UNL     1       4.433   3.397  19.316  0.00  0.00    +0.000 N 
ATOM     10  C   UNL     1       3.859   2.779  20.489  0.00  0.00    +0.000 C 
ENDROOT
BRANCH   4  11
ATOM     11  N   UNL     1       6.866   4.710  14.152  0.00  0.00    +0.000 N 
ATOM     12  O   UNL     1       6.247   4.023  13.325  0.00  0.00    +0.000 OA
ATOM     13  O   UNL     1       7.745   5.534  13.866  0.00  0.00    +0.000 OA
ENDBRANCH   4  11
BRANCH   1  14
ATOM     14  O   UNL     1       2.933   2.691  17.526  0.00  0.00    +0.000 OA
BRANCH  14  16
ATOM     15  C   UNL     1       0.839   2.701  18.725  0.00  0.00    +0.000 C 
ATOM     16  C   UNL     1       1.650   3.337  17.596  0.00  0.00    +0.000 C 
ATOM     17  C   UNL     1       1.843   4.821  17.927  0.00  0.00    +0.000 C 
ENDBRANCH  14  16
ENDBRANCH   1  14
TORSDOF 3
ENDMDL
MODEL 2
REMARK VINA RESULT:      -6.7      2.529      6.001
REMARK  Name = 
REMARK  6 active torsions:
REMARK  status: ('A' for Active; 'I' for Inactive)
REMARK    1  A    between atoms: C_1  and  C_2
REMARK    2  A    between atoms: C_2  and  C_3
REMARK    3  A    between atoms: C_2  and  O_4
REMARK    4  A    between atoms: O_4  and  C_5
REMARK    5  A    between atoms: C_8  and  N_9
REMARK    6  A    between atoms: N_16  and  C_17
REMARK                            x       y       z     vdW  Elec       q    Type
REMARK                         _______ _______ _______ _____ _____    ______ ____
ROOT
ATOM      1  C   UNL     1       5.824   4.293  17.853  0.00  0.00    +0.000 A 
ATOM      2  C   UNL     1       4.573   3.895  18.302  0.00  0.00    +0.000 A 
ATOM      3  C   UNL     1       4.188   3.653  19.629  0.00  0.00    +0.000 A 
ATOM      4  C   UNL     1       2.837   3.199  19.701  0.00  0.00    +0.000 A 
ATOM      5  C   UNL     1       1.985   3.016  18.557  0.00  0.00    +0.000 A 
ATOM      6  C   UNL     1       2.404   3.287  17.241  0.00  0.00    +0.000 A 
ATOM      7  C   UNL     1       3.730   3.733  17.141  0.00  0.00    +0.000 A 
ATOM      8  N   UNL     1       4.418   4.056  16.047  0.00  0.00    +0.000 NA
ATOM      9  N   UNL     1       5.673   4.293  16.478  0.00  0.00    +0.000 N 
ATOM     10  C   UNL     1       6.676   4.390  15.444  0.00  0.00    +0.000 C 
ENDROOT
BRANCH   4  11
ATOM     11  N   UNL     1       2.262   2.884  21.027  0.00  0.00    +0.000 N 
ATOM     12  O   UNL     1       3.021   2.409  21.884  0.00  0.00    +0.000 OA
ATOM     13  O   UNL     1       1.058   3.119  21.203  0.00  0.00    +0.000 OA
ENDBRANCH   4  11
BRANCH   1  14
ATOM     14  O   UNL     1       6.974   4.469  18.534  0.00  0.00    +0.000 OA
BRANCH  14  16
ATOM     15  C   UNL     1       8.378   5.525  20.188  0.00  0.00    +0.000 C 
ATOM     16  C   UNL     1       7.234   5.721  19.193  0.00  0.00    +0.000 C 
ATOM     17  C   UNL     1       7.677   6.760  18.157  0.00  0.00    +0.000 C 
ENDBRANCH  14  16
ENDBRANCH   1  14
TORSDOF 3
ENDMDL
MODEL 3
REMARK VINA RESULT:      -6.7      2.458      3.669
REMARK  Name = 
REMARK  6 active torsions:
REMARK  status: ('A' for Active; 'I' for Inactive)
REMARK    1  A    between atoms: C_1  and  C_2
REMARK    2  A    between atoms: C_2  and  C_3
REMARK    3  A    between atoms: C_2  and  O_4
REMARK    4  A    between atoms: O_4  and  C_5
REMARK    5  A    between atoms: C_8  and  N_9
REMARK    6  A    between atoms: N_16  and  C_17
REMARK                            x       y       z     vdW  Elec       q    Type
REMARK                         _______ _______ _______ _____ _____    ______ ____
ROOT
ATOM      1  C   UNL     1       5.819   4.460  16.156  0.00  0.00    +0.000 A 
ATOM      2  C   UNL     1       6.022   4.263  14.798  0.00  0.00    +0.000 A 
ATOM      3  C   UNL     1       5.298   3.413  13.950  0.00  0.00    +0.000 A 
ATOM      4  C   UNL     1       5.832   3.424  12.626  0.00  0.00    +0.000 A 
ATOM      5  C   UNL     1       6.967   4.209  12.221  0.00  0.00    +0.000 A 
ATOM      6  C   UNL     1       7.658   5.065  13.100  0.00  0.00    +0.000 A 
ATOM      7  C   UNL     1       7.154   5.071  14.409  0.00  0.00    +0.000 A 
ATOM      8  N   UNL     1       7.591   5.756  15.464  0.00  0.00    +0.000 NA
ATOM      9  N   UNL     1       6.852   5.314  16.501  0.00  0.00    +0.000 N 
ATOM     10  C   UNL     1       7.324   5.701  17.810  0.00  0.00    +0.000 C 
ENDROOT
BRANCH   4  11
ATOM     11  N   UNL     1       5.197   2.576  11.595  0.00  0.00    +0.000 N 
ATOM     12  O   UNL     1       4.113   2.955  11.127  0.00  0.00    +0.000 OA
ATOM     13  O   UNL     1       5.788   1.541  11.255  0.00  0.00    +0.000 OA
ENDBRANCH   4  11
BRANCH   1  14
ATOM     14  O   UNL     1       4.961   3.856  17.001  0.00  0.00    +0.000 OA
BRANCH  14  16
ATOM     15  C   UNL     1       2.674   3.189  17.387  0.00  0.00    +0.000 C 
ATOM     16  C   UNL     1       3.624   4.364  17.153  0.00  0.00    +0.000 C 
ATOM     17  C   UNL     1       3.561   5.279  18.381  0.00  0.00    +0.000 C 
ENDBRANCH  14  16
ENDBRANCH   1  14
TORSDOF 3
ENDMDL
MODEL 4
REMARK VINA RESULT:      -6.7      2.674      6.002
REMARK  Name = 
REMARK  6 active torsions:
REMARK  status: ('A' for Active; 'I' for Inactive)
REMARK    1  A    between atoms: C_1  and  C_2
REMARK    2  A    between atoms: C_2  and  C_3
REMARK    3  A    between atoms: C_2  and  O_4
REMARK    4  A    between atoms: O_4  and  C_5
REMARK    5  A    between atoms: C_8  and  N_9
REMARK    6  A    between atoms: N_16  and  C_17
REMARK                            x       y       z     vdW  Elec       q    Type
REMARK                         _______ _______ _______ _____ _____    ______ ____
ROOT
ATOM      1  C   UNL     1       5.569   6.052  16.666  0.00  0.00    +0.000 A 
ATOM      2  C   UNL     1       4.529   5.498  17.399  0.00  0.00    +0.000 A 
ATOM      3  C   UNL     1       3.891   6.055  18.516  0.00  0.00    +0.000 A 
ATOM      4  C   UNL     1       2.906   5.168  19.045  0.00  0.00    +0.000 A 
ATOM      5  C   UNL     1       2.610   3.872  18.498  0.00  0.00    +0.000 A 
ATOM      6  C   UNL     1       3.262   3.354  17.362  0.00  0.00    +0.000 A 
ATOM      7  C   UNL     1       4.238   4.206  16.824  0.00  0.00    +0.000 A 
ATOM      8  N   UNL     1       5.029   4.002  15.771  0.00  0.00    +0.000 NA
ATOM      9  N   UNL     1       5.866   5.058  15.751  0.00  0.00    +0.000 N 
ATOM     10  C   UNL     1       7.003   4.932  14.869  0.00  0.00    +0.000 C 
ENDROOT
BRANCH   4  11
ATOM     11  N   UNL     1       2.136   5.588  20.236  0.00  0.00    +0.000 N 
ATOM     12  O   UNL     1       1.845   6.789  20.337  0.00  0.00    +0.000 OA
ATOM     13  O   UNL     1       1.822   4.715  21.057  0.00  0.00    +0.000 OA
ENDBRANCH   4  11
BRANCH   1  14
ATOM     14  O   UNL     1       6.265   7.188  16.872  0.00  0.00    +0.000 OA
BRANCH  14  16
ATOM     15  C   UNL     1       8.036   8.532  17.810  0.00  0.00    +0.000 C 
ATOM     16  C   UNL     1       7.604   7.126  17.394  0.00  0.00    +0.000 C 
ATOM     17  C   UNL     1       7.627   6.233  18.638  0.00  0.00    +0.000 C 
ENDBRANCH  14  16
ENDBRANCH   1  14
TORSDOF 3
ENDMDL
MODEL 5
REMARK VINA RESULT:      -6.7      2.414      2.784
REMARK  Name = 
REMARK  6 active torsions:
REMARK  status: ('A' for Active; 'I' for Inactive)
REMARK    1  A    between atoms: C_1  and  C_2
REMARK    2  A    between atoms: C_2  and  C_3
REMARK    3  A    between atoms: C_2  and  O_4
REMARK    4  A    between atoms: O_4  and  C_5
REMARK    5  A    between atoms: C_8  and  N_9
REMARK    6  A    between atoms: N_16  and  C_17
REMARK                            x       y       z     vdW  Elec       q    Type
REMARK                         _______ _______ _______ _____ _____    ______ ____
ROOT
ATOM      1  C   UNL     1       3.209   4.744  19.413  0.00  0.00    +0.000 A 
ATOM      2  C   UNL     1       3.991   5.082  18.318  0.00  0.00    +0.000 A 
ATOM      3  C   UNL     1       4.987   4.299  17.717  0.00  0.00    +0.000 A 
ATOM      4  C   UNL     1       5.624   5.002  16.650  0.00  0.00    +0.000 A 
ATOM      5  C   UNL     1       5.282   6.339  16.247  0.00  0.00    +0.000 A 
ATOM      6  C   UNL     1       4.262   7.087  16.866  0.00  0.00    +0.000 A 
ATOM      7  C   UNL     1       3.622   6.420  17.921  0.00  0.00    +0.000 A 
ATOM      8  N   UNL     1       2.637   6.858  18.705  0.00  0.00    +0.000 NA
ATOM      9  N   UNL     1       2.473   5.894  19.633  0.00  0.00    +0.000 N 
ATOM     10  C   UNL     1       1.654   6.258  20.766  0.00  0.00    +0.000 C 
ENDROOT
BRANCH   4  11
ATOM     11  N   UNL     1       6.710   4.331  15.903  0.00  0.00    +0.000 N 
ATOM     12  O   UNL     1       6.403   3.716  14.871  0.00  0.00    +0.000 OA
ATOM     13  O   UNL     1       7.861   4.427  16.350  0.00  0.00    +0.000 OA
ENDBRANCH   4  11
BRANCH   1  14
ATOM     14  O   UNL     1       3.250   3.653  20.204  0.00  0.00    +0.000 OA
BRANCH  14  16
ATOM     15  C   UNL     1       1.356   2.689  21.347  0.00  0.00    +0.000 C 
ATOM     16  C   UNL     1       2.229   2.646  20.093  0.00  0.00    +0.000 C 
ATOM     17  C   UNL     1       1.339   2.951  18.883  0.00  0.00    +0.000 C 
ENDBRANCH  14  16
ENDBRANCH   1  14
TORSDOF 3
ENDMDL
MODEL 6
REMARK VINA RESULT:      -6.7      1.196      1.660
REMARK  Name = 
REMARK  6 active torsions:
REMARK  status: ('A' for Active; 'I' for Inactive)
REMARK    1  A    between atoms: C_1  and  C_2
REMARK    2  A    between atoms: C_2  and  C_3
REMARK    3  A    between atoms: C_2  and  O_4
REMARK    4  A    between atoms: O_4  and  C_5
REMARK    5  A    between atoms: C_8  and  N_9
REMARK    6  A    between atoms: N_16  and  C_17
REMARK                            x       y       z     vdW  Elec       q    Type
REMARK                         _______ _______ _______ _____ _____    ______ ____
ROOT
ATOM      1  C   UNL     1       3.366   4.561  18.115  0.00  0.00    +0.000 A 
ATOM      2  C   UNL     1       4.599   4.819  17.533  0.00  0.00    +0.000 A 
ATOM      3  C   UNL     1       4.976   4.570  16.205  0.00  0.00    +0.000 A 
ATOM      4  C   UNL     1       6.344   4.907  15.983  0.00  0.00    +0.000 A 
ATOM      5  C   UNL     1       7.219   5.436  16.995  0.00  0.00    +0.000 A 
ATOM      6  C   UNL     1       6.798   5.689  18.314  0.00  0.00    +0.000 A 
ATOM      7  C   UNL     1       5.456   5.362  18.560  0.00  0.00    +0.000 A 
ATOM      8  N   UNL     1       4.769   5.470  19.697  0.00  0.00    +0.000 NA
ATOM      9  N   UNL     1       3.572   4.909  19.438  0.00  0.00    +0.000 N 
ATOM     10  C   UNL     1       2.745   4.649  20.594  0.00  0.00    +0.000 C 
ENDROOT
BRANCH   4  11
ATOM     11  N   UNL     1       6.920   4.702  14.636  0.00  0.00    +0.000 N 
ATOM     12  O   UNL     1       7.844   5.450  14.287  0.00  0.00    +0.000 OA
ATOM     13  O   UNL     1       6.448   3.792  13.941  0.00  0.00    +0.000 OA
ENDBRANCH   4  11
BRANCH   1  14
ATOM     14  O   UNL     1       2.275   3.957  17.604  0.00  0.00    +0.000 OA
BRANCH  14  16
ATOM     15  C   UNL     1       3.430   1.935  18.235  0.00  0.00    +0.000 C 
ATOM     16  C   UNL     1       2.120   2.532  17.723  0.00  0.00    +0.000 C 
ATOM     17  C   UNL     1       1.023   2.222  18.747  0.00  0.00    +0.000 C 
ENDBRANCH  14  16
ENDBRANCH   1  14
TORSDOF 3
ENDMDL
MODEL 7
REMARK VINA RESULT:      -6.6      2.422      3.740
REMARK  Name = 
REMARK  6 active torsions:
REMARK  status: ('A' for Active; 'I' for Inactive)
REMARK    1  A    between atoms: C_1  and  C_2
REMARK    2  A    between atoms: C_2  and  C_3
REMARK    3  A    between atoms: C_2  and  O_4
REMARK    4  A    between atoms: O_4  and  C_5
REMARK    5  A    between atoms: C_8  and  N_9
REMARK    6  A    between atoms: N_16  and  C_17
REMARK                            x       y       z     vdW  Elec       q    Type
REMARK                         _______ _______ _______ _____ _____    ______ ____
ROOT
ATOM      1  C   UNL     1       5.429   5.067  16.048  0.00  0.00    +0.000 A 
ATOM      2  C   UNL     1       5.772   4.651  14.770  0.00  0.00    +0.000 A 
ATOM      3  C   UNL     1       5.001   3.865  13.901  0.00  0.00    +0.000 A 
ATOM      4  C   UNL     1       5.706   3.585  12.692  0.00  0.00    +0.000 A 
ATOM      5  C   UNL     1       7.036   4.053  12.407  0.00  0.00    +0.000 A 
ATOM      6  C   UNL     1       7.772   4.855  13.300  0.00  0.00    +0.000 A 
ATOM      7  C   UNL     1       7.102   5.143  14.498  0.00  0.00    +0.000 A 
ATOM      8  N   UNL     1       7.530   5.857  15.538  0.00  0.00    +0.000 NA
ATOM      9  N   UNL     1       6.570   5.723  16.475  0.00  0.00    +0.000 N 
ATOM     10  C   UNL     1       6.928   6.175  17.799  0.00  0.00    +0.000 C 
ENDROOT
BRANCH   4  11
ATOM     11  N   UNL     1       5.048   2.759  11.658  0.00  0.00    +0.000 N 
ATOM     12  O   UNL     1       3.998   3.192  11.160  0.00  0.00    +0.000 OA
ATOM     13  O   UNL     1       5.586   1.687  11.348  0.00  0.00    +0.000 OA
ENDBRANCH   4  11
BRANCH   1  14
ATOM     14  O   UNL     1       4.345   4.776  16.793  0.00  0.00    +0.000 OA
BRANCH  14  16
ATOM     15  C   UNL     1       4.600   3.551  18.856  0.00  0.00    +0.000 C 
ATOM     16  C   UNL     1       4.206   3.470  17.381  0.00  0.00    +0.000 C 
ATOM     17  C   UNL     1       2.741   3.028  17.303  0.00  0.00    +0.000 C 
ENDBRANCH  14  16
ENDBRANCH   1  14
TORSDOF 3
ENDMDL
MODEL 8
REMARK VINA RESULT:      -6.6      2.577      3.085
REMARK  Name = 
REMARK  6 active torsions:
REMARK  status: ('A' for Active; 'I' for Inactive)
REMARK    1  A    between atoms: C_1  and  C_2
REMARK    2  A    between atoms: C_2  and  C_3
REMARK    3  A    between atoms: C_2  and  O_4
REMARK    4  A    between atoms: O_4  and  C_5
REMARK    5  A    between atoms: C_8  and  N_9
REMARK    6  A    between atoms: N_16  and  C_17
REMARK                            x       y       z     vdW  Elec       q    Type
REMARK                         _______ _______ _______ _____ _____    ______ ____
ROOT
ATOM      1  C   UNL     1       3.051   5.137  19.349  0.00  0.00    +0.000 A 
ATOM      2  C   UNL     1       3.901   5.366  18.276  0.00  0.00    +0.000 A 
ATOM      3  C   UNL     1       4.820   4.466  17.719  0.00  0.00    +0.000 A 
ATOM      4  C   UNL     1       5.566   5.074  16.665  0.00  0.00    +0.000 A 
ATOM      5  C   UNL     1       5.392   6.435  16.235  0.00  0.00    +0.000 A 
ATOM      6  C   UNL     1       4.445   7.304  16.810  0.00  0.00    +0.000 A 
ATOM      7  C   UNL     1       3.699   6.731  17.851  0.00  0.00    +0.000 A 
ATOM      8  N   UNL     1       2.747   7.291  18.596  0.00  0.00    +0.000 NA
ATOM      9  N   UNL     1       2.444   6.367  19.529  0.00  0.00    +0.000 N 
ATOM     10  C   UNL     1       1.636   6.839  20.630  0.00  0.00    +0.000 C 
ENDROOT
BRANCH   4  11
ATOM     11  N   UNL     1       6.593   4.273  15.964  0.00  0.00    +0.000 N 
ATOM     12  O   UNL     1       7.766   4.377  16.352  0.00  0.00    +0.000 OA
ATOM     13  O   UNL     1       6.219   3.542  15.037  0.00  0.00    +0.000 OA
ENDBRANCH   4  11
BRANCH   1  14
ATOM     14  O   UNL     1       2.942   4.062  20.154  0.00  0.00    +0.000 OA
BRANCH  14  16
ATOM     15  C   UNL     1       2.037   2.053  19.169  0.00  0.00    +0.000 C 
ATOM     16  C   UNL     1       1.764   3.237  20.097  0.00  0.00    +0.000 C 
ATOM     17  C   UNL     1       1.458   2.687  21.493  0.00  0.00    +0.000 C 
ENDBRANCH  14  16
ENDBRANCH   1  14
TORSDOF 3
ENDMDL
MODEL 9
REMARK VINA RESULT:      -6.3      4.176      6.361
REMARK  Name = 
REMARK  6 active torsions:
REMARK  status: ('A' for Active; 'I' for Inactive)
REMARK    1  A    between atoms: C_1  and  C_2
REMARK    2  A    between atoms: C_2  and  C_3
REMARK    3  A    between atoms: C_2  and  O_4
REMARK    4  A    between atoms: O_4  and  C_5
REMARK    5  A    between atoms: C_8  and  N_9
REMARK    6  A    between atoms: N_16  and  C_17
REMARK                            x       y       z     vdW  Elec       q    Type
REMARK                         _______ _______ _______ _____ _____    ______ ____
ROOT
ATOM      1  C   UNL     1       3.039   5.008  19.316  0.00  0.00    +0.000 A 
ATOM      2  C   UNL     1       2.540   6.287  19.515  0.00  0.00    +0.000 A 
ATOM      3  C   UNL     1       1.864   6.765  20.646  0.00  0.00    +0.000 A 
ATOM      4  C   UNL     1       1.443   8.117  20.466  0.00  0.00    +0.000 A 
ATOM      5  C   UNL     1       1.687   8.886  19.276  0.00  0.00    +0.000 A 
ATOM      6  C   UNL     1       2.387   8.375  18.166  0.00  0.00    +0.000 A 
ATOM      7  C   UNL     1       2.808   7.046  18.316  0.00  0.00    +0.000 A 
ATOM      8  N   UNL     1       3.474   6.283  17.449  0.00  0.00    +0.000 NA
ATOM      9  N   UNL     1       3.519   5.062  18.019  0.00  0.00    +0.000 N 
ATOM     10  C   UNL     1       3.943   3.988  17.152  0.00  0.00    +0.000 C 
ENDROOT
BRANCH   4  11
ATOM     11  N   UNL     1       0.704   8.784  21.559  0.00  0.00    +0.000 N 
ATOM     12  O   UNL     1       1.328   9.589  22.267  0.00  0.00    +0.000 OA
ATOM     13  O   UNL     1      -0.494   8.504  21.700  0.00  0.00    +0.000 OA
ENDBRANCH   4  11
BRANCH   1  14
ATOM     14  O   UNL     1       2.943   3.910  20.091  0.00  0.00    +0.000 OA
BRANCH  14  16
ATOM     15  C   UNL     1       1.610   2.092  19.231  0.00  0.00    +0.000 C 
ATOM     16  C   UNL     1       1.678   3.241  20.237  0.00  0.00    +0.000 C 
ATOM     17  C   UNL     1       1.573   2.648  21.646  0.00  0.00    +0.000 C 
ENDBRANCH  14  16
ENDBRANCH   1  14
TORSDOF 3
ENDMDL
