MODEL 1
REMARK VINA RESULT:      -8.0      0.000      0.000
REMARK  Name = 
REMARK  2 active torsions:
REMARK  status: ('A' for Active; 'I' for Inactive)
REMARK    1  A    between atoms: C_1  and  C_2
REMARK    2  A    between atoms: N_10  and  N_11
REMARK                            x       y       z     vdW  Elec       q    Type
REMARK                         _______ _______ _______ _____ _____    ______ ____
ROOT
ATOM      1  C   UNL     1       1.231   2.697  22.039  0.00  0.00    +0.000 C 
ATOM      2  C   UNL     1       1.705   2.896  20.627  0.00  0.00    +0.000 A 
ATOM      3  C   UNL     1       0.819   2.759  19.554  0.00  0.00    +0.000 A 
ATOM      4  C   UNL     1       1.236   2.948  18.232  0.00  0.00    +0.000 A 
ATOM      5  C   UNL     1       2.575   3.284  18.018  0.00  0.00    +0.000 A 
ATOM      6  N   UNL     1       3.248   3.538  16.841  0.00  0.00    +0.000 N 
ATOM      7  C   UNL     1       4.550   3.850  17.101  0.00  0.00    +0.000 A 
ATOM      8  N   UNL     1       5.473   4.181  16.187  0.00  0.00    +0.000 NA
ATOM      9  C   UNL     1       6.669   4.431  16.772  0.00  0.00    +0.000 A 
ATOM     10  N   UNL     1       7.745   4.824  15.936  0.00  0.00    +0.000 N 
ATOM     11  N   UNL     1       6.922   4.348  18.109  0.00  0.00    +0.000 NA
ATOM     12  N   UNL     1       5.964   4.023  18.991  0.00  0.00    +0.000 NA
ATOM     13  C   UNL     1       4.740   3.771  18.469  0.00  0.00    +0.000 A 
ATOM     14  C   UNL     1       3.495   3.426  19.063  0.00  0.00    +0.000 A 
ATOM     15  C   UNL     1       3.050   3.226  20.386  0.00  0.00    +0.000 A 
ATOM     16  H   UNL     1       2.846   3.512  15.916  0.00  0.00    +0.000 HD
ATOM     17  H   UNL     1       8.464   5.224  16.540  0.00  0.00    +0.000 HD
ENDROOT
BRANCH  10  18
ATOM     18  N   UNL     1       7.438   5.537  14.742  0.00  0.00    +0.000 NA
ATOM     19  H   UNL     1       8.073   5.216  13.999  0.00  0.00    +0.000 HD
ATOM     20  H   UNL     1       7.676   6.524  14.871  0.00  0.00    +0.000 HD
ENDBRANCH  10  18
TORSDOF 1
ENDMDL
MODEL 2
REMARK VINA RESULT:      -7.4      2.316      6.042
REMARK  Name = 
REMARK  2 active torsions:
REMARK  status: ('A' for Active; 'I' for Inactive)
REMARK    1  A    between atoms: C_1  and  C_2
REMARK    2  A    between atoms: N_10  and  N_11
REMARK                            x       y       z     vdW  Elec       q    Type
REMARK                         _______ _______ _______ _____ _____    ______ ____
ROOT
ATOM      1  C   UNL     1       6.721   4.783  13.655  0.00  0.00    +0.000 C 
ATOM      2  C   UNL     1       6.509   4.562  15.125  0.00  0.00    +0.000 A 
ATOM      3  C   UNL     1       7.520   4.863  16.044  0.00  0.00    +0.000 A 
ATOM      4  C   UNL     1       7.340   4.673  17.417  0.00  0.00    +0.000 A 
ATOM      5  C   UNL     1       6.108   4.173  17.846  0.00  0.00    +0.000 A 
ATOM      6  N   UNL     1       5.656   3.903  19.121  0.00  0.00    +0.000 N 
ATOM      7  C   UNL     1       4.373   3.443  19.078  0.00  0.00    +0.000 A 
ATOM      8  N   UNL     1       3.623   3.116  20.140  0.00  0.00    +0.000 NA
ATOM      9  C   UNL     1       2.394   2.692  19.756  0.00  0.00    +0.000 A 
ATOM     10  N   UNL     1       1.470   2.336  20.770  0.00  0.00    +0.000 N 
ATOM     11  N   UNL     1       1.967   2.591  18.465  0.00  0.00    +0.000 NA
ATOM     12  N   UNL     1       2.749   2.940  17.432  0.00  0.00    +0.000 NA
ATOM     13  C   UNL     1       3.988   3.384  17.751  0.00  0.00    +0.000 A 
ATOM     14  C   UNL     1       5.072   3.854  16.960  0.00  0.00    +0.000 A 
ATOM     15  C   UNL     1       5.280   4.050  15.579  0.00  0.00    +0.000 A 
ATOM     16  H   UNL     1       6.182   4.033  19.972  0.00  0.00    +0.000 HD
ATOM     17  H   UNL     1       0.546   2.306  20.338  0.00  0.00    +0.000 HD
ENDROOT
BRANCH  10  18
ATOM     18  N   UNL     1       1.571   2.997  22.028  0.00  0.00    +0.000 NA
ATOM     19  H   UNL     1       0.662   3.428  22.243  0.00  0.00    +0.000 HD
ATOM     20  H   UNL     1       2.214   3.788  21.939  0.00  0.00    +0.000 HD
ENDBRANCH  10  18
TORSDOF 1
ENDMDL
MODEL 3
REMARK VINA RESULT:      -7.2      2.286      2.744
REMARK  Name = 
REMARK  2 active torsions:
REMARK  status: ('A' for Active; 'I' for Inactive)
REMARK    1  A    between atoms: C_1  and  C_2
REMARK    2  A    between atoms: N_10  and  N_11
REMARK                            x       y       z     vdW  Elec       q    Type
REMARK                         _______ _______ _______ _____ _____    ______ ____
ROOT
ATOM      1  C   UNL     1       1.380   7.416  20.924  0.00  0.00    +0.000 C 
ATOM      2  C   UNL     1       2.054   6.331  20.135  0.00  0.00    +0.000 A 
ATOM      3  C   UNL     1       1.874   4.986  20.477  0.00  0.00    +0.000 A 
ATOM      4  C   UNL     1       2.485   3.959  19.751  0.00  0.00    +0.000 A 
ATOM      5  C   UNL     1       3.283   4.321  18.663  0.00  0.00    +0.000 A 
ATOM      6  N   UNL     1       3.985   3.531  17.777  0.00  0.00    +0.000 N 
ATOM      7  C   UNL     1       4.616   4.309  16.850  0.00  0.00    +0.000 A 
ATOM      8  N   UNL     1       5.358   3.862  15.828  0.00  0.00    +0.000 NA
ATOM      9  C   UNL     1       5.846   4.891  15.093  0.00  0.00    +0.000 A 
ATOM     10  N   UNL     1       6.629   4.578  13.954  0.00  0.00    +0.000 N 
ATOM     11  N   UNL     1       5.632   6.211  15.355  0.00  0.00    +0.000 NA
ATOM     12  N   UNL     1       4.873   6.615  16.385  0.00  0.00    +0.000 NA
ATOM     13  C   UNL     1       4.346   5.631  17.153  0.00  0.00    +0.000 A 
ATOM     14  C   UNL     1       3.494   5.654  18.290  0.00  0.00    +0.000 A 
ATOM     15  C   UNL     1       2.870   6.672  19.042  0.00  0.00    +0.000 A 
ATOM     16  H   UNL     1       4.026   2.523  17.792  0.00  0.00    +0.000 HD
ATOM     17  H   UNL     1       6.682   5.422  13.384  0.00  0.00    +0.000 HD
ENDROOT
BRANCH  10  18
ATOM     18  N   UNL     1       6.359   3.357  13.272  0.00  0.00    +0.000 NA
ATOM     19  H   UNL     1       5.346   3.293  13.107  0.00  0.00    +0.000 HD
ATOM     20  H   UNL     1       6.565   2.573  13.897  0.00  0.00    +0.000 HD
ENDBRANCH  10  18
TORSDOF 1
ENDMDL
MODEL 4
REMARK VINA RESULT:      -7.0      2.131      2.793
REMARK  Name = 
REMARK  2 active torsions:
REMARK  status: ('A' for Active; 'I' for Inactive)
REMARK    1  A    between atoms: C_1  and  C_2
REMARK    2  A    between atoms: N_10  and  N_11
REMARK                            x       y       z     vdW  Elec       q    Type
REMARK                         _______ _______ _______ _____ _____    ______ ____
ROOT
ATOM      1  C   UNL     1       1.547   4.344  20.769  0.00  0.00    +0.000 C 
ATOM      2  C   UNL     1       2.303   5.099  19.714  0.00  0.00    +0.000 A 
ATOM      3  C   UNL     1       2.235   6.495  19.651  0.00  0.00    +0.000 A 
ATOM      4  C   UNL     1       2.937   7.218  18.682  0.00  0.00    +0.000 A 
ATOM      5  C   UNL     1       3.718   6.497  17.775  0.00  0.00    +0.000 A 
ATOM      6  N   UNL     1       4.512   6.943  16.740  0.00  0.00    +0.000 N 
ATOM      7  C   UNL     1       5.116   5.888  16.121  0.00  0.00    +0.000 A 
ATOM      8  N   UNL     1       5.977   5.968  15.097  0.00  0.00    +0.000 NA
ATOM      9  C   UNL     1       6.392   4.737  14.712  0.00  0.00    +0.000 A 
ATOM     10  N   UNL     1       7.333   4.657  13.655  0.00  0.00    +0.000 N 
ATOM     11  N   UNL     1       5.987   3.562  15.271  0.00  0.00    +0.000 NA
ATOM     12  N   UNL     1       5.130   3.528  16.303  0.00  0.00    +0.000 NA
ATOM     13  C   UNL     1       4.685   4.730  16.743  0.00  0.00    +0.000 A 
ATOM     14  C   UNL     1       3.810   5.101  17.799  0.00  0.00    +0.000 A 
ATOM     15  C   UNL     1       3.088   4.394  18.784  0.00  0.00    +0.000 A 
ATOM     16  H   UNL     1       4.648   7.907  16.474  0.00  0.00    +0.000 HD
ATOM     17  H   UNL     1       7.730   3.717  13.676  0.00  0.00    +0.000 HD
ENDROOT
BRANCH  10  18
ATOM     18  N   UNL     1       8.245   5.738  13.488  0.00  0.00    +0.000 NA
ATOM     19  H   UNL     1       8.774   5.855  14.362  0.00  0.00    +0.000 HD
ATOM     20  H   UNL     1       7.717   6.609  13.391  0.00  0.00    +0.000 HD
ENDBRANCH  10  18
TORSDOF 1
ENDMDL
MODEL 5
REMARK VINA RESULT:      -6.9      3.629      6.129
REMARK  Name = 
REMARK  2 active torsions:
REMARK  status: ('A' for Active; 'I' for Inactive)
REMARK    1  A    between atoms: C_1  and  C_2
REMARK    2  A    between atoms: N_10  and  N_11
REMARK                            x       y       z     vdW  Elec       q    Type
REMARK                         _______ _______ _______ _____ _____    ______ ____
ROOT
ATOM      1  C   UNL     1       4.061   3.158  11.079  0.00  0.00    +0.000 C 
ATOM      2  C   UNL     1       5.114   3.592  12.058  0.00  0.00    +0.000 A 
ATOM      3  C   UNL     1       6.376   4.000  11.613  0.00  0.00    +0.000 A 
ATOM      4  C   UNL     1       7.368   4.415  12.506  0.00  0.00    +0.000 A 
ATOM      5  C   UNL     1       7.054   4.414  13.868  0.00  0.00    +0.000 A 
ATOM      6  N   UNL     1       7.821   4.779  14.955  0.00  0.00    +0.000 N 
ATOM      7  C   UNL     1       7.103   4.639  16.106  0.00  0.00    +0.000 A 
ATOM      8  N   UNL     1       7.536   4.935  17.340  0.00  0.00    +0.000 NA
ATOM      9  C   UNL     1       6.582   4.678  18.266  0.00  0.00    +0.000 A 
ATOM     10  N   UNL     1       6.878   4.969  19.621  0.00  0.00    +0.000 N 
ATOM     11  N   UNL     1       5.345   4.171  17.998  0.00  0.00    +0.000 NA
ATOM     12  N   UNL     1       4.948   3.898  16.745  0.00  0.00    +0.000 NA
ATOM     13  C   UNL     1       5.856   4.144  15.770  0.00  0.00    +0.000 A 
ATOM     14  C   UNL     1       5.806   4.009  14.356  0.00  0.00    +0.000 A 
ATOM     15  C   UNL     1       4.824   3.589  13.434  0.00  0.00    +0.000 A 
ATOM     16  H   UNL     1       8.771   5.116  14.918  0.00  0.00    +0.000 HD
ATOM     17  H   UNL     1       5.993   4.976  20.128  0.00  0.00    +0.000 HD
ENDROOT
BRANCH  10  18
ATOM     18  N   UNL     1       7.785   6.034  19.893  0.00  0.00    +0.000 NA
ATOM     19  H   UNL     1       8.691   5.808  19.461  0.00  0.00    +0.000 HD
ATOM     20  H   UNL     1       7.981   6.057  20.897  0.00  0.00    +0.000 HD
ENDBRANCH  10  18
TORSDOF 1
ENDMDL
MODEL 6
REMARK VINA RESULT:      -6.9      1.594      1.758
REMARK  Name = 
REMARK  2 active torsions:
REMARK  status: ('A' for Active; 'I' for Inactive)
REMARK    1  A    between atoms: C_1  and  C_2
REMARK    2  A    between atoms: N_10  and  N_11
REMARK                            x       y       z     vdW  Elec       q    Type
REMARK                         _______ _______ _______ _____ _____    ______ ____
ROOT
ATOM      1  C   UNL     1       0.717   4.139  20.459  0.00  0.00    +0.000 C 
ATOM      2  C   UNL     1       1.782   3.701  19.496  0.00  0.00    +0.000 A 
ATOM      3  C   UNL     1       1.887   2.360  19.113  0.00  0.00    +0.000 A 
ATOM      4  C   UNL     1       2.866   1.931  18.211  0.00  0.00    +0.000 A 
ATOM      5  C   UNL     1       3.739   2.894  17.698  0.00  0.00    +0.000 A 
ATOM      6  N   UNL     1       4.775   2.761  16.797  0.00  0.00    +0.000 N 
ATOM      7  C   UNL     1       5.352   3.974  16.560  0.00  0.00    +0.000 A 
ATOM      8  N   UNL     1       6.365   4.207  15.714  0.00  0.00    +0.000 NA
ATOM      9  C   UNL     1       6.706   5.519  15.712  0.00  0.00    +0.000 A 
ATOM     10  N   UNL     1       7.746   5.931  14.842  0.00  0.00    +0.000 N 
ATOM     11  N   UNL     1       6.119   6.483  16.476  0.00  0.00    +0.000 NA
ATOM     12  N   UNL     1       5.099   6.207  17.304  0.00  0.00    +0.000 NA
ATOM     13  C   UNL     1       4.703   4.912  17.342  0.00  0.00    +0.000 A 
ATOM     14  C   UNL     1       3.672   4.245  18.058  0.00  0.00    +0.000 A 
ATOM     15  C   UNL     1       2.678   4.651  18.974  0.00  0.00    +0.000 A 
ATOM     16  H   UNL     1       5.067   1.901  16.358  0.00  0.00    +0.000 HD
ATOM     17  H   UNL     1       7.690   6.947  14.767  0.00  0.00    +0.000 HD
ENDROOT
BRANCH  10  18
ATOM     18  N   UNL     1       7.931   5.205  13.630  0.00  0.00    +0.000 NA
ATOM     19  H   UNL     1       7.041   4.751  13.384  0.00  0.00    +0.000 HD
ATOM     20  H   UNL     1       8.574   4.428  13.801  0.00  0.00    +0.000 HD
ENDBRANCH  10  18
TORSDOF 1
ENDMDL
MODEL 7
REMARK VINA RESULT:      -6.9      1.697      3.187
REMARK  Name = 
REMARK  2 active torsions:
REMARK  status: ('A' for Active; 'I' for Inactive)
REMARK    1  A    between atoms: C_1  and  C_2
REMARK    2  A    between atoms: N_10  and  N_11
REMARK                            x       y       z     vdW  Elec       q    Type
REMARK                         _______ _______ _______ _____ _____    ______ ____
ROOT
ATOM      1  C   UNL     1       2.234   2.147  19.292  0.00  0.00    +0.000 C 
ATOM      2  C   UNL     1       3.262   3.138  18.827  0.00  0.00    +0.000 A 
ATOM      3  C   UNL     1       3.739   4.128  19.692  0.00  0.00    +0.000 A 
ATOM      4  C   UNL     1       4.702   5.056  19.283  0.00  0.00    +0.000 A 
ATOM      5  C   UNL     1       5.180   4.958  17.973  0.00  0.00    +0.000 A 
ATOM      6  N   UNL     1       6.124   5.717  17.315  0.00  0.00    +0.000 N 
ATOM      7  C   UNL     1       6.298   5.255  16.044  0.00  0.00    +0.000 A 
ATOM      8  N   UNL     1       7.162   5.744  15.144  0.00  0.00    +0.000 NA
ATOM      9  C   UNL     1       7.086   5.063  13.975  0.00  0.00    +0.000 A 
ATOM     10  N   UNL     1       7.963   5.444  12.929  0.00  0.00    +0.000 N 
ATOM     11  N   UNL     1       6.239   4.025  13.726  0.00  0.00    +0.000 NA
ATOM     12  N   UNL     1       5.396   3.560  14.660  0.00  0.00    +0.000 NA
ATOM     13  C   UNL     1       5.431   4.193  15.857  0.00  0.00    +0.000 A 
ATOM     14  C   UNL     1       4.726   3.986  17.074  0.00  0.00    +0.000 A 
ATOM     15  C   UNL     1       3.751   3.065  17.510  0.00  0.00    +0.000 A 
ATOM     16  H   UNL     1       6.630   6.497  17.707  0.00  0.00    +0.000 HD
ATOM     17  H   UNL     1       7.967   4.685  12.248  0.00  0.00    +0.000 HD
ENDROOT
BRANCH  10  18
ATOM     18  N   UNL     1       9.227   5.997  13.284  0.00  0.00    +0.000 NA
ATOM     19  H   UNL     1       9.966   5.375  12.927  0.00  0.00    +0.000 HD
ATOM     20  H   UNL     1       9.334   5.961  14.301  0.00  0.00    +0.000 HD
ENDBRANCH  10  18
TORSDOF 1
ENDMDL
MODEL 8
REMARK VINA RESULT:      -6.8      2.743      5.733
REMARK  Name = 
REMARK  2 active torsions:
REMARK  status: ('A' for Active; 'I' for Inactive)
REMARK    1  A    between atoms: C_1  and  C_2
REMARK    2  A    between atoms: N_10  and  N_11
REMARK                            x       y       z     vdW  Elec       q    Type
REMARK                         _______ _______ _______ _____ _____    ______ ____
ROOT
ATOM      1  C   UNL     1       7.073   4.933  14.478  0.00  0.00    +0.000 C 
ATOM      2  C   UNL     1       6.067   5.196  15.561  0.00  0.00    +0.000 A 
ATOM      3  C   UNL     1       5.336   6.388  15.579  0.00  0.00    +0.000 A 
ATOM      4  C   UNL     1       4.388   6.650  16.573  0.00  0.00    +0.000 A 
ATOM      5  C   UNL     1       4.190   5.672  17.552  0.00  0.00    +0.000 A 
ATOM      6  N   UNL     1       3.325   5.656  18.626  0.00  0.00    +0.000 N 
ATOM      7  C   UNL     1       3.451   4.486  19.315  0.00  0.00    +0.000 A 
ATOM      8  N   UNL     1       2.738   4.131  20.394  0.00  0.00    +0.000 NA
ATOM      9  C   UNL     1       3.109   2.907  20.841  0.00  0.00    +0.000 A 
ATOM     10  N   UNL     1       2.423   2.377  21.963  0.00  0.00    +0.000 N 
ATOM     11  N   UNL     1       4.085   2.132  20.289  0.00  0.00    +0.000 NA
ATOM     12  N   UNL     1       4.767   2.522  19.201  0.00  0.00    +0.000 NA
ATOM     13  C   UNL     1       4.435   3.735  18.698  0.00  0.00    +0.000 A 
ATOM     14  C   UNL     1       4.903   4.468  17.574  0.00  0.00    +0.000 A 
ATOM     15  C   UNL     1       5.858   4.231  16.562  0.00  0.00    +0.000 A 
ATOM     16  H   UNL     1       2.679   6.391  18.873  0.00  0.00    +0.000 HD
ATOM     17  H   UNL     1       2.627   1.378  21.996  0.00  0.00    +0.000 HD
ENDROOT
BRANCH  10  18
ATOM     18  N   UNL     1       1.067   2.764  22.161  0.00  0.00    +0.000 NA
ATOM     19  H   UNL     1       0.819   2.591  23.145  0.00  0.00    +0.000 HD
ATOM     20  H   UNL     1       0.458   2.135  21.631  0.00  0.00    +0.000 HD
ENDBRANCH  10  18
TORSDOF 1
ENDMDL
MODEL 9
REMARK VINA RESULT:      -6.7      1.800      2.038
REMARK  Name = 
REMARK  2 active torsions:
REMARK  status: ('A' for Active; 'I' for Inactive)
REMARK    1  A    between atoms: C_1  and  C_2
REMARK    2  A    between atoms: N_10  and  N_11
REMARK                            x       y       z     vdW  Elec       q    Type
REMARK                         _______ _______ _______ _____ _____    ______ ____
ROOT
ATOM      1  C   UNL     1       1.465   5.855  20.934  0.00  0.00    +0.000 C 
ATOM      2  C   UNL     1       2.094   5.214  19.731  0.00  0.00    +0.000 A 
ATOM      3  C   UNL     1       1.515   4.084  19.142  0.00  0.00    +0.000 A 
ATOM      4  C   UNL     1       2.079   3.476  18.017  0.00  0.00    +0.000 A 
ATOM      5  C   UNL     1       3.246   4.039  17.493  0.00  0.00    +0.000 A 
ATOM      6  N   UNL     1       3.999   3.662  16.401  0.00  0.00    +0.000 N 
ATOM      7  C   UNL     1       5.053   4.512  16.239  0.00  0.00    +0.000 A 
ATOM      8  N   UNL     1       5.964   4.452  15.258  0.00  0.00    +0.000 NA
ATOM      9  C   UNL     1       6.882   5.441  15.384  0.00  0.00    +0.000 A 
ATOM     10  N   UNL     1       7.898   5.530  14.400  0.00  0.00    +0.000 N 
ATOM     11  N   UNL     1       6.899   6.373  16.379  0.00  0.00    +0.000 NA
ATOM     12  N   UNL     1       5.960   6.403  17.336  0.00  0.00    +0.000 NA
ATOM     13  C   UNL     1       5.005   5.444  17.259  0.00  0.00    +0.000 A 
ATOM     14  C   UNL     1       3.860   5.164  18.054  0.00  0.00    +0.000 A 
ATOM     15  C   UNL     1       3.274   5.757  19.192  0.00  0.00    +0.000 A 
ATOM     16  H   UNL     1       3.804   2.880  15.793  0.00  0.00    +0.000 HD
ATOM     17  H   UNL     1       8.321   6.454  14.487  0.00  0.00    +0.000 HD
ENDROOT
BRANCH  10  18
ATOM     18  N   UNL     1       7.595   5.082  13.082  0.00  0.00    +0.000 NA
ATOM     19  H   UNL     1       8.214   5.572  12.422  0.00  0.00    +0.000 HD
ATOM     20  H   UNL     1       6.654   5.397  12.831  0.00  0.00    +0.000 HD
ENDBRANCH  10  18
TORSDOF 1
ENDMDL
