MODEL 1
REMARK VINA RESULT:      -7.4      0.000      0.000
REMARK  Name = 
REMARK  5 active torsions:
REMARK  status: ('A' for Active; 'I' for Inactive)
REMARK    1  A    between atoms: C_1  and  C_2
REMARK    2  A    between atoms: C_2  and  C_3
REMARK    3  A    between atoms: C_6  and  O_7
REMARK    4  A    between atoms: O_7  and  C_8
REMARK    5  A    between atoms: C_9  and  C_10
REMARK                            x       y       z     vdW  Elec       q    Type
REMARK                         _______ _______ _______ _____ _____    ______ ____
ROOT
ATOM      1  C   UNL     1       5.629   5.051  15.475  0.00  0.00    +0.000 A 
ATOM      2  C   UNL     1       5.385   6.315  16.010  0.00  0.00    +0.000 A 
ATOM      3  C   UNL     1       4.533   6.461  17.105  0.00  0.00    +0.000 A 
ATOM      4  C   UNL     1       3.927   5.347  17.698  0.00  0.00    +0.000 A 
ATOM      5  C   UNL     1       4.115   4.072  17.134  0.00  0.00    +0.000 A 
ATOM      6  C   UNL     1       4.973   3.946  16.023  0.00  0.00    +0.000 A 
ENDROOT
BRANCH   5   7
ATOM      7  C   UNL     1       3.485   2.814  17.682  0.00  0.00    +0.000 C 
ATOM      8  O   UNL     1       2.063   2.776  17.496  0.00  0.00    +0.000 OA
ATOM      9  C   UNL     1       1.491   2.424  18.680  0.00  0.00    +0.000 C 
ATOM     10  O   UNL     1       0.305   2.204  18.831  0.00  0.00    +0.000 OA
ATOM     11  N   UNL     1       2.419   2.336  19.648  0.00  0.00    +0.000 N 
ATOM     12  C   UNL     1       3.651   2.592  19.160  0.00  0.00    +0.000 C 
ATOM     13  O   UNL     1       4.686   2.575  19.805  0.00  0.00    +0.000 OA
ATOM     14  H   UNL     1       2.214   2.098  20.604  0.00  0.00    +0.000 HD
ENDBRANCH   5   7
BRANCH   1  16
ATOM     15  C   UNL     1       6.197   3.815  13.394  0.00  0.00    +0.000 C 
ATOM     16  C   UNL     1       6.661   4.867  14.394  0.00  0.00    +0.000 C 
ENDBRANCH   1  16
BRANCH   4  17
ATOM     17  O   UNL     1       3.142   5.424  18.821  0.00  0.00    +0.000 OA
ATOM     18  C   UNL     1       2.531   6.693  19.053  0.00  0.00    +0.000 C 
ENDBRANCH   4  17
TORSDOF 3
ENDMDL
MODEL 2
REMARK VINA RESULT:      -7.4      3.005      4.769
REMARK  Name = 
REMARK  5 active torsions:
REMARK  status: ('A' for Active; 'I' for Inactive)
REMARK    1  A    between atoms: C_1  and  C_2
REMARK    2  A    between atoms: C_2  and  C_3
REMARK    3  A    between atoms: C_6  and  O_7
REMARK    4  A    between atoms: O_7  and  C_8
REMARK    5  A    between atoms: C_9  and  C_10
REMARK                            x       y       z     vdW  Elec       q    Type
REMARK                         _______ _______ _______ _____ _____    ______ ____
ROOT
ATOM      1  C   UNL     1       2.817   3.598  17.881  0.00  0.00    +0.000 A 
ATOM      2  C   UNL     1       1.818   4.502  18.240  0.00  0.00    +0.000 A 
ATOM      3  C   UNL     1       2.074   5.873  18.224  0.00  0.00    +0.000 A 
ATOM      4  C   UNL     1       3.322   6.366  17.830  0.00  0.00    +0.000 A 
ATOM      5  C   UNL     1       4.360   5.467  17.523  0.00  0.00    +0.000 A 
ATOM      6  C   UNL     1       4.084   4.086  17.552  0.00  0.00    +0.000 A 
ENDROOT
BRANCH   5   7
ATOM      7  C   UNL     1       5.747   5.899  17.114  0.00  0.00    +0.000 C 
ATOM      8  O   UNL     1       5.917   5.958  15.691  0.00  0.00    +0.000 OA
ATOM      9  C   UNL     1       7.072   5.311  15.375  0.00  0.00    +0.000 C 
ATOM     10  O   UNL     1       7.553   5.270  14.259  0.00  0.00    +0.000 OA
ATOM     11  N   UNL     1       7.611   4.743  16.467  0.00  0.00    +0.000 N 
ATOM     12  C   UNL     1       6.868   5.004  17.564  0.00  0.00    +0.000 C 
ATOM     13  O   UNL     1       7.120   4.625  18.696  0.00  0.00    +0.000 OA
ATOM     14  H   UNL     1       8.462   4.206  16.460  0.00  0.00    +0.000 HD
ENDBRANCH   5   7
BRANCH   1  16
ATOM     15  C   UNL     1       3.599   1.298  18.407  0.00  0.00    +0.000 C 
ATOM     16  C   UNL     1       2.506   2.130  17.750  0.00  0.00    +0.000 C 
ENDBRANCH   1  16
BRANCH   4  17
ATOM     17  O   UNL     1       3.605   7.706  17.723  0.00  0.00    +0.000 OA
ATOM     18  C   UNL     1       2.471   8.573  17.752  0.00  0.00    +0.000 C 
ENDBRANCH   4  17
TORSDOF 3
ENDMDL
MODEL 3
REMARK VINA RESULT:      -7.3      1.213      3.381
REMARK  Name = 
REMARK  5 active torsions:
REMARK  status: ('A' for Active; 'I' for Inactive)
REMARK    1  A    between atoms: C_1  and  C_2
REMARK    2  A    between atoms: C_2  and  C_3
REMARK    3  A    between atoms: C_6  and  O_7
REMARK    4  A    between atoms: O_7  and  C_8
REMARK    5  A    between atoms: C_9  and  C_10
REMARK                            x       y       z     vdW  Elec       q    Type
REMARK                         _______ _______ _______ _____ _____    ______ ____
ROOT
ATOM      1  C   UNL     1       3.568   6.881  17.588  0.00  0.00    +0.000 A 
ATOM      2  C   UNL     1       4.680   7.114  16.779  0.00  0.00    +0.000 A 
ATOM      3  C   UNL     1       5.385   6.042  16.232  0.00  0.00    +0.000 A 
ATOM      4  C   UNL     1       4.981   4.723  16.464  0.00  0.00    +0.000 A 
ATOM      5  C   UNL     1       3.899   4.468  17.326  0.00  0.00    +0.000 A 
ATOM      6  C   UNL     1       3.204   5.563  17.876  0.00  0.00    +0.000 A 
ENDROOT
BRANCH   5   7
ATOM      7  C   UNL     1       3.405   3.082  17.660  0.00  0.00    +0.000 C 
ATOM      8  O   UNL     1       1.988   2.936  17.486  0.00  0.00    +0.000 OA
ATOM      9  C   UNL     1       1.484   2.338  18.599  0.00  0.00    +0.000 C 
ATOM     10  O   UNL     1       0.328   1.982  18.723  0.00  0.00    +0.000 OA
ATOM     11  N   UNL     1       2.441   2.180  19.528  0.00  0.00    +0.000 N 
ATOM     12  C   UNL     1       3.631   2.633  19.077  0.00  0.00    +0.000 C 
ATOM     13  O   UNL     1       4.679   2.609  19.701  0.00  0.00    +0.000 OA
ATOM     14  H   UNL     1       2.285   1.768  20.433  0.00  0.00    +0.000 HD
ENDBRANCH   5   7
BRANCH   1  16
ATOM     15  C   UNL     1       2.135   7.728  19.435  0.00  0.00    +0.000 C 
ATOM     16  C   UNL     1       2.714   8.029  18.059  0.00  0.00    +0.000 C 
ENDBRANCH   1  16
BRANCH   4  17
ATOM     17  O   UNL     1       5.591   3.635  15.889  0.00  0.00    +0.000 OA
ATOM     18  C   UNL     1       6.270   3.895  14.660  0.00  0.00    +0.000 C 
ENDBRANCH   4  17
TORSDOF 3
ENDMDL
MODEL 4
REMARK VINA RESULT:      -7.1      1.078      2.127
REMARK  Name = 
REMARK  5 active torsions:
REMARK  status: ('A' for Active; 'I' for Inactive)
REMARK    1  A    between atoms: C_1  and  C_2
REMARK    2  A    between atoms: C_2  and  C_3
REMARK    3  A    between atoms: C_6  and  O_7
REMARK    4  A    between atoms: O_7  and  C_8
REMARK    5  A    between atoms: C_9  and  C_10
REMARK                            x       y       z     vdW  Elec       q    Type
REMARK                         _______ _______ _______ _____ _____    ______ ____
ROOT
ATOM      1  C   UNL     1       5.598   4.775  15.505  0.00  0.00    +0.000 A 
ATOM      2  C   UNL     1       5.353   6.135  15.321  0.00  0.00    +0.000 A 
ATOM      3  C   UNL     1       4.594   6.842  16.254  0.00  0.00    +0.000 A 
ATOM      4  C   UNL     1       4.087   6.212  17.395  0.00  0.00    +0.000 A 
ATOM      5  C   UNL     1       4.274   4.828  17.566  0.00  0.00    +0.000 A 
ATOM      6  C   UNL     1       5.036   4.128  16.609  0.00  0.00    +0.000 A 
ENDROOT
BRANCH   5   7
ATOM      7  C   UNL     1       3.744   4.052  18.747  0.00  0.00    +0.000 C 
ATOM      8  O   UNL     1       4.785   3.522  19.580  0.00  0.00    +0.000 OA
ATOM      9  C   UNL     1       4.507   2.212  19.823  0.00  0.00    +0.000 C 
ATOM     10  O   UNL     1       5.142   1.504  20.580  0.00  0.00    +0.000 OA
ATOM     11  N   UNL     1       3.425   1.820  19.128  0.00  0.00    +0.000 N 
ATOM     12  C   UNL     1       2.912   2.845  18.414  0.00  0.00    +0.000 C 
ATOM     13  O   UNL     1       1.927   2.785  17.698  0.00  0.00    +0.000 OA
ATOM     14  H   UNL     1       3.049   0.886  19.152  0.00  0.00    +0.000 HD
ENDBRANCH   5   7
BRANCH   1  16
ATOM     15  C   UNL     1       5.846   3.718  13.268  0.00  0.00    +0.000 C 
ATOM     16  C   UNL     1       6.538   4.038  14.587  0.00  0.00    +0.000 C 
ENDBRANCH   1  16
BRANCH   4  17
ATOM     17  O   UNL     1       3.400   6.876  18.381  0.00  0.00    +0.000 OA
ATOM     18  C   UNL     1       2.599   7.970  17.937  0.00  0.00    +0.000 C 
ENDBRANCH   4  17
TORSDOF 3
ENDMDL
MODEL 5
REMARK VINA RESULT:      -7.1      1.802      2.579
REMARK  Name = 
REMARK  5 active torsions:
REMARK  status: ('A' for Active; 'I' for Inactive)
REMARK    1  A    between atoms: C_1  and  C_2
REMARK    2  A    between atoms: C_2  and  C_3
REMARK    3  A    between atoms: C_6  and  O_7
REMARK    4  A    between atoms: O_7  and  C_8
REMARK    5  A    between atoms: C_9  and  C_10
REMARK                            x       y       z     vdW  Elec       q    Type
REMARK                         _______ _______ _______ _____ _____    ______ ____
ROOT
ATOM      1  C   UNL     1       5.710   4.252  14.963  0.00  0.00    +0.000 A 
ATOM      2  C   UNL     1       7.022   4.591  15.288  0.00  0.00    +0.000 A 
ATOM      3  C   UNL     1       7.388   4.780  16.621  0.00  0.00    +0.000 A 
ATOM      4  C   UNL     1       6.457   4.613  17.652  0.00  0.00    +0.000 A 
ATOM      5  C   UNL     1       5.116   4.330  17.338  0.00  0.00    +0.000 A 
ATOM      6  C   UNL     1       4.763   4.150  15.986  0.00  0.00    +0.000 A 
ENDROOT
BRANCH   5   7
ATOM      7  C   UNL     1       4.033   4.158  18.376  0.00  0.00    +0.000 C 
ATOM      8  O   UNL     1       3.219   2.998  18.147  0.00  0.00    +0.000 OA
ATOM      9  C   UNL     1       1.914   3.370  18.245  0.00  0.00    +0.000 C 
ATOM     10  O   UNL     1       0.975   2.599  18.204  0.00  0.00    +0.000 OA
ATOM     11  N   UNL     1       1.811   4.700  18.413  0.00  0.00    +0.000 N 
ATOM     12  C   UNL     1       3.031   5.276  18.465  0.00  0.00    +0.000 C 
ATOM     13  O   UNL     1       3.245   6.467  18.619  0.00  0.00    +0.000 OA
ATOM     14  H   UNL     1       0.936   5.190  18.498  0.00  0.00    +0.000 HD
ENDBRANCH   5   7
BRANCH   1  16
ATOM     15  C   UNL     1       6.597   3.760  12.693  0.00  0.00    +0.000 C 
ATOM     16  C   UNL     1       5.342   3.900  13.545  0.00  0.00    +0.000 C 
ENDBRANCH   1  16
BRANCH   4  17
ATOM     17  O   UNL     1       6.780   4.711  18.983  0.00  0.00    +0.000 OA
ATOM     18  C   UNL     1       7.727   5.729  19.308  0.00  0.00    +0.000 C 
ENDBRANCH   4  17
TORSDOF 3
ENDMDL
MODEL 6
REMARK VINA RESULT:      -7.1      1.663      2.496
REMARK  Name = 
REMARK  5 active torsions:
REMARK  status: ('A' for Active; 'I' for Inactive)
REMARK    1  A    between atoms: C_1  and  C_2
REMARK    2  A    between atoms: C_2  and  C_3
REMARK    3  A    between atoms: C_6  and  O_7
REMARK    4  A    between atoms: O_7  and  C_8
REMARK    5  A    between atoms: C_9  and  C_10
REMARK                            x       y       z     vdW  Elec       q    Type
REMARK                         _______ _______ _______ _____ _____    ______ ____
ROOT
ATOM      1  C   UNL     1       4.684   4.814  16.747  0.00  0.00    +0.000 A 
ATOM      2  C   UNL     1       4.852   6.181  16.531  0.00  0.00    +0.000 A 
ATOM      3  C   UNL     1       4.089   7.103  17.248  0.00  0.00    +0.000 A 
ATOM      4  C   UNL     1       3.164   6.678  18.208  0.00  0.00    +0.000 A 
ATOM      5  C   UNL     1       2.940   5.302  18.396  0.00  0.00    +0.000 A 
ATOM      6  C   UNL     1       3.714   4.386  17.656  0.00  0.00    +0.000 A 
ENDROOT
BRANCH   5   7
ATOM      7  C   UNL     1       1.946   4.744  19.386  0.00  0.00    +0.000 C 
ATOM      8  O   UNL     1       2.499   4.577  20.699  0.00  0.00    +0.000 OA
ATOM      9  C   UNL     1       2.176   3.331  21.139  0.00  0.00    +0.000 C 
ATOM     10  O   UNL     1       2.409   2.915  22.257  0.00  0.00    +0.000 OA
ATOM     11  N   UNL     1       1.550   2.634  20.175  0.00  0.00    +0.000 N 
ATOM     12  C   UNL     1       1.396   3.383  19.061  0.00  0.00    +0.000 C 
ATOM     13  O   UNL     1       0.855   3.016  18.032  0.00  0.00    +0.000 OA
ATOM     14  H   UNL     1       1.231   1.685  20.282  0.00  0.00    +0.000 HD
ENDBRANCH   5   7
BRANCH   1  16
ATOM     15  C   UNL     1       6.626   4.540  15.218  0.00  0.00    +0.000 C 
ATOM     16  C   UNL     1       5.605   3.820  16.089  0.00  0.00    +0.000 C 
ENDBRANCH   1  16
BRANCH   4  17
ATOM     17  O   UNL     1       2.444   7.541  18.995  0.00  0.00    +0.000 OA
ATOM     18  C   UNL     1       1.931   8.694  18.327  0.00  0.00    +0.000 C 
ENDBRANCH   4  17
TORSDOF 3
ENDMDL
MODEL 7
REMARK VINA RESULT:      -6.9      3.223      5.204
REMARK  Name = 
REMARK  5 active torsions:
REMARK  status: ('A' for Active; 'I' for Inactive)
REMARK    1  A    between atoms: C_1  and  C_2
REMARK    2  A    between atoms: C_2  and  C_3
REMARK    3  A    between atoms: C_6  and  O_7
REMARK    4  A    between atoms: O_7  and  C_8
REMARK    5  A    between atoms: C_9  and  C_10
REMARK                            x       y       z     vdW  Elec       q    Type
REMARK                         _______ _______ _______ _____ _____    ______ ____
ROOT
ATOM      1  C   UNL     1       3.142   4.030  19.919  0.00  0.00    +0.000 A 
ATOM      2  C   UNL     1       2.022   4.850  19.793  0.00  0.00    +0.000 A 
ATOM      3  C   UNL     1       2.107   6.050  19.086  0.00  0.00    +0.000 A 
ATOM      4  C   UNL     1       3.304   6.441  18.476  0.00  0.00    +0.000 A 
ATOM      5  C   UNL     1       4.459   5.654  18.643  0.00  0.00    +0.000 A 
ATOM      6  C   UNL     1       4.355   4.450  19.367  0.00  0.00    +0.000 A 
ENDROOT
BRANCH   5   7
ATOM      7  C   UNL     1       5.801   6.004  18.048  0.00  0.00    +0.000 C 
ATOM      8  O   UNL     1       5.930   5.593  16.680  0.00  0.00    +0.000 OA
ATOM      9  C   UNL     1       7.118   4.945  16.542  0.00  0.00    +0.000 C 
ATOM     10  O   UNL     1       7.572   4.561  15.481  0.00  0.00    +0.000 OA
ATOM     11  N   UNL     1       7.724   4.806  17.733  0.00  0.00    +0.000 N 
ATOM     12  C   UNL     1       6.994   5.376  18.716  0.00  0.00    +0.000 C 
ATOM     13  O   UNL     1       7.301   5.413  19.896  0.00  0.00    +0.000 OA
ATOM     14  H   UNL     1       8.611   4.347  17.864  0.00  0.00    +0.000 HD
ENDBRANCH   5   7
BRANCH   1  16
ATOM     15  C   UNL     1       1.881   2.649  21.557  0.00  0.00    +0.000 C 
ATOM     16  C   UNL     1       3.021   2.666  20.547  0.00  0.00    +0.000 C 
ENDBRANCH   1  16
BRANCH   4  17
ATOM     17  O   UNL     1       3.424   7.571  17.706  0.00  0.00    +0.000 OA
ATOM     18  C   UNL     1       2.355   8.509  17.828  0.00  0.00    +0.000 C 
ENDBRANCH   4  17
TORSDOF 3
ENDMDL
MODEL 8
REMARK VINA RESULT:      -6.9      2.893      5.181
REMARK  Name = 
REMARK  5 active torsions:
REMARK  status: ('A' for Active; 'I' for Inactive)
REMARK    1  A    between atoms: C_1  and  C_2
REMARK    2  A    between atoms: C_2  and  C_3
REMARK    3  A    between atoms: C_6  and  O_7
REMARK    4  A    between atoms: O_7  and  C_8
REMARK    5  A    between atoms: C_9  and  C_10
REMARK                            x       y       z     vdW  Elec       q    Type
REMARK                         _______ _______ _______ _____ _____    ______ ____
ROOT
ATOM      1  C   UNL     1       2.543   6.234  18.332  0.00  0.00    +0.000 A 
ATOM      2  C   UNL     1       1.608   5.276  17.941  0.00  0.00    +0.000 A 
ATOM      3  C   UNL     1       2.019   3.977  17.643  0.00  0.00    +0.000 A 
ATOM      4  C   UNL     1       3.363   3.605  17.750  0.00  0.00    +0.000 A 
ATOM      5  C   UNL     1       4.327   4.574  18.086  0.00  0.00    +0.000 A 
ATOM      6  C   UNL     1       3.895   5.883  18.375  0.00  0.00    +0.000 A 
ENDROOT
BRANCH   5   7
ATOM      7  C   UNL     1       5.803   4.280  18.201  0.00  0.00    +0.000 C 
ATOM      8  O   UNL     1       6.455   5.074  19.202  0.00  0.00    +0.000 OA
ATOM      9  C   UNL     1       7.585   5.599  18.657  0.00  0.00    +0.000 C 
ATOM     10  O   UNL     1       8.414   6.237  19.277  0.00  0.00    +0.000 OA
ATOM     11  N   UNL     1       7.666   5.299  17.350  0.00  0.00    +0.000 N 
ATOM     12  C   UNL     1       6.618   4.539  16.964  0.00  0.00    +0.000 C 
ATOM     13  O   UNL     1       6.433   4.109  15.838  0.00  0.00    +0.000 OA
ATOM     14  H   UNL     1       8.417   5.596  16.749  0.00  0.00    +0.000 HD
ENDBRANCH   5   7
BRANCH   1  16
ATOM     15  C   UNL     1       2.291   8.625  17.697  0.00  0.00    +0.000 C 
ATOM     16  C   UNL     1       2.092   7.593  18.800  0.00  0.00    +0.000 C 
ENDBRANCH   1  16
BRANCH   4  17
ATOM     17  O   UNL     1       3.811   2.324  17.543  0.00  0.00    +0.000 OA
ATOM     18  C   UNL     1       3.527   1.402  18.595  0.00  0.00    +0.000 C 
ENDBRANCH   4  17
TORSDOF 3
ENDMDL
MODEL 9
REMARK VINA RESULT:      -6.9      2.394      3.158
REMARK  Name = 
REMARK  5 active torsions:
REMARK  status: ('A' for Active; 'I' for Inactive)
REMARK    1  A    between atoms: C_1  and  C_2
REMARK    2  A    between atoms: C_2  and  C_3
REMARK    3  A    between atoms: C_6  and  O_7
REMARK    4  A    between atoms: O_7  and  C_8
REMARK    5  A    between atoms: C_9  and  C_10
REMARK                            x       y       z     vdW  Elec       q    Type
REMARK                         _______ _______ _______ _____ _____    ______ ____
ROOT
ATOM      1  C   UNL     1       5.634   5.506  18.123  0.00  0.00    +0.000 A 
ATOM      2  C   UNL     1       5.512   6.654  17.341  0.00  0.00    +0.000 A 
ATOM      3  C   UNL     1       4.292   7.325  17.267  0.00  0.00    +0.000 A 
ATOM      4  C   UNL     1       3.180   6.876  17.989  0.00  0.00    +0.000 A 
ATOM      5  C   UNL     1       3.269   5.687  18.735  0.00  0.00    +0.000 A 
ATOM      6  C   UNL     1       4.508   5.018  18.790  0.00  0.00    +0.000 A 
ENDROOT
BRANCH   5   7
ATOM      7  C   UNL     1       2.121   5.106  19.524  0.00  0.00    +0.000 C 
ATOM      8  O   UNL     1       2.480   4.777  20.873  0.00  0.00    +0.000 OA
ATOM      9  C   UNL     1       2.032   3.519  21.135  0.00  0.00    +0.000 C 
ATOM     10  O   UNL     1       2.088   2.984  22.225  0.00  0.00    +0.000 OA
ATOM     11  N   UNL     1       1.505   2.963  20.031  0.00  0.00    +0.000 N 
ATOM     12  C   UNL     1       1.546   3.823  18.991  0.00  0.00    +0.000 C 
ATOM     13  O   UNL     1       1.130   3.595  17.867  0.00  0.00    +0.000 OA
ATOM     14  H   UNL     1       1.123   2.032  19.997  0.00  0.00    +0.000 HD
ENDBRANCH   5   7
BRANCH   1  16
ATOM     15  C   UNL     1       7.914   5.814  19.065  0.00  0.00    +0.000 C 
ATOM     16  C   UNL     1       6.981   4.863  18.328  0.00  0.00    +0.000 C 
ENDBRANCH   1  16
BRANCH   4  17
ATOM     17  O   UNL     1       1.978   7.540  18.013  0.00  0.00    +0.000 OA
ATOM     18  C   UNL     1       2.057   8.952  17.818  0.00  0.00    +0.000 C 
ENDBRANCH   4  17
TORSDOF 3
ENDMDL
