MODEL 1
REMARK VINA RESULT:      -6.7      0.000      0.000
REMARK  Name = 
REMARK  12 active torsions:
REMARK  status: ('A' for Active; 'I' for Inactive)
REMARK    1  A    between atoms: C_1  and  O_2
REMARK    2  A    between atoms: O_2  and  C_3
REMARK    3  A    between atoms: C_3  and  C_4
REMARK    4  A    between atoms: C_4  and  N_5
REMARK    5  A    between atoms: C_6  and  C_7
REMARK    6  A    between atoms: C_7  and  C_8
REMARK    7  A    between atoms: N_15  and  N_16
REMARK    8  A    between atoms: C_17  and  O_19
REMARK    9  A    between atoms: O_19  and  C_20
REMARK   10  A    between atoms: C_20  and  C_21
REMARK   11  A    between atoms: C_20  and  C_22
REMARK   12  A    between atoms: C_20  and  C_23
REMARK                            x       y       z     vdW  Elec       q    Type
REMARK                         _______ _______ _______ _____ _____    ______ ____
ROOT
ATOM      1  N   UNL     1       6.088   4.161  17.479  0.00  0.00    +0.000 N 
ATOM      2  C   UNL     1       5.073   4.483  16.593  0.00  0.00    +0.000 C 
ATOM      3  N   UNL     1       3.829   4.148  16.744  0.00  0.00    +0.000 NA
ATOM      4  H   UNL     1       5.747   3.937  18.404  0.00  0.00    +0.000 HD
ENDROOT
BRANCH   3   5
ATOM      5  N   UNL     1       3.437   3.398  17.813  0.00  0.00    +0.000 N 
ATOM      6  C   UNL     1       2.097   3.331  18.115  0.00  0.00    +0.000 C 
ATOM      7  O   UNL     1       1.203   3.875  17.477  0.00  0.00    +0.000 OA
ATOM      8  H   UNL     1       4.095   2.863  18.352  0.00  0.00    +0.000 HD
BRANCH   6   9
ATOM      9  O   UNL     1       1.897   2.583  19.239  0.00  0.00    +0.000 OA
BRANCH   9  10
ATOM     10  C   UNL     1       2.235   3.158  20.532  0.00  0.00    +0.000 C 
ATOM     11  C   UNL     1       1.220   2.736  21.602  0.00  0.00    +0.000 C 
ATOM     12  C   UNL     1       3.605   2.571  20.917  0.00  0.00    +0.000 C 
ATOM     13  C   UNL     1       2.389   4.682  20.449  0.00  0.00    +0.000 C 
ENDBRANCH   9  10
ENDBRANCH   6   9
ENDBRANCH   3   5
BRANCH   1  14
ATOM     14  C   UNL     1       7.383   4.822  17.580  0.00  0.00    +0.000 C 
BRANCH  14  15
ATOM     15  C   UNL     1       7.569   5.488  18.948  0.00  0.00    +0.000 C 
BRANCH  15  17
ATOM     16  C   UNL     1       7.615   7.359  17.514  0.00  0.00    +0.000 C 
ATOM     17  O   UNL     1       8.030   6.834  18.771  0.00  0.00    +0.000 OA
ENDBRANCH  15  17
ENDBRANCH  14  15
ENDBRANCH   1  14
BRANCH   2  18
ATOM     18  C   UNL     1       5.327   5.344  15.341  0.00  0.00    +0.000 C 
BRANCH  18  19
ATOM     19  C   UNL     1       5.813   4.612  14.110  0.00  0.00    +0.000 A 
ATOM     20  C   UNL     1       5.000   3.712  13.408  0.00  0.00    +0.000 A 
ATOM     21  C   UNL     1       5.511   3.001  12.320  0.00  0.00    +0.000 A 
ATOM     22  C   UNL     1       6.826   3.207  11.910  0.00  0.00    +0.000 A 
ATOM     23 CL   UNL     1       7.487   2.259  10.636  0.00  0.00    +0.000 Cl
ATOM     24  C   UNL     1       7.616   4.166  12.538  0.00  0.00    +0.000 A 
ATOM     25  C   UNL     1       7.106   4.876  13.626  0.00  0.00    +0.000 A 
ENDBRANCH  18  19
ENDBRANCH   2  18
TORSDOF 8
ENDMDL
MODEL 2
REMARK VINA RESULT:      -6.6      2.092      2.983
REMARK  Name = 
REMARK  12 active torsions:
REMARK  status: ('A' for Active; 'I' for Inactive)
REMARK    1  A    between atoms: C_1  and  O_2
REMARK    2  A    between atoms: O_2  and  C_3
REMARK    3  A    between atoms: C_3  and  C_4
REMARK    4  A    between atoms: C_4  and  N_5
REMARK    5  A    between atoms: C_6  and  C_7
REMARK    6  A    between atoms: C_7  and  C_8
REMARK    7  A    between atoms: N_15  and  N_16
REMARK    8  A    between atoms: C_17  and  O_19
REMARK    9  A    between atoms: O_19  and  C_20
REMARK   10  A    between atoms: C_20  and  C_21
REMARK   11  A    between atoms: C_20  and  C_22
REMARK   12  A    between atoms: C_20  and  C_23
REMARK                            x       y       z     vdW  Elec       q    Type
REMARK                         _______ _______ _______ _____ _____    ______ ____
ROOT
ATOM      1  N   UNL     1       4.356   6.126  18.347  0.00  0.00    +0.000 N 
ATOM      2  C   UNL     1       5.522   5.416  18.111  0.00  0.00    +0.000 C 
ATOM      3  N   UNL     1       5.847   4.313  18.710  0.00  0.00    +0.000 NA
ATOM      4  H   UNL     1       3.631   5.564  18.770  0.00  0.00    +0.000 HD
ENDROOT
BRANCH   3   5
ATOM      5  N   UNL     1       5.041   3.784  19.675  0.00  0.00    +0.000 N 
ATOM      6  C   UNL     1       4.109   2.841  19.309  0.00  0.00    +0.000 C 
ATOM      7  O   UNL     1       3.956   2.405  18.174  0.00  0.00    +0.000 OA
ATOM      8  H   UNL     1       5.142   4.033  20.643  0.00  0.00    +0.000 HD
BRANCH   6   9
ATOM      9  O   UNL     1       3.362   2.464  20.387  0.00  0.00    +0.000 OA
BRANCH   9  10
ATOM     10  C   UNL     1       2.051   3.066  20.575  0.00  0.00    +0.000 C 
ATOM     11  C   UNL     1       1.111   2.707  19.418  0.00  0.00    +0.000 C 
ATOM     12  C   UNL     1       1.477   2.451  21.864  0.00  0.00    +0.000 C 
ATOM     13  C   UNL     1       2.153   4.582  20.790  0.00  0.00    +0.000 C 
ENDBRANCH   9  10
ENDBRANCH   6   9
ENDBRANCH   3   5
BRANCH   1  14
ATOM     14  C   UNL     1       3.756   7.115  17.459  0.00  0.00    +0.000 C 
BRANCH  14  15
ATOM     15  C   UNL     1       2.748   7.999  18.201  0.00  0.00    +0.000 C 
BRANCH  15  17
ATOM     16  C   UNL     1       1.611   8.263  20.248  0.00  0.00    +0.000 C 
ATOM     17  O   UNL     1       2.387   7.382  19.444  0.00  0.00    +0.000 OA
ENDBRANCH  15  17
ENDBRANCH  14  15
ENDBRANCH   1  14
BRANCH   2  18
ATOM     18  C   UNL     1       6.540   5.854  17.041  0.00  0.00    +0.000 C 
BRANCH  18  19
ATOM     19  C   UNL     1       6.430   5.180  15.692  0.00  0.00    +0.000 A 
ATOM     20  C   UNL     1       5.337   4.376  15.348  0.00  0.00    +0.000 A 
ATOM     21  C   UNL     1       5.309   3.711  14.119  0.00  0.00    +0.000 A 
ATOM     22  C   UNL     1       6.358   3.872  13.218  0.00  0.00    +0.000 A 
ATOM     23 CL   UNL     1       6.374   2.976  11.750  0.00  0.00    +0.000 Cl
ATOM     24  C   UNL     1       7.406   4.742  13.506  0.00  0.00    +0.000 A 
ATOM     25  C   UNL     1       7.434   5.405  14.734  0.00  0.00    +0.000 A 
ENDBRANCH  18  19
ENDBRANCH   2  18
TORSDOF 8
ENDMDL
MODEL 3
REMARK VINA RESULT:      -6.5      2.152      3.178
REMARK  Name = 
REMARK  12 active torsions:
REMARK  status: ('A' for Active; 'I' for Inactive)
REMARK    1  A    between atoms: C_1  and  O_2
REMARK    2  A    between atoms: O_2  and  C_3
REMARK    3  A    between atoms: C_3  and  C_4
REMARK    4  A    between atoms: C_4  and  N_5
REMARK    5  A    between atoms: C_6  and  C_7
REMARK    6  A    between atoms: C_7  and  C_8
REMARK    7  A    between atoms: N_15  and  N_16
REMARK    8  A    between atoms: C_17  and  O_19
REMARK    9  A    between atoms: O_19  and  C_20
REMARK   10  A    between atoms: C_20  and  C_21
REMARK   11  A    between atoms: C_20  and  C_22
REMARK   12  A    between atoms: C_20  and  C_23
REMARK                            x       y       z     vdW  Elec       q    Type
REMARK                         _______ _______ _______ _____ _____    ______ ____
ROOT
ATOM      1  N   UNL     1       4.465   6.030  18.513  0.00  0.00    +0.000 N 
ATOM      2  C   UNL     1       5.605   5.280  18.273  0.00  0.00    +0.000 C 
ATOM      3  N   UNL     1       5.877   4.148  18.844  0.00  0.00    +0.000 NA
ATOM      4  H   UNL     1       3.712   5.485  18.908  0.00  0.00    +0.000 HD
ENDROOT
BRANCH   3   5
ATOM      5  N   UNL     1       5.034   3.623  19.780  0.00  0.00    +0.000 N 
ATOM      6  C   UNL     1       4.058   2.746  19.369  0.00  0.00    +0.000 C 
ATOM      7  O   UNL     1       3.894   2.364  18.216  0.00  0.00    +0.000 OA
ATOM      8  H   UNL     1       5.138   3.828  20.758  0.00  0.00    +0.000 HD
BRANCH   6   9
ATOM      9  O   UNL     1       3.281   2.366  20.425  0.00  0.00    +0.000 OA
BRANCH   9  10
ATOM     10  C   UNL     1       2.023   3.060  20.654  0.00  0.00    +0.000 C 
ATOM     11  C   UNL     1       1.041   2.810  19.504  0.00  0.00    +0.000 C 
ATOM     12  C   UNL     1       1.424   2.450  21.934  0.00  0.00    +0.000 C 
ATOM     13  C   UNL     1       2.245   4.557  20.912  0.00  0.00    +0.000 C 
ENDBRANCH   9  10
ENDBRANCH   6   9
ENDBRANCH   3   5
BRANCH   1  14
ATOM     14  C   UNL     1       3.920   7.067  17.646  0.00  0.00    +0.000 C 
BRANCH  14  15
ATOM     15  C   UNL     1       2.469   7.400  18.012  0.00  0.00    +0.000 C 
BRANCH  15  17
ATOM     16  C   UNL     1       1.443   8.708  19.683  0.00  0.00    +0.000 C 
ATOM     17  O   UNL     1       2.374   7.664  19.418  0.00  0.00    +0.000 OA
ENDBRANCH  15  17
ENDBRANCH  14  15
ENDBRANCH   1  14
BRANCH   2  18
ATOM     18  C   UNL     1       6.658   5.708  17.232  0.00  0.00    +0.000 C 
BRANCH  18  19
ATOM     19  C   UNL     1       6.566   5.050  15.874  0.00  0.00    +0.000 A 
ATOM     20  C   UNL     1       7.469   5.340  14.843  0.00  0.00    +0.000 A 
ATOM     21  C   UNL     1       7.305   4.767  13.579  0.00  0.00    +0.000 A 
ATOM     22  C   UNL     1       6.257   3.879  13.350  0.00  0.00    +0.000 A 
ATOM     23 CL   UNL     1       5.994   3.251  11.770  0.00  0.00    +0.000 Cl
ATOM     24  C   UNL     1       5.408   3.508  14.389  0.00  0.00    +0.000 A 
ATOM     25  C   UNL     1       5.572   4.082  15.651  0.00  0.00    +0.000 A 
ENDBRANCH  18  19
ENDBRANCH   2  18
TORSDOF 8
ENDMDL
MODEL 4
REMARK VINA RESULT:      -6.5      0.369      1.128
REMARK  Name = 
REMARK  12 active torsions:
REMARK  status: ('A' for Active; 'I' for Inactive)
REMARK    1  A    between atoms: C_1  and  O_2
REMARK    2  A    between atoms: O_2  and  C_3
REMARK    3  A    between atoms: C_3  and  C_4
REMARK    4  A    between atoms: C_4  and  N_5
REMARK    5  A    between atoms: C_6  and  C_7
REMARK    6  A    between atoms: C_7  and  C_8
REMARK    7  A    between atoms: N_15  and  N_16
REMARK    8  A    between atoms: C_17  and  O_19
REMARK    9  A    between atoms: O_19  and  C_20
REMARK   10  A    between atoms: C_20  and  C_21
REMARK   11  A    between atoms: C_20  and  C_22
REMARK   12  A    between atoms: C_20  and  C_23
REMARK                            x       y       z     vdW  Elec       q    Type
REMARK                         _______ _______ _______ _____ _____    ______ ____
ROOT
ATOM      1  N   UNL     1       6.027   4.075  17.317  0.00  0.00    +0.000 N 
ATOM      2  C   UNL     1       5.009   4.403  16.437  0.00  0.00    +0.000 C 
ATOM      3  N   UNL     1       3.762   4.088  16.602  0.00  0.00    +0.000 NA
ATOM      4  H   UNL     1       5.692   3.866  18.247  0.00  0.00    +0.000 HD
ENDROOT
BRANCH   3   5
ATOM      5  N   UNL     1       3.369   3.355  17.683  0.00  0.00    +0.000 N 
ATOM      6  C   UNL     1       2.055   3.421  18.081  0.00  0.00    +0.000 C 
ATOM      7  O   UNL     1       1.181   4.074  17.521  0.00  0.00    +0.000 OA
ATOM      8  H   UNL     1       4.002   2.740  18.162  0.00  0.00    +0.000 HD
BRANCH   6   9
ATOM      9  O   UNL     1       1.855   2.669  19.202  0.00  0.00    +0.000 OA
BRANCH   9  10
ATOM     10  C   UNL     1       2.391   3.144  20.469  0.00  0.00    +0.000 C 
ATOM     11  C   UNL     1       2.401   4.677  20.519  0.00  0.00    +0.000 C 
ATOM     12  C   UNL     1       1.429   2.638  21.558  0.00  0.00    +0.000 C 
ATOM     13  C   UNL     1       3.774   2.545  20.756  0.00  0.00    +0.000 C 
ENDBRANCH   9  10
ENDBRANCH   6   9
ENDBRANCH   3   5
BRANCH   1  14
ATOM     14  C   UNL     1       7.334   4.718  17.399  0.00  0.00    +0.000 C 
BRANCH  14  15
ATOM     15  C   UNL     1       7.204   6.223  17.655  0.00  0.00    +0.000 C 
BRANCH  15  17
ATOM     16  C   UNL     1       8.017   5.648  19.791  0.00  0.00    +0.000 C 
ATOM     17  O   UNL     1       8.061   6.605  18.739  0.00  0.00    +0.000 OA
ENDBRANCH  15  17
ENDBRANCH  14  15
ENDBRANCH   1  14
BRANCH   2  18
ATOM     18  C   UNL     1       5.265   5.247  15.173  0.00  0.00    +0.000 C 
BRANCH  18  19
ATOM     19  C   UNL     1       5.777   4.503  13.961  0.00  0.00    +0.000 A 
ATOM     20  C   UNL     1       4.963   3.637  13.219  0.00  0.00    +0.000 A 
ATOM     21  C   UNL     1       5.494   2.911  12.150  0.00  0.00    +0.000 A 
ATOM     22  C   UNL     1       6.832   3.070  11.799  0.00  0.00    +0.000 A 
ATOM     23 CL   UNL     1       7.512   2.104  10.549  0.00  0.00    +0.000 Cl
ATOM     24  C   UNL     1       7.629   3.996  12.466  0.00  0.00    +0.000 A 
ATOM     25  C   UNL     1       7.099   4.720  13.535  0.00  0.00    +0.000 A 
ENDBRANCH  18  19
ENDBRANCH   2  18
TORSDOF 8
ENDMDL
MODEL 5
REMARK VINA RESULT:      -6.5      3.461      6.753
REMARK  Name = 
REMARK  12 active torsions:
REMARK  status: ('A' for Active; 'I' for Inactive)
REMARK    1  A    between atoms: C_1  and  O_2
REMARK    2  A    between atoms: O_2  and  C_3
REMARK    3  A    between atoms: C_3  and  C_4
REMARK    4  A    between atoms: C_4  and  N_5
REMARK    5  A    between atoms: C_6  and  C_7
REMARK    6  A    between atoms: C_7  and  C_8
REMARK    7  A    between atoms: N_15  and  N_16
REMARK    8  A    between atoms: C_17  and  O_19
REMARK    9  A    between atoms: O_19  and  C_20
REMARK   10  A    between atoms: C_20  and  C_21
REMARK   11  A    between atoms: C_20  and  C_22
REMARK   12  A    between atoms: C_20  and  C_23
REMARK                            x       y       z     vdW  Elec       q    Type
REMARK                         _______ _______ _______ _____ _____    ______ ____
ROOT
ATOM      1  N   UNL     1       7.031   6.949  16.739  0.00  0.00    +0.000 N 
ATOM      2  C   UNL     1       5.700   6.588  16.606  0.00  0.00    +0.000 C 
ATOM      3  N   UNL     1       5.229   5.847  15.652  0.00  0.00    +0.000 NA
ATOM      4  H   UNL     1       7.658   6.335  16.239  0.00  0.00    +0.000 HD
ENDROOT
BRANCH   3   5
ATOM      5  N   UNL     1       6.048   5.388  14.662  0.00  0.00    +0.000 N 
ATOM      6  C   UNL     1       6.243   4.032  14.545  0.00  0.00    +0.000 C 
ATOM      7  O   UNL     1       5.712   3.180  15.250  0.00  0.00    +0.000 OA
ATOM      8  H   UNL     1       6.471   6.010  13.996  0.00  0.00    +0.000 HD
BRANCH   6   9
ATOM      9  O   UNL     1       7.125   3.760  13.540  0.00  0.00    +0.000 OA
BRANCH   9  10
ATOM     10  C   UNL     1       6.629   3.680  12.175  0.00  0.00    +0.000 C 
ATOM     11  C   UNL     1       7.141   4.857  11.336  0.00  0.00    +0.000 C 
ATOM     12  C   UNL     1       7.210   2.384  11.583  0.00  0.00    +0.000 C 
ATOM     13  C   UNL     1       5.099   3.564  12.137  0.00  0.00    +0.000 C 
ENDBRANCH   9  10
ENDBRANCH   6   9
ENDBRANCH   3   5
BRANCH   1  14
ATOM     14  C   UNL     1       7.676   7.423  17.958  0.00  0.00    +0.000 C 
BRANCH  14  15
ATOM     15  C   UNL     1       8.064   8.902  17.850  0.00  0.00    +0.000 C 
BRANCH  15  17
ATOM     16  C   UNL     1       9.325  10.621  18.855  0.00  0.00    +0.000 C 
ATOM     17  O   UNL     1       8.932   9.255  18.934  0.00  0.00    +0.000 OA
ENDBRANCH  15  17
ENDBRANCH  14  15
ENDBRANCH   1  14
BRANCH   2  18
ATOM     18  C   UNL     1       4.637   6.999  17.643  0.00  0.00    +0.000 C 
BRANCH  18  19
ATOM     19  C   UNL     1       3.875   5.874  18.307  0.00  0.00    +0.000 A 
ATOM     20  C   UNL     1       4.473   5.018  19.240  0.00  0.00    +0.000 A 
ATOM     21  C   UNL     1       3.756   3.946  19.775  0.00  0.00    +0.000 A 
ATOM     22  C   UNL     1       2.430   3.742  19.402  0.00  0.00    +0.000 A 
ATOM     23 CL   UNL     1       1.577   2.364  19.981  0.00  0.00    +0.000 Cl
ATOM     24  C   UNL     1       1.793   4.638  18.548  0.00  0.00    +0.000 A 
ATOM     25  C   UNL     1       2.510   5.709  18.013  0.00  0.00    +0.000 A 
ENDBRANCH  18  19
ENDBRANCH   2  18
TORSDOF 8
ENDMDL
MODEL 6
REMARK VINA RESULT:      -6.4      3.740      7.615
REMARK  Name = 
REMARK  12 active torsions:
REMARK  status: ('A' for Active; 'I' for Inactive)
REMARK    1  A    between atoms: C_1  and  O_2
REMARK    2  A    between atoms: O_2  and  C_3
REMARK    3  A    between atoms: C_3  and  C_4
REMARK    4  A    between atoms: C_4  and  N_5
REMARK    5  A    between atoms: C_6  and  C_7
REMARK    6  A    between atoms: C_7  and  C_8
REMARK    7  A    between atoms: N_15  and  N_16
REMARK    8  A    between atoms: C_17  and  O_19
REMARK    9  A    between atoms: O_19  and  C_20
REMARK   10  A    between atoms: C_20  and  C_21
REMARK   11  A    between atoms: C_20  and  C_22
REMARK   12  A    between atoms: C_20  and  C_23
REMARK                            x       y       z     vdW  Elec       q    Type
REMARK                         _______ _______ _______ _____ _____    ______ ____
ROOT
ATOM      1  N   UNL     1       2.849   3.914  17.893  0.00  0.00    +0.000 N 
ATOM      2  C   UNL     1       3.705   4.806  18.518  0.00  0.00    +0.000 C 
ATOM      3  N   UNL     1       4.900   5.093  18.105  0.00  0.00    +0.000 NA
ATOM      4  H   UNL     1       3.086   3.753  16.925  0.00  0.00    +0.000 HD
ENDROOT
BRANCH   3   5
ATOM      5  N   UNL     1       5.418   4.480  17.002  0.00  0.00    +0.000 N 
ATOM      6  C   UNL     1       6.720   4.749  16.649  0.00  0.00    +0.000 C 
ATOM      7  O   UNL     1       7.480   5.486  17.268  0.00  0.00    +0.000 OA
ATOM      8  H   UNL     1       4.890   3.809  16.473  0.00  0.00    +0.000 HD
BRANCH   6   9
ATOM      9  O   UNL     1       7.050   4.093  15.499  0.00  0.00    +0.000 OA
BRANCH   9  10
ATOM     10  C   UNL     1       6.550   4.605  14.232  0.00  0.00    +0.000 C 
ATOM     11  C   UNL     1       5.517   5.715  14.460  0.00  0.00    +0.000 C 
ATOM     12  C   UNL     1       7.761   5.220  13.510  0.00  0.00    +0.000 C 
ATOM     13  C   UNL     1       6.004   3.478  13.345  0.00  0.00    +0.000 C 
ENDBRANCH   9  10
ENDBRANCH   6   9
ENDBRANCH   3   5
BRANCH   1  14
ATOM     14  C   UNL     1       1.402   3.849  18.062  0.00  0.00    +0.000 C 
BRANCH  14  15
ATOM     15  C   UNL     1       0.980   2.578  18.809  0.00  0.00    +0.000 C 
BRANCH  15  17
ATOM     16  C   UNL     1       1.309   2.798  21.132  0.00  0.00    +0.000 C 
ATOM     17  O   UNL     1       1.872   2.343  19.906  0.00  0.00    +0.000 OA
ENDBRANCH  15  17
ENDBRANCH  14  15
ENDBRANCH   1  14
BRANCH   2  18
ATOM     18  C   UNL     1       3.280   5.606  19.764  0.00  0.00    +0.000 C 
BRANCH  18  19
ATOM     19  C   UNL     1       2.569   6.916  19.512  0.00  0.00    +0.000 A 
ATOM     20  C   UNL     1       1.865   7.588  20.520  0.00  0.00    +0.000 A 
ATOM     21  C   UNL     1       1.159   8.758  20.229  0.00  0.00    +0.000 A 
ATOM     22  C   UNL     1       1.177   9.276  18.936  0.00  0.00    +0.000 A 
ATOM     23 CL   UNL     1       0.227  10.658  18.552  0.00  0.00    +0.000 Cl
ATOM     24  C   UNL     1       1.947   8.673  17.946  0.00  0.00    +0.000 A 
ATOM     25  C   UNL     1       2.652   7.504  18.238  0.00  0.00    +0.000 A 
ENDBRANCH  18  19
ENDBRANCH   2  18
TORSDOF 8
ENDMDL
MODEL 7
REMARK VINA RESULT:      -6.3      4.130      6.120
REMARK  Name = 
REMARK  12 active torsions:
REMARK  status: ('A' for Active; 'I' for Inactive)
REMARK    1  A    between atoms: C_1  and  O_2
REMARK    2  A    between atoms: O_2  and  C_3
REMARK    3  A    between atoms: C_3  and  C_4
REMARK    4  A    between atoms: C_4  and  N_5
REMARK    5  A    between atoms: C_6  and  C_7
REMARK    6  A    between atoms: C_7  and  C_8
REMARK    7  A    between atoms: N_15  and  N_16
REMARK    8  A    between atoms: C_17  and  O_19
REMARK    9  A    between atoms: O_19  and  C_20
REMARK   10  A    between atoms: C_20  and  C_21
REMARK   11  A    between atoms: C_20  and  C_22
REMARK   12  A    between atoms: C_20  and  C_23
REMARK                            x       y       z     vdW  Elec       q    Type
REMARK                         _______ _______ _______ _____ _____    ______ ____
ROOT
ATOM      1  N   UNL     1       1.935   5.592  20.271  0.00  0.00    +0.000 N 
ATOM      2  C   UNL     1       2.952   6.208  19.560  0.00  0.00    +0.000 C 
ATOM      3  N   UNL     1       2.868   7.386  19.025  0.00  0.00    +0.000 NA
ATOM      4  H   UNL     1       1.250   6.245  20.625  0.00  0.00    +0.000 HD
ENDROOT
BRANCH   3   5
ATOM      5  N   UNL     1       1.712   8.104  19.107  0.00  0.00    +0.000 N 
ATOM      6  C   UNL     1       1.482   9.091  18.177  0.00  0.00    +0.000 C 
ATOM      7  O   UNL     1       2.228   9.367  17.244  0.00  0.00    +0.000 OA
ATOM      8  H   UNL     1       1.011   7.901  19.798  0.00  0.00    +0.000 HD
BRANCH   6   9
ATOM      9  O   UNL     1       0.309   9.735  18.442  0.00  0.00    +0.000 OA
BRANCH   9  10
ATOM     10  C   UNL     1       0.350  10.991  19.176  0.00  0.00    +0.000 C 
ATOM     11  C   UNL     1       1.614  11.787  18.829  0.00  0.00    +0.000 C 
ATOM     12  C   UNL     1      -0.869  11.803  18.706  0.00  0.00    +0.000 C 
ATOM     13  C   UNL     1       0.204  10.766  20.687  0.00  0.00    +0.000 C 
ENDBRANCH   9  10
ENDBRANCH   6   9
ENDBRANCH   3   5
BRANCH   1  14
ATOM     14  C   UNL     1       2.089   4.485  21.208  0.00  0.00    +0.000 C 
BRANCH  14  15
ATOM     15  C   UNL     1       1.184   3.305  20.837  0.00  0.00    +0.000 C 
BRANCH  15  17
ATOM     16  C   UNL     1       1.064   2.405  18.663  0.00  0.00    +0.000 C 
ATOM     17  O   UNL     1       1.835   2.487  19.857  0.00  0.00    +0.000 OA
ENDBRANCH  15  17
ENDBRANCH  14  15
ENDBRANCH   1  14
BRANCH   2  18
ATOM     18  C   UNL     1       4.335   5.553  19.384  0.00  0.00    +0.000 C 
BRANCH  18  19
ATOM     19  C   UNL     1       4.738   5.202  17.970  0.00  0.00    +0.000 A 
ATOM     20  C   UNL     1       4.271   4.050  17.326  0.00  0.00    +0.000 A 
ATOM     21  C   UNL     1       4.725   3.723  16.045  0.00  0.00    +0.000 A 
ATOM     22  C   UNL     1       5.624   4.562  15.392  0.00  0.00    +0.000 A 
ATOM     23 CL   UNL     1       6.262   4.111  13.860  0.00  0.00    +0.000 Cl
ATOM     24  C   UNL     1       6.025   5.759  15.981  0.00  0.00    +0.000 A 
ATOM     25  C   UNL     1       5.572   6.084  17.260  0.00  0.00    +0.000 A 
ENDBRANCH  18  19
ENDBRANCH   2  18
TORSDOF 8
ENDMDL
MODEL 8
REMARK VINA RESULT:      -6.3      3.893      7.835
REMARK  Name = 
REMARK  12 active torsions:
REMARK  status: ('A' for Active; 'I' for Inactive)
REMARK    1  A    between atoms: C_1  and  O_2
REMARK    2  A    between atoms: O_2  and  C_3
REMARK    3  A    between atoms: C_3  and  C_4
REMARK    4  A    between atoms: C_4  and  N_5
REMARK    5  A    between atoms: C_6  and  C_7
REMARK    6  A    between atoms: C_7  and  C_8
REMARK    7  A    between atoms: N_15  and  N_16
REMARK    8  A    between atoms: C_17  and  O_19
REMARK    9  A    between atoms: O_19  and  C_20
REMARK   10  A    between atoms: C_20  and  C_21
REMARK   11  A    between atoms: C_20  and  C_22
REMARK   12  A    between atoms: C_20  and  C_23
REMARK                            x       y       z     vdW  Elec       q    Type
REMARK                         _______ _______ _______ _____ _____    ______ ____
ROOT
ATOM      1  N   UNL     1       6.538   6.199  15.851  0.00  0.00    +0.000 N 
ATOM      2  C   UNL     1       6.807   6.064  17.203  0.00  0.00    +0.000 C 
ATOM      3  N   UNL     1       7.248   7.016  17.965  0.00  0.00    +0.000 NA
ATOM      4  H   UNL     1       6.393   7.159  15.572  0.00  0.00    +0.000 HD
ENDROOT
BRANCH   3   5
ATOM      5  N   UNL     1       7.515   8.250  17.449  0.00  0.00    +0.000 N 
ATOM      6  C   UNL     1       8.382   9.074  18.128  0.00  0.00    +0.000 C 
ATOM      7  O   UNL     1       8.969   8.780  19.163  0.00  0.00    +0.000 OA
ATOM      8  H   UNL     1       7.131   8.550  16.570  0.00  0.00    +0.000 HD
BRANCH   6   9
ATOM      9  O   UNL     1       8.490  10.280  17.497  0.00  0.00    +0.000 OA
BRANCH   9  10
ATOM     10  C   UNL     1       9.248  11.342  18.141  0.00  0.00    +0.000 C 
ATOM     11  C   UNL     1      10.710  11.328  17.680  0.00  0.00    +0.000 C 
ATOM     12  C   UNL     1       8.613  12.664  17.675  0.00  0.00    +0.000 C 
ATOM     13  C   UNL     1       9.120  11.279  19.668  0.00  0.00    +0.000 C 
ENDBRANCH   9  10
ENDBRANCH   6   9
ENDBRANCH   3   5
BRANCH   1  14
ATOM     14  C   UNL     1       5.691   5.321  15.052  0.00  0.00    +0.000 C 
BRANCH  14  15
ATOM     15  C   UNL     1       6.473   4.111  14.528  0.00  0.00    +0.000 C 
BRANCH  15  17
ATOM     16  C   UNL     1       5.993   3.378  12.340  0.00  0.00    +0.000 C 
ATOM     17  O   UNL     1       6.753   4.284  13.133  0.00  0.00    +0.000 OA
ENDBRANCH  15  17
ENDBRANCH  14  15
ENDBRANCH   1  14
BRANCH   2  18
ATOM     18  C   UNL     1       6.545   4.748  17.959  0.00  0.00    +0.000 C 
BRANCH  18  19
ATOM     19  C   UNL     1       5.136   4.529  18.461  0.00  0.00    +0.000 A 
ATOM     20  C   UNL     1       4.518   5.412  19.356  0.00  0.00    +0.000 A 
ATOM     21  C   UNL     1       3.243   5.135  19.853  0.00  0.00    +0.000 A 
ATOM     22  C   UNL     1       2.567   3.991  19.435  0.00  0.00    +0.000 A 
ATOM     23 CL   UNL     1       1.040   3.597  20.122  0.00  0.00    +0.000 Cl
ATOM     24  C   UNL     1       3.128   3.154  18.474  0.00  0.00    +0.000 A 
ATOM     25  C   UNL     1       4.403   3.431  17.979  0.00  0.00    +0.000 A 
ENDBRANCH  18  19
ENDBRANCH   2  18
TORSDOF 8
ENDMDL
MODEL 9
REMARK VINA RESULT:      -6.3      3.922      5.918
REMARK  Name = 
REMARK  12 active torsions:
REMARK  status: ('A' for Active; 'I' for Inactive)
REMARK    1  A    between atoms: C_1  and  O_2
REMARK    2  A    between atoms: O_2  and  C_3
REMARK    3  A    between atoms: C_3  and  C_4
REMARK    4  A    between atoms: C_4  and  N_5
REMARK    5  A    between atoms: C_6  and  C_7
REMARK    6  A    between atoms: C_7  and  C_8
REMARK    7  A    between atoms: N_15  and  N_16
REMARK    8  A    between atoms: C_17  and  O_19
REMARK    9  A    between atoms: O_19  and  C_20
REMARK   10  A    between atoms: C_20  and  C_21
REMARK   11  A    between atoms: C_20  and  C_22
REMARK   12  A    between atoms: C_20  and  C_23
REMARK                            x       y       z     vdW  Elec       q    Type
REMARK                         _______ _______ _______ _____ _____    ______ ____
ROOT
ATOM      1  N   UNL     1       1.861   4.994  19.303  0.00  0.00    +0.000 N 
ATOM      2  C   UNL     1       2.990   5.772  19.103  0.00  0.00    +0.000 C 
ATOM      3  N   UNL     1       2.973   7.044  18.847  0.00  0.00    +0.000 NA
ATOM      4  H   UNL     1       1.049   5.537  19.561  0.00  0.00    +0.000 HD
ENDROOT
BRANCH   3   5
ATOM      5  N   UNL     1       1.789   7.710  18.722  0.00  0.00    +0.000 N 
ATOM      6  C   UNL     1       1.748   8.837  17.935  0.00  0.00    +0.000 C 
ATOM      7  O   UNL     1       2.695   9.288  17.301  0.00  0.00    +0.000 OA
ATOM      8  H   UNL     1       0.946   7.374  19.152  0.00  0.00    +0.000 HD
BRANCH   6   9
ATOM      9  O   UNL     1       0.505   9.399  17.967  0.00  0.00    +0.000 OA
BRANCH   9  10
ATOM     10  C   UNL     1       0.245  10.471  18.916  0.00  0.00    +0.000 C 
ATOM     11  C   UNL     1       1.363  11.520  18.877  0.00  0.00    +0.000 C 
ATOM     12  C   UNL     1      -1.059  11.145  18.455  0.00  0.00    +0.000 C 
ATOM     13  C   UNL     1       0.012   9.926  20.332  0.00  0.00    +0.000 C 
ENDBRANCH   9  10
ENDBRANCH   6   9
ENDBRANCH   3   5
BRANCH   1  14
ATOM     14  C   UNL     1       1.818   3.698  19.968  0.00  0.00    +0.000 C 
BRANCH  14  15
ATOM     15  C   UNL     1       1.208   2.622  19.062  0.00  0.00    +0.000 C 
BRANCH  15  17
ATOM     16  C   UNL     1       3.293   1.661  18.533  0.00  0.00    +0.000 C 
ATOM     17  O   UNL     1       2.129   2.294  18.014  0.00  0.00    +0.000 OA
ENDBRANCH  15  17
ENDBRANCH  14  15
ENDBRANCH   1  14
BRANCH   2  18
ATOM     18  C   UNL     1       4.412   5.193  19.226  0.00  0.00    +0.000 C 
BRANCH  18  19
ATOM     19  C   UNL     1       5.201   5.070  17.943  0.00  0.00    +0.000 A 
ATOM     20  C   UNL     1       6.566   5.378  17.875  0.00  0.00    +0.000 A 
ATOM     21  C   UNL     1       7.243   5.323  16.654  0.00  0.00    +0.000 A 
ATOM     22  C   UNL     1       6.565   4.930  15.502  0.00  0.00    +0.000 A 
ATOM     23 CL   UNL     1       7.370   4.959  13.982  0.00  0.00    +0.000 Cl
ATOM     24  C   UNL     1       5.234   4.530  15.570  0.00  0.00    +0.000 A 
ATOM     25  C   UNL     1       4.558   4.587  16.790  0.00  0.00    +0.000 A 
ENDBRANCH  18  19
ENDBRANCH   2  18
TORSDOF 8
ENDMDL
