MODEL 1
REMARK VINA RESULT:      -8.3      0.000      0.000
REMARK  Name = 
REMARK  5 active torsions:
REMARK  status: ('A' for Active; 'I' for Inactive)
REMARK    1  A    between atoms: C_2  and  C_10
REMARK    2  A    between atoms: N_3  and  C_4
REMARK    3  A    between atoms: C_4  and  C_5
REMARK    4  A    between atoms: C_14  and  C_15
REMARK    5  A    between atoms: C_20  and  C_21
REMARK                            x       y       z     vdW  Elec       q    Type
REMARK                         _______ _______ _______ _____ _____    ______ ____
ROOT
ATOM      1  C   UNL     1       4.416   4.553  17.704  0.00  0.00    +0.000 A 
ATOM      2  C   UNL     1       4.480   3.165  17.914  0.00  0.00    +0.000 A 
ATOM      3  N   UNL     1       3.703   2.753  18.911  0.00  0.00    +0.000 NA
ATOM      4  N   UNL     1       3.121   3.875  19.391  0.00  0.00    +0.000 N 
ATOM      5  C   UNL     1       2.257   4.010  20.467  0.00  0.00    +0.000 A 
ATOM      6  C   UNL     1       1.783   5.233  20.784  0.00  0.00    +0.000 A 
ATOM      7  C   UNL     1       2.214   6.384  19.932  0.00  0.00    +0.000 A 
ATOM      8  N   UNL     1       3.019   6.258  18.909  0.00  0.00    +0.000 NA
ATOM      9  C   UNL     1       3.507   5.000  18.646  0.00  0.00    +0.000 A 
ENDROOT
BRANCH   7  10
ATOM     10  C   UNL     1       1.697   7.714  20.237  0.00  0.00    +0.000 A 
ATOM     11  C   UNL     1       1.262   8.203  21.456  0.00  0.00    +0.000 A 
ATOM     12  C   UNL     1       0.817   9.557  21.378  0.00  0.00    +0.000 A 
ATOM     13  C   UNL     1       0.897  10.051  20.097  0.00  0.00    +0.000 A 
ATOM     14  S   UNL     1       1.506   8.894  19.003  0.00  0.00    +0.000 S 
ENDBRANCH   7  10
BRANCH   1  16
ATOM     15  O   UNL     1       4.716   6.372  16.263  0.00  0.00    +0.000 OA
ATOM     16  C   UNL     1       5.140   5.309  16.704  0.00  0.00    +0.000 C 
ATOM     17  N   UNL     1       6.324   4.745  16.304  0.00  0.00    +0.000 N 
ATOM     18  H   UNL     1       6.539   3.803  16.619  0.00  0.00    +0.000 HD
BRANCH  17  19
ATOM     19  C   UNL     1       7.181   5.358  15.325  0.00  0.00    +0.000 C 
BRANCH  19  20
ATOM     20  C   UNL     1       6.958   4.716  14.011  0.00  0.00    +0.000 A 
ATOM     21  C   UNL     1       6.118   3.709  13.581  0.00  0.00    +0.000 A 
ATOM     22  C   UNL     1       6.359   3.555  12.195  0.00  0.00    +0.000 A 
ATOM     23  C   UNL     1       7.337   4.465  11.871  0.00  0.00    +0.000 A 
ATOM     24  O   UNL     1       7.709   5.176  12.968  0.00  0.00    +0.000 OA
ENDBRANCH  19  20
ENDBRANCH  17  19
ENDBRANCH   1  16
BRANCH   5  25
ATOM     25  C   UNL     1       1.868   2.813  21.247  0.00  0.00    +0.000 C 
ATOM     26  F   UNL     1       1.360   1.769  20.554  0.00  0.00    +0.000 F 
ATOM     27  F   UNL     1       2.933   2.329  21.938  0.00  0.00    +0.000 F 
ATOM     28  F   UNL     1       0.935   3.139  22.185  0.00  0.00    +0.000 F 
ENDBRANCH   5  25
TORSDOF 5
ENDMDL
MODEL 2
REMARK VINA RESULT:      -8.3      1.043      1.432
REMARK  Name = 
REMARK  5 active torsions:
REMARK  status: ('A' for Active; 'I' for Inactive)
REMARK    1  A    between atoms: C_2  and  C_10
REMARK    2  A    between atoms: N_3  and  C_4
REMARK    3  A    between atoms: C_4  and  C_5
REMARK    4  A    between atoms: C_14  and  C_15
REMARK    5  A    between atoms: C_20  and  C_21
REMARK                            x       y       z     vdW  Elec       q    Type
REMARK                         _______ _______ _______ _____ _____    ______ ____
ROOT
ATOM      1  C   UNL     1       4.508   4.234  17.219  0.00  0.00    +0.000 A 
ATOM      2  C   UNL     1       4.611   2.891  17.621  0.00  0.00    +0.000 A 
ATOM      3  N   UNL     1       3.919   2.624  18.725  0.00  0.00    +0.000 NA
ATOM      4  N   UNL     1       3.357   3.800  19.082  0.00  0.00    +0.000 N 
ATOM      5  C   UNL     1       2.576   4.085  20.191  0.00  0.00    +0.000 A 
ATOM      6  C   UNL     1       2.107   5.339  20.364  0.00  0.00    +0.000 A 
ATOM      7  C   UNL     1       2.453   6.356  19.324  0.00  0.00    +0.000 A 
ATOM      8  N   UNL     1       3.178   6.088  18.271  0.00  0.00    +0.000 NA
ATOM      9  C   UNL     1       3.666   4.808  18.154  0.00  0.00    +0.000 A 
ENDROOT
BRANCH   7  10
ATOM     10  C   UNL     1       1.937   7.713  19.474  0.00  0.00    +0.000 A 
ATOM     11  C   UNL     1       1.384   8.298  20.599  0.00  0.00    +0.000 A 
ATOM     12  C   UNL     1       0.984   9.650  20.376  0.00  0.00    +0.000 A 
ATOM     13  C   UNL     1       1.216  10.047  19.080  0.00  0.00    +0.000 A 
ATOM     14  S   UNL     1       1.913   8.802  18.146  0.00  0.00    +0.000 S 
ENDBRANCH   7  10
BRANCH   1  16
ATOM     15  O   UNL     1       5.030   6.038  15.823  0.00  0.00    +0.000 OA
ATOM     16  C   UNL     1       5.140   4.841  16.067  0.00  0.00    +0.000 C 
ATOM     17  N   UNL     1       5.867   3.976  15.289  0.00  0.00    +0.000 N 
ATOM     18  H   UNL     1       5.801   2.981  15.485  0.00  0.00    +0.000 HD
BRANCH  17  19
ATOM     19  C   UNL     1       6.571   4.402  14.109  0.00  0.00    +0.000 C 
BRANCH  19  20
ATOM     20  C   UNL     1       6.051   3.663  12.937  0.00  0.00    +0.000 A 
ATOM     21  C   UNL     1       6.625   2.779  12.046  0.00  0.00    +0.000 A 
ATOM     22  C   UNL     1       5.600   2.397  11.149  0.00  0.00    +0.000 A 
ATOM     23  C   UNL     1       4.472   3.079  11.541  0.00  0.00    +0.000 A 
ATOM     24  O   UNL     1       4.736   3.853  12.626  0.00  0.00    +0.000 OA
ENDBRANCH  19  20
ENDBRANCH  17  19
ENDBRANCH   1  16
BRANCH   5  25
ATOM     25  C   UNL     1       2.268   3.011  21.163  0.00  0.00    +0.000 C 
ATOM     26  F   UNL     1       3.311   2.288  21.627  0.00  0.00    +0.000 F 
ATOM     27  F   UNL     1       1.644   3.524  22.255  0.00  0.00    +0.000 F 
ATOM     28  F   UNL     1       1.393   2.117  20.623  0.00  0.00    +0.000 F 
ENDBRANCH   5  25
TORSDOF 5
ENDMDL
MODEL 3
REMARK VINA RESULT:      -8.2      0.582      1.035
REMARK  Name = 
REMARK  5 active torsions:
REMARK  status: ('A' for Active; 'I' for Inactive)
REMARK    1  A    between atoms: C_2  and  C_10
REMARK    2  A    between atoms: N_3  and  C_4
REMARK    3  A    between atoms: C_4  and  C_5
REMARK    4  A    between atoms: C_14  and  C_15
REMARK    5  A    between atoms: C_20  and  C_21
REMARK                            x       y       z     vdW  Elec       q    Type
REMARK                         _______ _______ _______ _____ _____    ______ ____
ROOT
ATOM      1  C   UNL     1       4.456   4.672  17.600  0.00  0.00    +0.000 A 
ATOM      2  C   UNL     1       4.537   3.283  17.799  0.00  0.00    +0.000 A 
ATOM      3  N   UNL     1       3.765   2.855  18.793  0.00  0.00    +0.000 NA
ATOM      4  N   UNL     1       3.170   3.966  19.282  0.00  0.00    +0.000 N 
ATOM      5  C   UNL     1       2.305   4.082  20.359  0.00  0.00    +0.000 A 
ATOM      6  C   UNL     1       1.816   5.297  20.685  0.00  0.00    +0.000 A 
ATOM      7  C   UNL     1       2.234   6.460  19.842  0.00  0.00    +0.000 A 
ATOM      8  N   UNL     1       3.039   6.351  18.818  0.00  0.00    +0.000 NA
ATOM      9  C   UNL     1       3.542   5.101  18.545  0.00  0.00    +0.000 A 
ENDROOT
BRANCH   7  10
ATOM     10  C   UNL     1       1.701   7.781  20.158  0.00  0.00    +0.000 A 
ATOM     11  C   UNL     1       1.219   8.241  21.370  0.00  0.00    +0.000 A 
ATOM     12  C   UNL     1       0.773   9.595  21.307  0.00  0.00    +0.000 A 
ATOM     13  C   UNL     1       0.899  10.119  20.041  0.00  0.00    +0.000 A 
ATOM     14  S   UNL     1       1.552   8.988  18.945  0.00  0.00    +0.000 S 
ENDBRANCH   7  10
BRANCH   1  16
ATOM     15  O   UNL     1       4.843   6.591  16.317  0.00  0.00    +0.000 OA
ATOM     16  C   UNL     1       5.171   5.444  16.605  0.00  0.00    +0.000 C 
ATOM     17  N   UNL     1       6.232   4.795  16.029  0.00  0.00    +0.000 N 
ATOM     18  H   UNL     1       6.356   3.806  16.226  0.00  0.00    +0.000 HD
BRANCH  17  19
ATOM     19  C   UNL     1       7.062   5.409  15.027  0.00  0.00    +0.000 C 
BRANCH  19  20
ATOM     20  C   UNL     1       6.892   4.690  13.745  0.00  0.00    +0.000 A 
ATOM     21  C   UNL     1       7.593   4.699  12.556  0.00  0.00    +0.000 A 
ATOM     22  C   UNL     1       6.944   3.773  11.705  0.00  0.00    +0.000 A 
ATOM     23  C   UNL     1       5.885   3.269  12.422  0.00  0.00    +0.000 A 
ATOM     24  O   UNL     1       5.843   3.820  13.663  0.00  0.00    +0.000 OA
ENDBRANCH  19  20
ENDBRANCH  17  19
ENDBRANCH   1  16
BRANCH   5  25
ATOM     25  C   UNL     1       1.930   2.875  21.129  0.00  0.00    +0.000 C 
ATOM     26  F   UNL     1       0.941   3.012  22.041  0.00  0.00    +0.000 F 
ATOM     27  F   UNL     1       1.540   1.879  20.292  0.00  0.00    +0.000 F 
ATOM     28  F   UNL     1       3.009   2.388  21.805  0.00  0.00    +0.000 F 
ENDBRANCH   5  25
TORSDOF 5
ENDMDL
MODEL 4
REMARK VINA RESULT:      -8.1      1.291      1.684
REMARK  Name = 
REMARK  5 active torsions:
REMARK  status: ('A' for Active; 'I' for Inactive)
REMARK    1  A    between atoms: C_2  and  C_10
REMARK    2  A    between atoms: N_3  and  C_4
REMARK    3  A    between atoms: C_4  and  C_5
REMARK    4  A    between atoms: C_14  and  C_15
REMARK    5  A    between atoms: C_20  and  C_21
REMARK                            x       y       z     vdW  Elec       q    Type
REMARK                         _______ _______ _______ _____ _____    ______ ____
ROOT
ATOM      1  C   UNL     1       5.231   4.018  18.492  0.00  0.00    +0.000 A 
ATOM      2  C   UNL     1       5.058   2.712  18.980  0.00  0.00    +0.000 A 
ATOM      3  N   UNL     1       3.913   2.549  19.635  0.00  0.00    +0.000 NA
ATOM      4  N   UNL     1       3.314   3.760  19.606  0.00  0.00    +0.000 N 
ATOM      5  C   UNL     1       2.118   4.150  20.188  0.00  0.00    +0.000 A 
ATOM      6  C   UNL     1       1.693   5.422  20.036  0.00  0.00    +0.000 A 
ATOM      7  C   UNL     1       2.545   6.343  19.224  0.00  0.00    +0.000 A 
ATOM      8  N   UNL     1       3.667   5.976  18.663  0.00  0.00    +0.000 NA
ATOM      9  C   UNL     1       4.080   4.682  18.875  0.00  0.00    +0.000 A 
ENDROOT
BRANCH   7  10
ATOM     10  C   UNL     1       2.096   7.718  19.023  0.00  0.00    +0.000 A 
ATOM     11  C   UNL     1       2.258   8.515  17.904  0.00  0.00    +0.000 A 
ATOM     12  C   UNL     1       1.689   9.813  18.066  0.00  0.00    +0.000 A 
ATOM     13  C   UNL     1       1.136   9.979  19.314  0.00  0.00    +0.000 A 
ATOM     14  S   UNL     1       1.299   8.581  20.276  0.00  0.00    +0.000 S 
ENDBRANCH   7  10
BRANCH   1  16
ATOM     15  O   UNL     1       7.508   4.463  18.187  0.00  0.00    +0.000 OA
ATOM     16  C   UNL     1       6.366   4.516  17.744  0.00  0.00    +0.000 C 
ATOM     17  N   UNL     1       6.058   5.038  16.514  0.00  0.00    +0.000 N 
ATOM     18  H   UNL     1       5.078   5.164  16.276  0.00  0.00    +0.000 HD
BRANCH  17  19
ATOM     19  C   UNL     1       7.057   5.571  15.627  0.00  0.00    +0.000 C 
BRANCH  19  20
ATOM     20  C   UNL     1       6.944   4.908  14.309  0.00  0.00    +0.000 A 
ATOM     21  C   UNL     1       6.188   3.851  13.844  0.00  0.00    +0.000 A 
ATOM     22  C   UNL     1       6.512   3.702  12.475  0.00  0.00    +0.000 A 
ATOM     23  C   UNL     1       7.451   4.666  12.195  0.00  0.00    +0.000 A 
ATOM     24  O   UNL     1       7.722   5.404  13.303  0.00  0.00    +0.000 OA
ENDBRANCH  19  20
ENDBRANCH  17  19
ENDBRANCH   1  16
BRANCH   5  25
ATOM     25  C   UNL     1       1.328   3.166  20.963  0.00  0.00    +0.000 C 
ATOM     26  F   UNL     1       1.453   3.204  22.309  0.00  0.00    +0.000 F 
ATOM     27  F   UNL     1       0.003   3.307  20.699  0.00  0.00    +0.000 F 
ATOM     28  F   UNL     1       1.647   1.896  20.585  0.00  0.00    +0.000 F 
ENDBRANCH   5  25
TORSDOF 5
ENDMDL
MODEL 5
REMARK VINA RESULT:      -8.1      0.633      1.089
REMARK  Name = 
REMARK  5 active torsions:
REMARK  status: ('A' for Active; 'I' for Inactive)
REMARK    1  A    between atoms: C_2  and  C_10
REMARK    2  A    between atoms: N_3  and  C_4
REMARK    3  A    between atoms: C_4  and  C_5
REMARK    4  A    between atoms: C_14  and  C_15
REMARK    5  A    between atoms: C_20  and  C_21
REMARK                            x       y       z     vdW  Elec       q    Type
REMARK                         _______ _______ _______ _____ _____    ______ ____
ROOT
ATOM      1  C   UNL     1       4.465   4.619  17.678  0.00  0.00    +0.000 A 
ATOM      2  C   UNL     1       4.550   3.243  17.949  0.00  0.00    +0.000 A 
ATOM      3  N   UNL     1       3.768   2.862  18.955  0.00  0.00    +0.000 NA
ATOM      4  N   UNL     1       3.162   3.993  19.379  0.00  0.00    +0.000 N 
ATOM      5  C   UNL     1       2.284   4.160  20.438  0.00  0.00    +0.000 A 
ATOM      6  C   UNL     1       1.786   5.388  20.696  0.00  0.00    +0.000 A 
ATOM      7  C   UNL     1       2.208   6.508  19.799  0.00  0.00    +0.000 A 
ATOM      8  N   UNL     1       3.026   6.351  18.792  0.00  0.00    +0.000 NA
ATOM      9  C   UNL     1       3.538   5.092  18.589  0.00  0.00    +0.000 A 
ENDROOT
BRANCH   7  10
ATOM     10  C   UNL     1       1.665   7.841  20.040  0.00  0.00    +0.000 A 
ATOM     11  C   UNL     1       1.513   8.878  19.137  0.00  0.00    +0.000 A 
ATOM     12  C   UNL     1       0.946  10.045  19.730  0.00  0.00    +0.000 A 
ATOM     13  C   UNL     1       0.711   9.875  21.075  0.00  0.00    +0.000 A 
ATOM     14  S   UNL     1       1.165   8.322  21.611  0.00  0.00    +0.000 S 
ENDBRANCH   7  10
BRANCH   1  16
ATOM     15  O   UNL     1       4.813   6.437  16.247  0.00  0.00    +0.000 OA
ATOM     16  C   UNL     1       5.188   5.343  16.653  0.00  0.00    +0.000 C 
ATOM     17  N   UNL     1       6.313   4.711  16.190  0.00  0.00    +0.000 N 
ATOM     18  H   UNL     1       6.482   3.752  16.482  0.00  0.00    +0.000 HD
BRANCH  17  19
ATOM     19  C   UNL     1       7.161   5.284  15.179  0.00  0.00    +0.000 C 
BRANCH  19  20
ATOM     20  C   UNL     1       6.895   4.616  13.885  0.00  0.00    +0.000 A 
ATOM     21  C   UNL     1       5.997   3.647  13.487  0.00  0.00    +0.000 A 
ATOM     22  C   UNL     1       6.222   3.438  12.106  0.00  0.00    +0.000 A 
ATOM     23  C   UNL     1       7.249   4.282  11.752  0.00  0.00    +0.000 A 
ATOM     24  O   UNL     1       7.666   5.002  12.826  0.00  0.00    +0.000 OA
ENDBRANCH  19  20
ENDBRANCH  17  19
ENDBRANCH   1  16
BRANCH   5  25
ATOM     25  C   UNL     1       1.905   2.992  21.265  0.00  0.00    +0.000 C 
ATOM     26  F   UNL     1       0.984   3.199  22.233  0.00  0.00    +0.000 F 
ATOM     27  F   UNL     1       1.418   1.994  20.483  0.00  0.00    +0.000 F 
ATOM     28  F   UNL     1       3.002   2.474  21.886  0.00  0.00    +0.000 F 
ENDBRANCH   5  25
TORSDOF 5
ENDMDL
MODEL 6
REMARK VINA RESULT:      -8.0      1.191      1.686
REMARK  Name = 
REMARK  5 active torsions:
REMARK  status: ('A' for Active; 'I' for Inactive)
REMARK    1  A    between atoms: C_2  and  C_10
REMARK    2  A    between atoms: N_3  and  C_4
REMARK    3  A    between atoms: C_4  and  C_5
REMARK    4  A    between atoms: C_14  and  C_15
REMARK    5  A    between atoms: C_20  and  C_21
REMARK                            x       y       z     vdW  Elec       q    Type
REMARK                         _______ _______ _______ _____ _____    ______ ____
ROOT
ATOM      1  C   UNL     1       4.498   4.206  17.214  0.00  0.00    +0.000 A 
ATOM      2  C   UNL     1       4.591   2.868  17.631  0.00  0.00    +0.000 A 
ATOM      3  N   UNL     1       3.884   2.614  18.728  0.00  0.00    +0.000 NA
ATOM      4  N   UNL     1       3.320   3.795  19.066  0.00  0.00    +0.000 N 
ATOM      5  C   UNL     1       2.525   4.093  20.161  0.00  0.00    +0.000 A 
ATOM      6  C   UNL     1       2.058   5.350  20.315  0.00  0.00    +0.000 A 
ATOM      7  C   UNL     1       2.421   6.356  19.270  0.00  0.00    +0.000 A 
ATOM      8  N   UNL     1       3.160   6.075  18.229  0.00  0.00    +0.000 NA
ATOM      9  C   UNL     1       3.645   4.792  18.132  0.00  0.00    +0.000 A 
ENDROOT
BRANCH   7  10
ATOM     10  C   UNL     1       1.908   7.716  19.399  0.00  0.00    +0.000 A 
ATOM     11  C   UNL     1       1.868   8.710  18.437  0.00  0.00    +0.000 A 
ATOM     12  C   UNL     1       1.296   9.923  18.923  0.00  0.00    +0.000 A 
ATOM     13  C   UNL     1       0.944   9.830  20.249  0.00  0.00    +0.000 A 
ATOM     14  S   UNL     1       1.297   8.293  20.897  0.00  0.00    +0.000 S 
ENDBRANCH   7  10
BRANCH   1  16
ATOM     15  O   UNL     1       5.219   6.015  15.917  0.00  0.00    +0.000 OA
ATOM     16  C   UNL     1       5.147   4.800  16.065  0.00  0.00    +0.000 C 
ATOM     17  N   UNL     1       5.672   3.899  15.174  0.00  0.00    +0.000 N 
ATOM     18  H   UNL     1       5.457   2.914  15.302  0.00  0.00    +0.000 HD
BRANCH  17  19
ATOM     19  C   UNL     1       6.361   4.306  13.979  0.00  0.00    +0.000 C 
BRANCH  19  20
ATOM     20  C   UNL     1       5.816   3.559  12.823  0.00  0.00    +0.000 A 
ATOM     21  C   UNL     1       4.602   3.584  12.168  0.00  0.00    +0.000 A 
ATOM     22  C   UNL     1       4.696   2.640  11.118  0.00  0.00    +0.000 A 
ATOM     23  C   UNL     1       5.954   2.091  11.207  0.00  0.00    +0.000 A 
ATOM     24  O   UNL     1       6.643   2.641  12.241  0.00  0.00    +0.000 OA
ENDBRANCH  19  20
ENDBRANCH  17  19
ENDBRANCH   1  16
BRANCH   5  25
ATOM     25  C   UNL     1       2.201   3.030  21.140  0.00  0.00    +0.000 C 
ATOM     26  F   UNL     1       1.560   3.412  22.268  0.00  0.00    +0.000 F 
ATOM     27  F   UNL     1       1.424   2.076  20.565  0.00  0.00    +0.000 F 
ATOM     28  F   UNL     1       3.336   2.392  21.542  0.00  0.00    +0.000 F 
ENDBRANCH   5  25
TORSDOF 5
ENDMDL
MODEL 7
REMARK VINA RESULT:      -8.0      0.846      1.326
REMARK  Name = 
REMARK  5 active torsions:
REMARK  status: ('A' for Active; 'I' for Inactive)
REMARK    1  A    between atoms: C_2  and  C_10
REMARK    2  A    between atoms: N_3  and  C_4
REMARK    3  A    between atoms: C_4  and  C_5
REMARK    4  A    between atoms: C_14  and  C_15
REMARK    5  A    between atoms: C_20  and  C_21
REMARK                            x       y       z     vdW  Elec       q    Type
REMARK                         _______ _______ _______ _____ _____    ______ ____
ROOT
ATOM      1  C   UNL     1       4.552   4.650  17.505  0.00  0.00    +0.000 A 
ATOM      2  C   UNL     1       4.635   3.272  17.764  0.00  0.00    +0.000 A 
ATOM      3  N   UNL     1       3.846   2.883  18.761  0.00  0.00    +0.000 NA
ATOM      4  N   UNL     1       3.236   4.010  19.190  0.00  0.00    +0.000 N 
ATOM      5  C   UNL     1       2.350   4.168  20.244  0.00  0.00    +0.000 A 
ATOM      6  C   UNL     1       1.850   5.394  20.509  0.00  0.00    +0.000 A 
ATOM      7  C   UNL     1       2.279   6.521  19.625  0.00  0.00    +0.000 A 
ATOM      8  N   UNL     1       3.104   6.373  18.622  0.00  0.00    +0.000 NA
ATOM      9  C   UNL     1       3.618   5.115  18.413  0.00  0.00    +0.000 A 
ENDROOT
BRANCH   7  10
ATOM     10  C   UNL     1       1.734   7.852  19.873  0.00  0.00    +0.000 A 
ATOM     11  C   UNL     1       1.586   8.896  18.977  0.00  0.00    +0.000 A 
ATOM     12  C   UNL     1       1.014  10.058  19.576  0.00  0.00    +0.000 A 
ATOM     13  C   UNL     1       0.772   9.878  20.918  0.00  0.00    +0.000 A 
ATOM     14  S   UNL     1       1.225   8.321  21.445  0.00  0.00    +0.000 S 
ENDBRANCH   7  10
BRANCH   1  16
ATOM     15  O   UNL     1       4.909   6.480  16.090  0.00  0.00    +0.000 OA
ATOM     16  C   UNL     1       5.282   5.383  16.491  0.00  0.00    +0.000 C 
ATOM     17  N   UNL     1       6.412   4.756  16.033  0.00  0.00    +0.000 N 
ATOM     18  H   UNL     1       6.580   3.796  16.319  0.00  0.00    +0.000 HD
BRANCH  17  19
ATOM     19  C   UNL     1       7.267   5.338  15.033  0.00  0.00    +0.000 C 
BRANCH  19  20
ATOM     20  C   UNL     1       7.018   4.677  13.733  0.00  0.00    +0.000 A 
ATOM     21  C   UNL     1       7.590   4.800  12.483  0.00  0.00    +0.000 A 
ATOM     22  C   UNL     1       6.924   3.874  11.646  0.00  0.00    +0.000 A 
ATOM     23  C   UNL     1       5.981   3.255  12.432  0.00  0.00    +0.000 A 
ATOM     24  O   UNL     1       6.029   3.736  13.702  0.00  0.00    +0.000 OA
ENDBRANCH  19  20
ENDBRANCH  17  19
ENDBRANCH   1  16
BRANCH   5  25
ATOM     25  C   UNL     1       1.966   2.993  21.059  0.00  0.00    +0.000 C 
ATOM     26  F   UNL     1       2.944   2.403  21.782  0.00  0.00    +0.000 F 
ATOM     27  F   UNL     1       0.988   3.325  21.941  0.00  0.00    +0.000 F 
ATOM     28  F   UNL     1       1.436   2.019  20.267  0.00  0.00    +0.000 F 
ENDBRANCH   5  25
TORSDOF 5
ENDMDL
MODEL 8
REMARK VINA RESULT:      -7.9      0.826      1.002
REMARK  Name = 
REMARK  5 active torsions:
REMARK  status: ('A' for Active; 'I' for Inactive)
REMARK    1  A    between atoms: C_2  and  C_10
REMARK    2  A    between atoms: N_3  and  C_4
REMARK    3  A    between atoms: C_4  and  C_5
REMARK    4  A    between atoms: C_14  and  C_15
REMARK    5  A    between atoms: C_20  and  C_21
REMARK                            x       y       z     vdW  Elec       q    Type
REMARK                         _______ _______ _______ _____ _____    ______ ____
ROOT
ATOM      1  C   UNL     1       4.426   4.358  17.378  0.00  0.00    +0.000 A 
ATOM      2  C   UNL     1       4.504   2.992  17.696  0.00  0.00    +0.000 A 
ATOM      3  N   UNL     1       3.778   2.663  18.760  0.00  0.00    +0.000 NA
ATOM      4  N   UNL     1       3.217   3.820  19.175  0.00  0.00    +0.000 N 
ATOM      5  C   UNL     1       2.406   4.043  20.277  0.00  0.00    +0.000 A 
ATOM      6  C   UNL     1       1.944   5.288  20.516  0.00  0.00    +0.000 A 
ATOM      7  C   UNL     1       2.330   6.366  19.554  0.00  0.00    +0.000 A 
ATOM      8  N   UNL     1       3.084   6.157  18.507  0.00  0.00    +0.000 NA
ATOM      9  C   UNL     1       3.562   4.882  18.323  0.00  0.00    +0.000 A 
ENDROOT
BRANCH   7  10
ATOM     10  C   UNL     1       1.824   7.717  19.775  0.00  0.00    +0.000 A 
ATOM     11  C   UNL     1       1.331   8.264  20.947  0.00  0.00    +0.000 A 
ATOM     12  C   UNL     1       0.921   9.622  20.790  0.00  0.00    +0.000 A 
ATOM     13  C   UNL     1       1.083  10.061  19.497  0.00  0.00    +0.000 A 
ATOM     14  S   UNL     1       1.729   8.848  18.486  0.00  0.00    +0.000 S 
ENDBRANCH   7  10
BRANCH   1  16
ATOM     15  O   UNL     1       5.265   6.245  16.277  0.00  0.00    +0.000 OA
ATOM     16  C   UNL     1       5.098   5.030  16.285  0.00  0.00    +0.000 C 
ATOM     17  N   UNL     1       5.531   4.202  15.282  0.00  0.00    +0.000 N 
ATOM     18  H   UNL     1       5.240   3.229  15.302  0.00  0.00    +0.000 HD
BRANCH  17  19
ATOM     19  C   UNL     1       6.226   4.691  14.122  0.00  0.00    +0.000 C 
BRANCH  19  20
ATOM     20  C   UNL     1       5.975   3.780  12.983  0.00  0.00    +0.000 A 
ATOM     21  C   UNL     1       4.828   3.373  12.332  0.00  0.00    +0.000 A 
ATOM     22  C   UNL     1       5.245   2.499  11.300  0.00  0.00    +0.000 A 
ATOM     23  C   UNL     1       6.614   2.419  11.394  0.00  0.00    +0.000 A 
ATOM     24  O   UNL     1       7.069   3.193  12.414  0.00  0.00    +0.000 OA
ENDBRANCH  19  20
ENDBRANCH  17  19
ENDBRANCH   1  16
BRANCH   5  25
ATOM     25  C   UNL     1       2.059   2.913  21.169  0.00  0.00    +0.000 C 
ATOM     26  F   UNL     1       1.488   1.831  20.593  0.00  0.00    +0.000 F 
ATOM     27  F   UNL     1       3.164   2.462  21.817  0.00  0.00    +0.000 F 
ATOM     28  F   UNL     1       1.201   3.325  22.145  0.00  0.00    +0.000 F 
ENDBRANCH   5  25
TORSDOF 5
ENDMDL
MODEL 9
REMARK VINA RESULT:      -7.8      1.115      1.358
REMARK  Name = 
REMARK  5 active torsions:
REMARK  status: ('A' for Active; 'I' for Inactive)
REMARK    1  A    between atoms: C_2  and  C_10
REMARK    2  A    between atoms: N_3  and  C_4
REMARK    3  A    between atoms: C_4  and  C_5
REMARK    4  A    between atoms: C_14  and  C_15
REMARK    5  A    between atoms: C_20  and  C_21
REMARK                            x       y       z     vdW  Elec       q    Type
REMARK                         _______ _______ _______ _____ _____    ______ ____
ROOT
ATOM      1  C   UNL     1       5.314   4.453  18.339  0.00  0.00    +0.000 A 
ATOM      2  C   UNL     1       5.333   3.092  18.687  0.00  0.00    +0.000 A 
ATOM      3  N   UNL     1       4.299   2.734  19.443  0.00  0.00    +0.000 NA
ATOM      4  N   UNL     1       3.583   3.866  19.621  0.00  0.00    +0.000 N 
ATOM      5  C   UNL     1       2.435   4.055  20.375  0.00  0.00    +0.000 A 
ATOM      6  C   UNL     1       1.870   5.279  20.421  0.00  0.00    +0.000 A 
ATOM      7  C   UNL     1       2.519   6.371  19.632  0.00  0.00    +0.000 A 
ATOM      8  N   UNL     1       3.594   6.193  18.910  0.00  0.00    +0.000 NA
ATOM      9  C   UNL     1       4.157   4.940  18.923  0.00  0.00    +0.000 A 
ENDROOT
BRANCH   7  10
ATOM     10  C   UNL     1       1.913   7.699  19.644  0.00  0.00    +0.000 A 
ATOM     11  C   UNL     1       1.829   8.610  18.605  0.00  0.00    +0.000 A 
ATOM     12  C   UNL     1       1.166   9.815  18.983  0.00  0.00    +0.000 A 
ATOM     13  C   UNL     1       0.791   9.802  20.307  0.00  0.00    +0.000 A 
ATOM     14  S   UNL     1       1.231   8.348  21.080  0.00  0.00    +0.000 S 
ENDBRANCH   7  10
BRANCH   1  16
ATOM     15  O   UNL     1       7.080   5.955  18.021  0.00  0.00    +0.000 OA
ATOM     16  C   UNL     1       6.292   5.152  17.533  0.00  0.00    +0.000 C 
ATOM     17  N   UNL     1       6.265   4.838  16.198  0.00  0.00    +0.000 N 
ATOM     18  H   UNL     1       5.500   4.265  15.854  0.00  0.00    +0.000 HD
BRANCH  17  19
ATOM     19  C   UNL     1       7.169   5.426  15.247  0.00  0.00    +0.000 C 
BRANCH  19  20
ATOM     20  C   UNL     1       6.989   4.771  13.933  0.00  0.00    +0.000 A 
ATOM     21  C   UNL     1       7.609   4.919  12.709  0.00  0.00    +0.000 A 
ATOM     22  C   UNL     1       7.000   3.985  11.838  0.00  0.00    +0.000 A 
ATOM     23  C   UNL     1       6.042   3.336  12.580  0.00  0.00    +0.000 A 
ATOM     24  O   UNL     1       6.026   3.807  13.854  0.00  0.00    +0.000 OA
ENDBRANCH  19  20
ENDBRANCH  17  19
ENDBRANCH   1  16
BRANCH   5  25
ATOM     25  C   UNL     1       1.849   2.913  21.113  0.00  0.00    +0.000 C 
ATOM     26  F   UNL     1       1.439   1.855  20.377  0.00  0.00    +0.000 F 
ATOM     27  F   UNL     1       2.737   2.426  22.018  0.00  0.00    +0.000 F 
ATOM     28  F   UNL     1       0.767   3.318  21.836  0.00  0.00    +0.000 F 
ENDBRANCH   5  25
TORSDOF 5
ENDMDL
