MODEL 1
REMARK VINA RESULT:      -7.4      0.000      0.000
REMARK  Name = 
REMARK  12 active torsions:
REMARK  status: ('A' for Active; 'I' for Inactive)
REMARK    1  A    between atoms: C_1  and  C_2
REMARK    2  A    between atoms: C_2  and  C_3
REMARK    3  A    between atoms: C_2  and  C_4
REMARK    4  A    between atoms: C_4  and  C_5
REMARK    5  A    between atoms: C_5  and  C_6
REMARK    6  A    between atoms: C_6  and  C_7
REMARK    7  A    between atoms: C_7  and  C_8
REMARK    8  A    between atoms: C_7  and  C_9
REMARK    9  A    between atoms: C_17  and  C_18
REMARK   10  A    between atoms: C_19  and  C_20
REMARK   11  A    between atoms: N_25  and  C_26
REMARK   12  A    between atoms: C_29  and  C_30
REMARK                            x       y       z     vdW  Elec       q    Type
REMARK                         _______ _______ _______ _____ _____    ______ ____
ROOT
ATOM      1  C   UNL     1      -0.593  10.832  19.762  0.00  0.00    +0.000 C 
ATOM      2  C   UNL     1       0.610  11.369  20.545  0.00  0.00    +0.000 C 
ATOM      3  C   UNL     1      -0.086  12.112  21.681  0.00  0.00    +0.000 C 
ATOM      4  C   UNL     1      -1.384  12.717  21.058  0.00  0.00    +0.000 C 
ATOM      5  C   UNL     1      -2.621  12.396  21.945  0.00  0.00    +0.000 C 
ATOM      6  C   UNL     1      -4.034  12.719  21.247  0.00  0.00    +0.000 C 
ATOM      7  C   UNL     1      -3.844  13.004  19.759  0.00  0.00    +0.000 C 
ATOM      8  C   UNL     1      -2.928  11.907  19.184  0.00  0.00    +0.000 C 
ATOM      9  C   UNL     1      -1.463  12.127  19.607  0.00  0.00    +0.000 C 
ATOM     10  C   UNL     1      -0.863  13.141  18.600  0.00  0.00    +0.000 C 
ATOM     11  C   UNL     1      -5.403  13.241  21.973  0.00  0.00    +0.000 C 
ATOM     12  C   UNL     1      -6.421  12.267  21.216  0.00  0.00    +0.000 C 
ATOM     13  C   UNL     1      -6.442  14.529  21.847  0.00  0.00    +0.000 C 
ATOM     14  C   UNL     1      -6.908  15.178  23.211  0.00  0.00    +0.000 C 
ATOM     15  C   UNL     1      -5.711  15.722  23.911  0.00  0.00    +0.000 C 
ATOM     16  O   UNL     1      -5.652  16.830  24.466  0.00  0.00    +0.000 OA
ATOM     17  N   UNL     1      -4.612  14.897  23.653  0.00  0.00    +0.000 N 
ATOM     18  C   UNL     1      -3.741  15.602  22.705  0.00  0.00    +0.000 C 
ATOM     19  C   UNL     1      -4.954  13.428  23.453  0.00  0.00    +0.000 C 
ATOM     20  C   UNL     1      -3.841  12.614  24.112  0.00  0.00    +0.000 C 
ATOM     21  C   UNL     1      -2.472  12.690  23.454  0.00  0.00    +0.000 C 
ATOM     22  C   UNL     1      -1.591  13.892  23.845  0.00  0.00    +0.000 C 
ENDROOT
BRANCH   1  23
ATOM     23  C   UNL     1      -0.268   9.827  18.623  0.00  0.00    +0.000 C 
ATOM     24  C   UNL     1      -1.291   9.952  17.488  0.00  0.00    +0.000 C 
BRANCH  23  25
ATOM     25  C   UNL     1       1.151   9.752  18.025  0.00  0.00    +0.000 C 
BRANCH  25  26
ATOM     26  C   UNL     1       1.871   8.398  18.057  0.00  0.00    +0.000 C 
BRANCH  26  27
ATOM     27  C   UNL     1       2.139   7.823  19.454  0.00  0.00    +0.000 C 
BRANCH  27  29
ATOM     28  C   UNL     1       1.831   5.537  20.517  0.00  0.00    +0.000 C 
ATOM     29  C   UNL     1       2.593   6.352  19.470  0.00  0.00    +0.000 C 
ATOM     30  C   UNL     1       2.405   5.729  18.085  0.00  0.00    +0.000 C 
ENDBRANCH  27  29
ENDBRANCH  26  27
ENDBRANCH  25  26
ENDBRANCH  23  25
ENDBRANCH   1  23
TORSDOF 5
ENDMDL
MODEL 2
REMARK VINA RESULT:      -7.1      3.199      8.090
REMARK  Name = 
REMARK  12 active torsions:
REMARK  status: ('A' for Active; 'I' for Inactive)
REMARK    1  A    between atoms: C_1  and  C_2
REMARK    2  A    between atoms: C_2  and  C_3
REMARK    3  A    between atoms: C_2  and  C_4
REMARK    4  A    between atoms: C_4  and  C_5
REMARK    5  A    between atoms: C_5  and  C_6
REMARK    6  A    between atoms: C_6  and  C_7
REMARK    7  A    between atoms: C_7  and  C_8
REMARK    8  A    between atoms: C_7  and  C_9
REMARK    9  A    between atoms: C_17  and  C_18
REMARK   10  A    between atoms: C_19  and  C_20
REMARK   11  A    between atoms: N_25  and  C_26
REMARK   12  A    between atoms: C_29  and  C_30
REMARK                            x       y       z     vdW  Elec       q    Type
REMARK                         _______ _______ _______ _____ _____    ______ ____
ROOT
ATOM      1  C   UNL     1      -3.534  13.815  22.705  0.00  0.00    +0.000 C 
ATOM      2  C   UNL     1      -3.482  15.002  21.737  0.00  0.00    +0.000 C 
ATOM      3  C   UNL     1      -2.755  14.382  20.548  0.00  0.00    +0.000 C 
ATOM      4  C   UNL     1      -1.722  13.382  21.159  0.00  0.00    +0.000 C 
ATOM      5  C   UNL     1      -1.813  11.998  20.454  0.00  0.00    +0.000 C 
ATOM      6  C   UNL     1      -1.004  10.824  21.199  0.00  0.00    +0.000 C 
ATOM      7  C   UNL     1      -0.561  11.278  22.589  0.00  0.00    +0.000 C 
ATOM      8  C   UNL     1      -1.771  11.941  23.273  0.00  0.00    +0.000 C 
ATOM      9  C   UNL     1      -2.038  13.343  22.694  0.00  0.00    +0.000 C 
ATOM     10  C   UNL     1      -1.093  14.316  23.445  0.00  0.00    +0.000 C 
ATOM     11  C   UNL     1      -0.235   9.557  20.510  0.00  0.00    +0.000 C 
ATOM     12  C   UNL     1      -0.757   8.428  21.515  0.00  0.00    +0.000 C 
ATOM     13  C   UNL     1       1.297   8.919  20.486  0.00  0.00    +0.000 C 
ATOM     14  C   UNL     1       1.835   8.463  19.072  0.00  0.00    +0.000 C 
ATOM     15  C   UNL     1       1.908   9.658  18.185  0.00  0.00    +0.000 C 
ATOM     16  O   UNL     1       2.857   9.931  17.434  0.00  0.00    +0.000 OA
ATOM     17  N   UNL     1       0.857  10.526  18.494  0.00  0.00    +0.000 N 
ATOM     18  C   UNL     1       1.424  11.669  19.220  0.00  0.00    +0.000 C 
ATOM     19  C   UNL     1      -0.409   9.840  18.987  0.00  0.00    +0.000 C 
ATOM     20  C   UNL     1      -1.593  10.603  18.395  0.00  0.00    +0.000 C 
ATOM     21  C   UNL     1      -1.806  12.019  18.909  0.00  0.00    +0.000 C 
ATOM     22  C   UNL     1      -0.973  13.125  18.232  0.00  0.00    +0.000 C 
ENDROOT
BRANCH   1  23
ATOM     23  C   UNL     1      -4.404  14.012  23.975  0.00  0.00    +0.000 C 
ATOM     24  C   UNL     1      -4.823  15.481  24.116  0.00  0.00    +0.000 C 
BRANCH  23  25
ATOM     25  C   UNL     1      -5.623  13.107  24.240  0.00  0.00    +0.000 C 
BRANCH  25  26
ATOM     26  C   UNL     1      -6.925  13.422  23.493  0.00  0.00    +0.000 C 
BRANCH  26  27
ATOM     27  C   UNL     1      -7.389  12.354  22.493  0.00  0.00    +0.000 C 
BRANCH  27  29
ATOM     28  C   UNL     1      -7.096  14.187  20.758  0.00  0.00    +0.000 C 
ATOM     29  C   UNL     1      -7.089  12.679  21.018  0.00  0.00    +0.000 C 
ATOM     30  C   UNL     1      -5.737  12.085  20.614  0.00  0.00    +0.000 C 
ENDBRANCH  27  29
ENDBRANCH  26  27
ENDBRANCH  25  26
ENDBRANCH  23  25
ENDBRANCH   1  23
TORSDOF 5
ENDMDL
MODEL 3
REMARK VINA RESULT:      -7.1     10.999     14.438
REMARK  Name = 
REMARK  12 active torsions:
REMARK  status: ('A' for Active; 'I' for Inactive)
REMARK    1  A    between atoms: C_1  and  C_2
REMARK    2  A    between atoms: C_2  and  C_3
REMARK    3  A    between atoms: C_2  and  C_4
REMARK    4  A    between atoms: C_4  and  C_5
REMARK    5  A    between atoms: C_5  and  C_6
REMARK    6  A    between atoms: C_6  and  C_7
REMARK    7  A    between atoms: C_7  and  C_8
REMARK    8  A    between atoms: C_7  and  C_9
REMARK    9  A    between atoms: C_17  and  C_18
REMARK   10  A    between atoms: C_19  and  C_20
REMARK   11  A    between atoms: N_25  and  C_26
REMARK   12  A    between atoms: C_29  and  C_30
REMARK                            x       y       z     vdW  Elec       q    Type
REMARK                         _______ _______ _______ _____ _____    ______ ____
ROOT
ATOM      1  C   UNL     1       8.082  13.240  24.229  0.00  0.00    +0.000 C 
ATOM      2  C   UNL     1       7.459  11.889  23.862  0.00  0.00    +0.000 C 
ATOM      3  C   UNL     1       8.234  11.542  22.595  0.00  0.00    +0.000 C 
ATOM      4  C   UNL     1       8.484  12.900  21.867  0.00  0.00    +0.000 C 
ATOM      5  C   UNL     1       9.979  13.037  21.456  0.00  0.00    +0.000 C 
ATOM      6  C   UNL     1      10.395  14.512  20.967  0.00  0.00    +0.000 C 
ATOM      7  C   UNL     1       9.289  15.515  21.287  0.00  0.00    +0.000 C 
ATOM      8  C   UNL     1       8.847  15.277  22.743  0.00  0.00    +0.000 C 
ATOM      9  C   UNL     1       7.988  14.004  22.863  0.00  0.00    +0.000 C 
ATOM     10  C   UNL     1       6.538  14.418  22.501  0.00  0.00    +0.000 C 
ATOM     11  C   UNL     1      11.498  14.904  19.825  0.00  0.00    +0.000 C 
ATOM     12  C   UNL     1      12.213  16.088  20.628  0.00  0.00    +0.000 C 
ATOM     13  C   UNL     1      11.538  15.757  18.402  0.00  0.00    +0.000 C 
ATOM     14  C   UNL     1      12.329  15.082  17.213  0.00  0.00    +0.000 C 
ATOM     15  C   UNL     1      11.659  13.797  16.866  0.00  0.00    +0.000 C 
ATOM     16  O   UNL     1      11.422  13.406  15.713  0.00  0.00    +0.000 OA
ATOM     17  N   UNL     1      11.147  13.217  18.029  0.00  0.00    +0.000 N 
ATOM     18  C   UNL     1       9.689  13.389  18.006  0.00  0.00    +0.000 C 
ATOM     19  C   UNL     1      11.946  13.511  19.291  0.00  0.00    +0.000 C 
ATOM     20  C   UNL     1      11.938  12.235  20.134  0.00  0.00    +0.000 C 
ATOM     21  C   UNL     1      10.597  11.826  20.723  0.00  0.00    +0.000 C 
ATOM     22  C   UNL     1       9.663  11.019  19.801  0.00  0.00    +0.000 C 
ENDROOT
BRANCH   1  23
ATOM     23  C   UNL     1       7.679  13.820  25.612  0.00  0.00    +0.000 C 
ATOM     24  C   UNL     1       6.770  12.838  26.361  0.00  0.00    +0.000 C 
BRANCH  23  25
ATOM     25  C   UNL     1       8.751  14.361  26.578  0.00  0.00    +0.000 C 
BRANCH  25  26
ATOM     26  C   UNL     1       8.722  15.857  26.915  0.00  0.00    +0.000 C 
BRANCH  26  27
ATOM     27  C   UNL     1       9.583  16.755  26.017  0.00  0.00    +0.000 C 
BRANCH  27  29
ATOM     28  C   UNL     1      11.561  16.848  24.426  0.00  0.00    +0.000 C 
ATOM     29  C   UNL     1      10.968  16.181  25.669  0.00  0.00    +0.000 C 
ATOM     30  C   UNL     1      11.919  16.347  26.856  0.00  0.00    +0.000 C 
ENDBRANCH  27  29
ENDBRANCH  26  27
ENDBRANCH  25  26
ENDBRANCH  23  25
ENDBRANCH   1  23
TORSDOF 5
ENDMDL
MODEL 4
REMARK VINA RESULT:      -7.0      2.601      4.178
REMARK  Name = 
REMARK  12 active torsions:
REMARK  status: ('A' for Active; 'I' for Inactive)
REMARK    1  A    between atoms: C_1  and  C_2
REMARK    2  A    between atoms: C_2  and  C_3
REMARK    3  A    between atoms: C_2  and  C_4
REMARK    4  A    between atoms: C_4  and  C_5
REMARK    5  A    between atoms: C_5  and  C_6
REMARK    6  A    between atoms: C_6  and  C_7
REMARK    7  A    between atoms: C_7  and  C_8
REMARK    8  A    between atoms: C_7  and  C_9
REMARK    9  A    between atoms: C_17  and  C_18
REMARK   10  A    between atoms: C_19  and  C_20
REMARK   11  A    between atoms: N_25  and  C_26
REMARK   12  A    between atoms: C_29  and  C_30
REMARK                            x       y       z     vdW  Elec       q    Type
REMARK                         _______ _______ _______ _____ _____    ______ ____
ROOT
ATOM      1  C   UNL     1       1.608   9.556  18.912  0.00  0.00    +0.000 C 
ATOM      2  C   UNL     1       2.374  10.263  17.789  0.00  0.00    +0.000 C 
ATOM      3  C   UNL     1       2.259  11.720  18.225  0.00  0.00    +0.000 C 
ATOM      4  C   UNL     1       0.849  11.854  18.882  0.00  0.00    +0.000 C 
ATOM      5  C   UNL     1       0.950  12.568  20.261  0.00  0.00    +0.000 C 
ATOM      6  C   UNL     1      -0.393  12.493  21.143  0.00  0.00    +0.000 C 
ATOM      7  C   UNL     1      -1.375  11.491  20.539  0.00  0.00    +0.000 C 
ATOM      8  C   UNL     1      -0.590  10.206  20.211  0.00  0.00    +0.000 C 
ATOM      9  C   UNL     1       0.283  10.394  18.955  0.00  0.00    +0.000 C 
ATOM     10  C   UNL     1      -0.638  10.131  17.737  0.00  0.00    +0.000 C 
ATOM     11  C   UNL     1      -0.968  13.625  22.173  0.00  0.00    +0.000 C 
ATOM     12  C   UNL     1      -1.359  12.636  23.368  0.00  0.00    +0.000 C 
ATOM     13  C   UNL     1      -2.358  14.512  22.367  0.00  0.00    +0.000 C 
ATOM     14  C   UNL     1      -2.159  16.043  22.705  0.00  0.00    +0.000 C 
ATOM     15  C   UNL     1      -1.450  16.691  21.566  0.00  0.00    +0.000 C 
ATOM     16  O   UNL     1      -1.754  17.786  21.068  0.00  0.00    +0.000 OA
ATOM     17  N   UNL     1      -0.545  15.784  21.010  0.00  0.00    +0.000 N 
ATOM     18  C   UNL     1      -1.104  15.327  19.731  0.00  0.00    +0.000 C 
ATOM     19  C   UNL     1       0.049  14.792  22.000  0.00  0.00    +0.000 C 
ATOM     20  C   UNL     1       1.513  14.592  21.610  0.00  0.00    +0.000 C 
ATOM     21  C   UNL     1       1.768  13.879  20.291  0.00  0.00    +0.000 C 
ATOM     22  C   UNL     1       1.726  14.753  19.022  0.00  0.00    +0.000 C 
ENDROOT
BRANCH   1  23
ATOM     23  C   UNL     1       1.691   8.005  18.918  0.00  0.00    +0.000 C 
ATOM     24  C   UNL     1       2.695   7.517  17.867  0.00  0.00    +0.000 C 
BRANCH  23  25
ATOM     25  C   UNL     1       1.916   7.237  20.235  0.00  0.00    +0.000 C 
BRANCH  25  26
ATOM     26  C   UNL     1       2.317   5.759  20.142  0.00  0.00    +0.000 C 
BRANCH  26  27
ATOM     27  C   UNL     1       1.214   4.751  20.493  0.00  0.00    +0.000 C 
BRANCH  27  29
ATOM     28  C   UNL     1       1.483   3.971  18.091  0.00  0.00    +0.000 C 
ATOM     29  C   UNL     1       1.083   3.571  19.513  0.00  0.00    +0.000 C 
ATOM     30  C   UNL     1       1.942   2.397  19.987  0.00  0.00    +0.000 C 
ENDBRANCH  27  29
ENDBRANCH  26  27
ENDBRANCH  25  26
ENDBRANCH  23  25
ENDBRANCH   1  23
TORSDOF 5
ENDMDL
MODEL 5
REMARK VINA RESULT:      -6.9      3.552      5.830
REMARK  Name = 
REMARK  12 active torsions:
REMARK  status: ('A' for Active; 'I' for Inactive)
REMARK    1  A    between atoms: C_1  and  C_2
REMARK    2  A    between atoms: C_2  and  C_3
REMARK    3  A    between atoms: C_2  and  C_4
REMARK    4  A    between atoms: C_4  and  C_5
REMARK    5  A    between atoms: C_5  and  C_6
REMARK    6  A    between atoms: C_6  and  C_7
REMARK    7  A    between atoms: C_7  and  C_8
REMARK    8  A    between atoms: C_7  and  C_9
REMARK    9  A    between atoms: C_17  and  C_18
REMARK   10  A    between atoms: C_19  and  C_20
REMARK   11  A    between atoms: N_25  and  C_26
REMARK   12  A    between atoms: C_29  and  C_30
REMARK                            x       y       z     vdW  Elec       q    Type
REMARK                         _______ _______ _______ _____ _____    ______ ____
ROOT
ATOM      1  C   UNL     1       2.073   6.111  18.620  0.00  0.00    +0.000 C 
ATOM      2  C   UNL     1       2.859   5.846  19.908  0.00  0.00    +0.000 C 
ATOM      3  C   UNL     1       2.340   6.964  20.806  0.00  0.00    +0.000 C 
ATOM      4  C   UNL     1       2.104   8.187  19.865  0.00  0.00    +0.000 C 
ATOM      5  C   UNL     1       0.694   8.800  20.102  0.00  0.00    +0.000 C 
ATOM      6  C   UNL     1       0.244   9.870  18.989  0.00  0.00    +0.000 C 
ATOM      7  C   UNL     1       1.194   9.830  17.793  0.00  0.00    +0.000 C 
ATOM      8  C   UNL     1       1.403   8.353  17.409  0.00  0.00    +0.000 C 
ATOM      9  C   UNL     1       2.332   7.644  18.412  0.00  0.00    +0.000 C 
ATOM     10  C   UNL     1       3.783   7.956  17.962  0.00  0.00    +0.000 C 
ATOM     11  C   UNL     1      -0.680  11.201  19.208  0.00  0.00    +0.000 C 
ATOM     12  C   UNL     1      -1.615  11.016  17.924  0.00  0.00    +0.000 C 
ATOM     13  C   UNL     1      -0.551  12.837  18.958  0.00  0.00    +0.000 C 
ATOM     14  C   UNL     1      -1.072  13.759  20.130  0.00  0.00    +0.000 C 
ATOM     15  C   UNL     1      -0.249  13.494  21.344  0.00  0.00    +0.000 C 
ATOM     16  O   UNL     1       0.210  14.366  22.097  0.00  0.00    +0.000 OA
ATOM     17  N   UNL     1       0.107  12.143  21.373  0.00  0.00    +0.000 N 
ATOM     18  C   UNL     1       1.529  12.051  21.018  0.00  0.00    +0.000 C 
ATOM     19  C   UNL     1      -0.914  11.204  20.748  0.00  0.00    +0.000 C 
ATOM     20  C   UNL     1      -0.943   9.938  21.605  0.00  0.00    +0.000 C 
ATOM     21  C   UNL     1       0.309   9.075  21.573  0.00  0.00    +0.000 C 
ATOM     22  C   UNL     1       1.449   9.488  22.524  0.00  0.00    +0.000 C 
ENDROOT
BRANCH   1  23
ATOM     23  C   UNL     1       2.189   5.023  17.518  0.00  0.00    +0.000 C 
ATOM     24  C   UNL     1       3.634   4.522  17.407  0.00  0.00    +0.000 C 
BRANCH  23  25
ATOM     25  C   UNL     1       1.228   3.818  17.502  0.00  0.00    +0.000 C 
BRANCH  25  26
ATOM     26  C   UNL     1       1.615   2.583  18.324  0.00  0.00    +0.000 C 
BRANCH  26  27
ATOM     27  C   UNL     1       1.124   2.576  19.778  0.00  0.00    +0.000 C 
BRANCH  27  29
ATOM     28  C   UNL     1       3.616   2.380  20.231  0.00  0.00    +0.000 C 
ATOM     29  C   UNL     1       2.210   2.263  20.824  0.00  0.00    +0.000 C 
ATOM     30  C   UNL     1       2.070   3.201  22.025  0.00  0.00    +0.000 C 
ENDBRANCH  27  29
ENDBRANCH  26  27
ENDBRANCH  25  26
ENDBRANCH  23  25
ENDBRANCH   1  23
TORSDOF 5
ENDMDL
MODEL 6
REMARK VINA RESULT:      -6.8      0.897      1.024
REMARK  Name = 
REMARK  12 active torsions:
REMARK  status: ('A' for Active; 'I' for Inactive)
REMARK    1  A    between atoms: C_1  and  C_2
REMARK    2  A    between atoms: C_2  and  C_3
REMARK    3  A    between atoms: C_2  and  C_4
REMARK    4  A    between atoms: C_4  and  C_5
REMARK    5  A    between atoms: C_5  and  C_6
REMARK    6  A    between atoms: C_6  and  C_7
REMARK    7  A    between atoms: C_7  and  C_8
REMARK    8  A    between atoms: C_7  and  C_9
REMARK    9  A    between atoms: C_17  and  C_18
REMARK   10  A    between atoms: C_19  and  C_20
REMARK   11  A    between atoms: N_25  and  C_26
REMARK   12  A    between atoms: C_29  and  C_30
REMARK                            x       y       z     vdW  Elec       q    Type
REMARK                         _______ _______ _______ _____ _____    ______ ____
ROOT
ATOM      1  C   UNL     1      -0.792  10.998  20.433  0.00  0.00    +0.000 C 
ATOM      2  C   UNL     1       0.265  11.665  21.320  0.00  0.00    +0.000 C 
ATOM      3  C   UNL     1      -0.616  12.427  22.306  0.00  0.00    +0.000 C 
ATOM      4  C   UNL     1      -1.856  12.901  21.485  0.00  0.00    +0.000 C 
ATOM      5  C   UNL     1      -3.176  12.551  22.231  0.00  0.00    +0.000 C 
ATOM      6  C   UNL     1      -4.504  12.732  21.341  0.00  0.00    +0.000 C 
ATOM      7  C   UNL     1      -4.141  12.937  19.872  0.00  0.00    +0.000 C 
ATOM      8  C   UNL     1      -3.094  11.872  19.495  0.00  0.00    +0.000 C 
ATOM      9  C   UNL     1      -1.712  12.219  20.081  0.00  0.00    +0.000 C 
ATOM     10  C   UNL     1      -1.050  13.208  19.087  0.00  0.00    +0.000 C 
ATOM     11  C   UNL     1      -5.985  13.202  21.852  0.00  0.00    +0.000 C 
ATOM     12  C   UNL     1      -6.836  12.115  21.045  0.00  0.00    +0.000 C 
ATOM     13  C   UNL     1      -7.075  14.405  21.508  0.00  0.00    +0.000 C 
ATOM     14  C   UNL     1      -7.751  15.103  22.754  0.00  0.00    +0.000 C 
ATOM     15  C   UNL     1      -6.689  15.770  23.558  0.00  0.00    +0.000 C 
ATOM     16  O   UNL     1      -6.770  16.912  24.037  0.00  0.00    +0.000 OA
ATOM     17  N   UNL     1      -5.519  15.009  23.498  0.00  0.00    +0.000 N 
ATOM     18  C   UNL     1      -4.577  15.713  22.619  0.00  0.00    +0.000 C 
ATOM     19  C   UNL     1      -5.743  13.511  23.360  0.00  0.00    +0.000 C 
ATOM     20  C   UNL     1      -4.676  12.818  24.209  0.00  0.00    +0.000 C 
ATOM     21  C   UNL     1      -3.241  12.947  23.723  0.00  0.00    +0.000 C 
ATOM     22  C   UNL     1      -2.492  14.230  24.135  0.00  0.00    +0.000 C 
ENDROOT
BRANCH   1  23
ATOM     23  C   UNL     1      -0.262   9.950  19.417  0.00  0.00    +0.000 C 
ATOM     24  C   UNL     1      -0.872  10.190  18.031  0.00  0.00    +0.000 C 
BRANCH  23  25
ATOM     25  C   UNL     1       1.251   9.695  19.271  0.00  0.00    +0.000 C 
BRANCH  25  26
ATOM     26  C   UNL     1       1.794   9.391  17.869  0.00  0.00    +0.000 C 
BRANCH  26  27
ATOM     27  C   UNL     1       1.962   7.904  17.532  0.00  0.00    +0.000 C 
BRANCH  27  29
ATOM     28  C   UNL     1       2.578   5.886  18.947  0.00  0.00    +0.000 C 
ATOM     29  C   UNL     1       3.077   7.187  18.314  0.00  0.00    +0.000 C 
ATOM     30  C   UNL     1       4.264   6.898  17.392  0.00  0.00    +0.000 C 
ENDBRANCH  27  29
ENDBRANCH  26  27
ENDBRANCH  25  26
ENDBRANCH  23  25
ENDBRANCH   1  23
TORSDOF 5
ENDMDL
MODEL 7
REMARK VINA RESULT:      -6.8      5.613     10.111
REMARK  Name = 
REMARK  12 active torsions:
REMARK  status: ('A' for Active; 'I' for Inactive)
REMARK    1  A    between atoms: C_1  and  C_2
REMARK    2  A    between atoms: C_2  and  C_3
REMARK    3  A    between atoms: C_2  and  C_4
REMARK    4  A    between atoms: C_4  and  C_5
REMARK    5  A    between atoms: C_5  and  C_6
REMARK    6  A    between atoms: C_6  and  C_7
REMARK    7  A    between atoms: C_7  and  C_8
REMARK    8  A    between atoms: C_7  and  C_9
REMARK    9  A    between atoms: C_17  and  C_18
REMARK   10  A    between atoms: C_19  and  C_20
REMARK   11  A    between atoms: N_25  and  C_26
REMARK   12  A    between atoms: C_29  and  C_30
REMARK                            x       y       z     vdW  Elec       q    Type
REMARK                         _______ _______ _______ _____ _____    ______ ____
ROOT
ATOM      1  C   UNL     1       0.880  10.432  20.314  0.00  0.00    +0.000 C 
ATOM      2  C   UNL     1      -0.243   9.765  21.115  0.00  0.00    +0.000 C 
ATOM      3  C   UNL     1       0.176   8.300  21.046  0.00  0.00    +0.000 C 
ATOM      4  C   UNL     1       0.817   8.109  19.636  0.00  0.00    +0.000 C 
ATOM      5  C   UNL     1       2.188   7.383  19.747  0.00  0.00    +0.000 C 
ATOM      6  C   UNL     1       3.057   7.402  18.394  0.00  0.00    +0.000 C 
ATOM      7  C   UNL     1       2.454   8.377  17.384  0.00  0.00    +0.000 C 
ATOM      8  C   UNL     1       2.148   9.691  18.127  0.00  0.00    +0.000 C 
ATOM      9  C   UNL     1       0.900   9.548  19.019  0.00  0.00    +0.000 C 
ATOM     10  C   UNL     1      -0.325   9.793  18.101  0.00  0.00    +0.000 C 
ATOM     11  C   UNL     1       4.068   6.239  17.847  0.00  0.00    +0.000 C 
ATOM     12  C   UNL     1       5.270   7.200  17.411  0.00  0.00    +0.000 C 
ATOM     13  C   UNL     1       4.238   5.302  16.488  0.00  0.00    +0.000 C 
ATOM     14  C   UNL     1       4.561   3.775  16.736  0.00  0.00    +0.000 C 
ATOM     15  C   UNL     1       3.422   3.165  17.478  0.00  0.00    +0.000 C 
ATOM     16  O   UNL     1       2.909   2.066  17.217  0.00  0.00    +0.000 OA
ATOM     17  N   UNL     1       2.886   4.109  18.357  0.00  0.00    +0.000 N 
ATOM     18  C   UNL     1       1.606   4.562  17.795  0.00  0.00    +0.000 C 
ATOM     19  C   UNL     1       3.892   5.110  18.906  0.00  0.00    +0.000 C 
ATOM     20  C   UNL     1       3.521   5.365  20.367  0.00  0.00    +0.000 C 
ATOM     21  C   UNL     1       2.212   6.101  20.609  0.00  0.00    +0.000 C 
ATOM     22  C   UNL     1       0.933   5.241  20.611  0.00  0.00    +0.000 C 
ENDROOT
BRANCH   1  23
ATOM     23  C   UNL     1       0.904  11.984  20.343  0.00  0.00    +0.000 C 
ATOM     24  C   UNL     1       0.012  12.514  21.472  0.00  0.00    +0.000 C 
BRANCH  23  25
ATOM     25  C   UNL     1       2.243  12.748  20.349  0.00  0.00    +0.000 C 
BRANCH  25  26
ATOM     26  C   UNL     1       2.760  13.297  19.013  0.00  0.00    +0.000 C 
BRANCH  26  27
ATOM     27  C   UNL     1       1.798  14.227  18.263  0.00  0.00    +0.000 C 
BRANCH  27  29
ATOM     28  C   UNL     1       2.050  16.727  18.642  0.00  0.00    +0.000 C 
ATOM     29  C   UNL     1       1.323  15.449  19.070  0.00  0.00    +0.000 C 
ATOM     30  C   UNL     1      -0.189  15.630  18.909  0.00  0.00    +0.000 C 
ENDBRANCH  27  29
ENDBRANCH  26  27
ENDBRANCH  25  26
ENDBRANCH  23  25
ENDBRANCH   1  23
TORSDOF 5
ENDMDL
MODEL 8
REMARK VINA RESULT:      -6.8      2.030      4.227
REMARK  Name = 
REMARK  12 active torsions:
REMARK  status: ('A' for Active; 'I' for Inactive)
REMARK    1  A    between atoms: C_1  and  C_2
REMARK    2  A    between atoms: C_2  and  C_3
REMARK    3  A    between atoms: C_2  and  C_4
REMARK    4  A    between atoms: C_4  and  C_5
REMARK    5  A    between atoms: C_5  and  C_6
REMARK    6  A    between atoms: C_6  and  C_7
REMARK    7  A    between atoms: C_7  and  C_8
REMARK    8  A    between atoms: C_7  and  C_9
REMARK    9  A    between atoms: C_17  and  C_18
REMARK   10  A    between atoms: C_19  and  C_20
REMARK   11  A    between atoms: N_25  and  C_26
REMARK   12  A    between atoms: C_29  and  C_30
REMARK                            x       y       z     vdW  Elec       q    Type
REMARK                         _______ _______ _______ _____ _____    ______ ____
ROOT
ATOM      1  C   UNL     1      -1.043  11.589  20.709  0.00  0.00    +0.000 C 
ATOM      2  C   UNL     1      -0.771  10.837  22.016  0.00  0.00    +0.000 C 
ATOM      3  C   UNL     1      -1.754  11.521  22.960  0.00  0.00    +0.000 C 
ATOM      4  C   UNL     1      -1.801  13.015  22.511  0.00  0.00    +0.000 C 
ATOM      5  C   UNL     1      -3.273  13.497  22.357  0.00  0.00    +0.000 C 
ATOM      6  C   UNL     1      -3.427  14.920  21.621  0.00  0.00    +0.000 C 
ATOM      7  C   UNL     1      -2.102  15.342  20.989  0.00  0.00    +0.000 C 
ATOM      8  C   UNL     1      -1.541  14.129  20.222  0.00  0.00    +0.000 C 
ATOM      9  C   UNL     1      -0.962  13.079  21.189  0.00  0.00    +0.000 C 
ATOM     10  C   UNL     1       0.485  13.532  21.513  0.00  0.00    +0.000 C 
ATOM     11  C   UNL     1      -4.556  16.067  21.907  0.00  0.00    +0.000 C 
ATOM     12  C   UNL     1      -4.898  16.403  20.381  0.00  0.00    +0.000 C 
ATOM     13  C   UNL     1      -4.593  17.670  22.335  0.00  0.00    +0.000 C 
ATOM     14  C   UNL     1      -5.652  18.067  23.438  0.00  0.00    +0.000 C 
ATOM     15  C   UNL     1      -5.318  17.345  24.698  0.00  0.00    +0.000 C 
ATOM     16  O   UNL     1      -5.315  17.851  25.830  0.00  0.00    +0.000 OA
ATOM     17  N   UNL     1      -4.798  16.087  24.383  0.00  0.00    +0.000 N 
ATOM     18  C   UNL     1      -3.351  16.131  24.630  0.00  0.00    +0.000 C 
ATOM     19  C   UNL     1      -5.351  15.472  23.106  0.00  0.00    +0.000 C 
ATOM     20  C   UNL     1      -5.508  13.973  23.362  0.00  0.00    +0.000 C 
ATOM     21  C   UNL     1      -4.221  13.181  23.535  0.00  0.00    +0.000 C 
ATOM     22  C   UNL     1      -3.601  13.184  24.946  0.00  0.00    +0.000 C 
ENDROOT
BRANCH   1  23
ATOM     23  C   UNL     1      -0.356  11.014  19.440  0.00  0.00    +0.000 C 
ATOM     24  C   UNL     1       0.628   9.902  19.820  0.00  0.00    +0.000 C 
BRANCH  23  25
ATOM     25  C   UNL     1      -1.197  10.561  18.231  0.00  0.00    +0.000 C 
BRANCH  25  26
ATOM     26  C   UNL     1      -2.371  11.450  17.801  0.00  0.00    +0.000 C 
BRANCH  26  27
ATOM     27  C   UNL     1      -3.728  11.104  18.428  0.00  0.00    +0.000 C 
BRANCH  27  29
ATOM     28  C   UNL     1      -5.692  12.337  17.392  0.00  0.00    +0.000 C 
ATOM     29  C   UNL     1      -4.700  12.290  18.556  0.00  0.00    +0.000 C 
ATOM     30  C   UNL     1      -5.458  12.208  19.884  0.00  0.00    +0.000 C 
ENDBRANCH  27  29
ENDBRANCH  26  27
ENDBRANCH  25  26
ENDBRANCH  23  25
ENDBRANCH   1  23
TORSDOF 5
ENDMDL
MODEL 9
REMARK VINA RESULT:      -6.7      4.713     10.175
REMARK  Name = 
REMARK  12 active torsions:
REMARK  status: ('A' for Active; 'I' for Inactive)
REMARK    1  A    between atoms: C_1  and  C_2
REMARK    2  A    between atoms: C_2  and  C_3
REMARK    3  A    between atoms: C_2  and  C_4
REMARK    4  A    between atoms: C_4  and  C_5
REMARK    5  A    between atoms: C_5  and  C_6
REMARK    6  A    between atoms: C_6  and  C_7
REMARK    7  A    between atoms: C_7  and  C_8
REMARK    8  A    between atoms: C_7  and  C_9
REMARK    9  A    between atoms: C_17  and  C_18
REMARK   10  A    between atoms: C_19  and  C_20
REMARK   11  A    between atoms: N_25  and  C_26
REMARK   12  A    between atoms: C_29  and  C_30
REMARK                            x       y       z     vdW  Elec       q    Type
REMARK                         _______ _______ _______ _____ _____    ______ ____
ROOT
ATOM      1  C   UNL     1       1.040  10.337  20.347  0.00  0.00    +0.000 C 
ATOM      2  C   UNL     1      -0.100   9.699  21.148  0.00  0.00    +0.000 C 
ATOM      3  C   UNL     1       0.276   8.222  21.071  0.00  0.00    +0.000 C 
ATOM      4  C   UNL     1       0.908   8.021  19.658  0.00  0.00    +0.000 C 
ATOM      5  C   UNL     1       2.258   7.254  19.763  0.00  0.00    +0.000 C 
ATOM      6  C   UNL     1       3.123   7.254  18.407  0.00  0.00    +0.000 C 
ATOM      7  C   UNL     1       2.548   8.251  17.404  0.00  0.00    +0.000 C 
ATOM      8  C   UNL     1       2.282   9.570  18.154  0.00  0.00    +0.000 C 
ATOM      9  C   UNL     1       1.032   9.459  19.048  0.00  0.00    +0.000 C 
ATOM     10  C   UNL     1      -0.187   9.744  18.134  0.00  0.00    +0.000 C 
ATOM     11  C   UNL     1       4.099   6.064  17.853  0.00  0.00    +0.000 C 
ATOM     12  C   UNL     1       5.328   6.992  17.419  0.00  0.00    +0.000 C 
ATOM     13  C   UNL     1       4.239   5.130  16.489  0.00  0.00    +0.000 C 
ATOM     14  C   UNL     1       4.517   3.593  16.728  0.00  0.00    +0.000 C 
ATOM     15  C   UNL     1       3.362   3.012  17.470  0.00  0.00    +0.000 C 
ATOM     16  O   UNL     1       2.816   1.930  17.205  0.00  0.00    +0.000 OA
ATOM     17  N   UNL     1       2.856   3.968  18.355  0.00  0.00    +0.000 N 
ATOM     18  C   UNL     1       1.589   4.460  17.798  0.00  0.00    +0.000 C 
ATOM     19  C   UNL     1       3.892   4.935  18.906  0.00  0.00    +0.000 C 
ATOM     20  C   UNL     1       3.531   5.194  20.369  0.00  0.00    +0.000 C 
ATOM     21  C   UNL     1       2.245   5.967  20.618  0.00  0.00    +0.000 C 
ATOM     22  C   UNL     1       0.942   5.145  20.619  0.00  0.00    +0.000 C 
ENDROOT
BRANCH   1  23
ATOM     23  C   UNL     1       1.110  11.888  20.384  0.00  0.00    +0.000 C 
ATOM     24  C   UNL     1       1.824  12.422  19.136  0.00  0.00    +0.000 C 
BRANCH  23  25
ATOM     25  C   UNL     1      -0.158  12.724  20.645  0.00  0.00    +0.000 C 
BRANCH  25  26
ATOM     26  C   UNL     1      -0.288  13.423  22.004  0.00  0.00    +0.000 C 
BRANCH  26  27
ATOM     27  C   UNL     1      -1.224  12.742  23.011  0.00  0.00    +0.000 C 
BRANCH  27  29
ATOM     28  C   UNL     1      -3.597  12.411  23.856  0.00  0.00    +0.000 C 
ATOM     29  C   UNL     1      -2.724  12.869  22.686  0.00  0.00    +0.000 C 
ATOM     30  C   UNL     1      -3.061  14.316  22.317  0.00  0.00    +0.000 C 
ENDBRANCH  27  29
ENDBRANCH  26  27
ENDBRANCH  25  26
ENDBRANCH  23  25
ENDBRANCH   1  23
TORSDOF 5
ENDMDL
