MODEL 1
REMARK VINA RESULT:      -6.9      0.000      0.000
REMARK  Name = 
REMARK  5 active torsions:
REMARK  status: ('A' for Active; 'I' for Inactive)
REMARK    1  A    between atoms: C_1  and  C_2
REMARK    2  A    between atoms: C_2  and  N_3
REMARK    3  A    between atoms: N_3  and  C_4
REMARK    4  A    between atoms: C_4  and  C_5
REMARK    5  A    between atoms: C_6  and  C_8
REMARK                            x       y       z     vdW  Elec       q    Type
REMARK                         _______ _______ _______ _____ _____    ______ ____
ROOT
ATOM      1  C   UNL     1       4.759   3.923  17.265  0.00  0.00    +0.000 A 
ATOM      2  C   UNL     1       4.927   4.041  15.877  0.00  0.00    +0.000 A 
ATOM      3  C   UNL     1       6.124   4.495  15.315  0.00  0.00    +0.000 A 
ATOM      4  C   UNL     1       7.166   4.947  16.127  0.00  0.00    +0.000 A 
ATOM      5  C   UNL     1       6.956   4.998  17.514  0.00  0.00    +0.000 A 
ATOM      6  C   UNL     1       7.683   5.457  18.634  0.00  0.00    +0.000 A 
ATOM      7  N   UNL     1       7.021   5.291  19.784  0.00  0.00    +0.000 NA
ATOM      8  N   UNL     1       5.864   4.717  19.396  0.00  0.00    +0.000 N 
ATOM      9  C   UNL     1       5.772   4.499  18.045  0.00  0.00    +0.000 A 
ATOM     10  H   UNL     1       5.145   4.526  20.090  0.00  0.00    +0.000 HD
ENDROOT
BRANCH   1  12
ATOM     11  N   UNL     1       2.439   4.059  18.278  0.00  0.00    +0.000 N 
ATOM     12  C   UNL     1       3.578   3.294  17.937  0.00  0.00    +0.000 C 
ATOM     13  O   UNL     1       3.633   2.077  18.106  0.00  0.00    +0.000 OA
BRANCH  11  15
ATOM     14  C   UNL     1       1.368   3.578  20.481  0.00  0.00    +0.000 C 
ATOM     15  C   UNL     1       1.353   3.356  18.973  0.00  0.00    +0.000 C 
ENDBRANCH  11  15
BRANCH  11  16
ATOM     16  C   UNL     1       2.303   5.490  17.978  0.00  0.00    +0.000 C 
ATOM     17  C   UNL     1       2.783   6.525  18.983  0.00  0.00    +0.000 C 
ENDBRANCH  11  16
ENDBRANCH   1  12
TORSDOF 3
ENDMDL
MODEL 2
REMARK VINA RESULT:      -6.8      2.092      5.091
REMARK  Name = 
REMARK  5 active torsions:
REMARK  status: ('A' for Active; 'I' for Inactive)
REMARK    1  A    between atoms: C_1  and  C_2
REMARK    2  A    between atoms: C_2  and  N_3
REMARK    3  A    between atoms: N_3  and  C_4
REMARK    4  A    between atoms: C_4  and  C_5
REMARK    5  A    between atoms: C_6  and  C_8
REMARK                            x       y       z     vdW  Elec       q    Type
REMARK                         _______ _______ _______ _____ _____    ______ ____
ROOT
ATOM      1  C   UNL     1       4.170   4.963  19.311  0.00  0.00    +0.000 A 
ATOM      2  C   UNL     1       3.216   5.836  19.854  0.00  0.00    +0.000 A 
ATOM      3  C   UNL     1       1.960   5.388  20.275  0.00  0.00    +0.000 A 
ATOM      4  C   UNL     1       1.573   4.061  20.073  0.00  0.00    +0.000 A 
ATOM      5  C   UNL     1       2.447   3.210  19.378  0.00  0.00    +0.000 A 
ATOM      6  C   UNL     1       2.404   1.882  18.901  0.00  0.00    +0.000 A 
ATOM      7  N   UNL     1       3.523   1.525  18.264  0.00  0.00    +0.000 NA
ATOM      8  N   UNL     1       4.290   2.632  18.338  0.00  0.00    +0.000 N 
ATOM      9  C   UNL     1       3.705   3.674  19.011  0.00  0.00    +0.000 A 
ATOM     10  H   UNL     1       5.197   2.643  17.877  0.00  0.00    +0.000 HD
ENDROOT
BRANCH   1  12
ATOM     11  N   UNL     1       5.934   5.869  17.732  0.00  0.00    +0.000 N 
ATOM     12  C   UNL     1       5.586   5.329  18.991  0.00  0.00    +0.000 C 
ATOM     13  O   UNL     1       6.401   5.198  19.903  0.00  0.00    +0.000 OA
BRANCH  11  15
ATOM     14  C   UNL     1       7.697   7.633  17.634  0.00  0.00    +0.000 C 
ATOM     15  C   UNL     1       7.356   6.153  17.503  0.00  0.00    +0.000 C 
ENDBRANCH  11  15
BRANCH  11  16
ATOM     16  C   UNL     1       4.958   6.145  16.669  0.00  0.00    +0.000 C 
ATOM     17  C   UNL     1       5.302   5.830  15.223  0.00  0.00    +0.000 C 
ENDBRANCH  11  16
ENDBRANCH   1  12
TORSDOF 3
ENDMDL
MODEL 3
REMARK VINA RESULT:      -6.7      1.259      1.915
REMARK  Name = 
REMARK  5 active torsions:
REMARK  status: ('A' for Active; 'I' for Inactive)
REMARK    1  A    between atoms: C_1  and  C_2
REMARK    2  A    between atoms: C_2  and  N_3
REMARK    3  A    between atoms: N_3  and  C_4
REMARK    4  A    between atoms: C_4  and  C_5
REMARK    5  A    between atoms: C_6  and  C_8
REMARK                            x       y       z     vdW  Elec       q    Type
REMARK                         _______ _______ _______ _____ _____    ______ ____
ROOT
ATOM      1  C   UNL     1       4.509   4.640  17.211  0.00  0.00    +0.000 A 
ATOM      2  C   UNL     1       4.766   4.429  15.848  0.00  0.00    +0.000 A 
ATOM      3  C   UNL     1       6.066   4.265  15.359  0.00  0.00    +0.000 A 
ATOM      4  C   UNL     1       7.168   4.408  16.204  0.00  0.00    +0.000 A 
ATOM      5  C   UNL     1       6.942   4.788  17.537  0.00  0.00    +0.000 A 
ATOM      6  C   UNL     1       7.747   5.118  18.648  0.00  0.00    +0.000 A 
ATOM      7  N   UNL     1       7.030   5.437  19.730  0.00  0.00    +0.000 NA
ATOM      8  N   UNL     1       5.755   5.306  19.308  0.00  0.00    +0.000 N 
ATOM      9  C   UNL     1       5.637   4.901  18.003  0.00  0.00    +0.000 A 
ATOM     10  H   UNL     1       4.993   5.543  19.938  0.00  0.00    +0.000 HD
ENDROOT
BRANCH   1  12
ATOM     11  N   UNL     1       2.412   3.470  18.023  0.00  0.00    +0.000 N 
ATOM     12  C   UNL     1       3.148   4.662  17.835  0.00  0.00    +0.000 C 
ATOM     13  O   UNL     1       2.750   5.756  18.231  0.00  0.00    +0.000 OA
BRANCH  11  15
ATOM     14  C   UNL     1       1.046   3.370  20.110  0.00  0.00    +0.000 C 
ATOM     15  C   UNL     1       1.070   3.605  18.604  0.00  0.00    +0.000 C 
ENDBRANCH  11  15
BRANCH  11  16
ATOM     16  C   UNL     1       2.919   2.138  17.667  0.00  0.00    +0.000 C 
ATOM     17  C   UNL     1       3.767   1.359  18.659  0.00  0.00    +0.000 C 
ENDBRANCH  11  16
ENDBRANCH   1  12
TORSDOF 3
ENDMDL
MODEL 4
REMARK VINA RESULT:      -6.7      1.804      4.848
REMARK  Name = 
REMARK  5 active torsions:
REMARK  status: ('A' for Active; 'I' for Inactive)
REMARK    1  A    between atoms: C_1  and  C_2
REMARK    2  A    between atoms: C_2  and  N_3
REMARK    3  A    between atoms: N_3  and  C_4
REMARK    4  A    between atoms: C_4  and  C_5
REMARK    5  A    between atoms: C_6  and  C_8
REMARK                            x       y       z     vdW  Elec       q    Type
REMARK                         _______ _______ _______ _____ _____    ______ ____
ROOT
ATOM      1  C   UNL     1       4.139   3.847  18.563  0.00  0.00    +0.000 A 
ATOM      2  C   UNL     1       3.843   2.680  17.841  0.00  0.00    +0.000 A 
ATOM      3  C   UNL     1       2.544   2.171  17.761  0.00  0.00    +0.000 A 
ATOM      4  C   UNL     1       1.504   2.756  18.486  0.00  0.00    +0.000 A 
ATOM      5  C   UNL     1       1.809   3.821  19.348  0.00  0.00    +0.000 A 
ATOM      6  C   UNL     1       1.101   4.600  20.289  0.00  0.00    +0.000 A 
ATOM      7  N   UNL     1       1.869   5.516  20.886  0.00  0.00    +0.000 NA
ATOM      8  N   UNL     1       3.078   5.325  20.318  0.00  0.00    +0.000 N 
ATOM      9  C   UNL     1       3.102   4.332  19.373  0.00  0.00    +0.000 A 
ATOM     10  H   UNL     1       3.872   5.874  20.638  0.00  0.00    +0.000 HD
ENDROOT
BRANCH   1  12
ATOM     11  N   UNL     1       5.963   5.167  17.398  0.00  0.00    +0.000 N 
ATOM     12  C   UNL     1       5.464   4.544  18.564  0.00  0.00    +0.000 C 
ATOM     13  O   UNL     1       6.047   4.600  19.646  0.00  0.00    +0.000 OA
BRANCH  11  15
ATOM     14  C   UNL     1       7.243   7.309  17.467  0.00  0.00    +0.000 C 
ATOM     15  C   UNL     1       7.291   5.785  17.493  0.00  0.00    +0.000 C 
ENDBRANCH  11  15
BRANCH  11  16
ATOM     16  C   UNL     1       5.228   5.215  16.126  0.00  0.00    +0.000 C 
ATOM     17  C   UNL     1       5.663   4.334  14.966  0.00  0.00    +0.000 C 
ENDBRANCH  11  16
ENDBRANCH   1  12
TORSDOF 3
ENDMDL
MODEL 5
REMARK VINA RESULT:      -6.5      1.740      2.494
REMARK  Name = 
REMARK  5 active torsions:
REMARK  status: ('A' for Active; 'I' for Inactive)
REMARK    1  A    between atoms: C_1  and  C_2
REMARK    2  A    between atoms: C_2  and  N_3
REMARK    3  A    between atoms: N_3  and  C_4
REMARK    4  A    between atoms: C_4  and  C_5
REMARK    5  A    between atoms: C_6  and  C_8
REMARK                            x       y       z     vdW  Elec       q    Type
REMARK                         _______ _______ _______ _____ _____    ______ ____
ROOT
ATOM      1  C   UNL     1       5.646   4.530  18.561  0.00  0.00    +0.000 A 
ATOM      2  C   UNL     1       6.430   5.443  19.282  0.00  0.00    +0.000 A 
ATOM      3  C   UNL     1       7.328   6.306  18.648  0.00  0.00    +0.000 A 
ATOM      4  C   UNL     1       7.552   6.216  17.272  0.00  0.00    +0.000 A 
ATOM      5  C   UNL     1       6.905   5.196  16.557  0.00  0.00    +0.000 A 
ATOM      6  C   UNL     1       6.926   4.717  15.229  0.00  0.00    +0.000 A 
ATOM      7  N   UNL     1       6.111   3.674  15.042  0.00  0.00    +0.000 NA
ATOM      8  N   UNL     1       5.561   3.488  16.259  0.00  0.00    +0.000 N 
ATOM      9  C   UNL     1       5.985   4.382  17.209  0.00  0.00    +0.000 A 
ATOM     10  H   UNL     1       4.925   2.707  16.405  0.00  0.00    +0.000 HD
ENDROOT
BRANCH   1  12
ATOM     11  N   UNL     1       3.191   3.982  18.880  0.00  0.00    +0.000 N 
ATOM     12  C   UNL     1       4.549   3.692  19.143  0.00  0.00    +0.000 C 
ATOM     13  O   UNL     1       4.903   2.711  19.795  0.00  0.00    +0.000 OA
BRANCH  11  15
ATOM     14  C   UNL     1       1.497   3.809  20.705  0.00  0.00    +0.000 C 
ATOM     15  C   UNL     1       2.193   3.126  19.533  0.00  0.00    +0.000 C 
ENDBRANCH  11  15
BRANCH  11  16
ATOM     16  C   UNL     1       2.749   5.078  18.007  0.00  0.00    +0.000 C 
ATOM     17  C   UNL     1       2.718   6.502  18.536  0.00  0.00    +0.000 C 
ENDBRANCH  11  16
ENDBRANCH   1  12
TORSDOF 3
ENDMDL
MODEL 6
REMARK VINA RESULT:      -6.5      1.276      1.488
REMARK  Name = 
REMARK  5 active torsions:
REMARK  status: ('A' for Active; 'I' for Inactive)
REMARK    1  A    between atoms: C_1  and  C_2
REMARK    2  A    between atoms: C_2  and  N_3
REMARK    3  A    between atoms: N_3  and  C_4
REMARK    4  A    between atoms: C_4  and  C_5
REMARK    5  A    between atoms: C_6  and  C_8
REMARK                            x       y       z     vdW  Elec       q    Type
REMARK                         _______ _______ _______ _____ _____    ______ ____
ROOT
ATOM      1  C   UNL     1       4.859   3.898  18.277  0.00  0.00    +0.000 A 
ATOM      2  C   UNL     1       4.285   3.826  16.998  0.00  0.00    +0.000 A 
ATOM      3  C   UNL     1       4.904   4.391  15.879  0.00  0.00    +0.000 A 
ATOM      4  C   UNL     1       6.075   5.140  16.015  0.00  0.00    +0.000 A 
ATOM      5  C   UNL     1       6.574   5.369  17.307  0.00  0.00    +0.000 A 
ATOM      6  C   UNL     1       7.631   6.117  17.869  0.00  0.00    +0.000 A 
ATOM      7  N   UNL     1       7.685   6.018  19.200  0.00  0.00    +0.000 NA
ATOM      8  N   UNL     1       6.656   5.195  19.492  0.00  0.00    +0.000 N 
ATOM      9  C   UNL     1       5.961   4.757  18.395  0.00  0.00    +0.000 A 
ATOM     10  H   UNL     1       6.441   4.991  20.466  0.00  0.00    +0.000 HD
ENDROOT
BRANCH   1  12
ATOM     11  N   UNL     1       3.094   3.510  20.056  0.00  0.00    +0.000 N 
ATOM     12  C   UNL     1       4.347   3.184  19.489  0.00  0.00    +0.000 C 
ATOM     13  O   UNL     1       5.045   2.262  19.911  0.00  0.00    +0.000 OA
BRANCH  11  15
ATOM     14  C   UNL     1       1.201   2.792  21.515  0.00  0.00    +0.000 C 
ATOM     15  C   UNL     1       2.705   2.781  21.269  0.00  0.00    +0.000 C 
ENDBRANCH  11  15
BRANCH  11  16
ATOM     16  C   UNL     1       2.192   4.526  19.498  0.00  0.00    +0.000 C 
ATOM     17  C   UNL     1       2.362   5.986  19.884  0.00  0.00    +0.000 C 
ENDBRANCH  11  16
ENDBRANCH   1  12
TORSDOF 3
ENDMDL
MODEL 7
REMARK VINA RESULT:      -6.5      2.086      2.830
REMARK  Name = 
REMARK  5 active torsions:
REMARK  status: ('A' for Active; 'I' for Inactive)
REMARK    1  A    between atoms: C_1  and  C_2
REMARK    2  A    between atoms: C_2  and  N_3
REMARK    3  A    between atoms: N_3  and  C_4
REMARK    4  A    between atoms: C_4  and  C_5
REMARK    5  A    between atoms: C_6  and  C_8
REMARK                            x       y       z     vdW  Elec       q    Type
REMARK                         _______ _______ _______ _____ _____    ______ ____
ROOT
ATOM      1  C   UNL     1       4.563   4.998  18.119  0.00  0.00    +0.000 A 
ATOM      2  C   UNL     1       4.270   6.364  18.248  0.00  0.00    +0.000 A 
ATOM      3  C   UNL     1       4.365   7.244  17.166  0.00  0.00    +0.000 A 
ATOM      4  C   UNL     1       4.858   6.807  15.934  0.00  0.00    +0.000 A 
ATOM      5  C   UNL     1       5.317   5.485  15.830  0.00  0.00    +0.000 A 
ATOM      6  C   UNL     1       5.948   4.705  14.837  0.00  0.00    +0.000 A 
ATOM      7  N   UNL     1       6.206   3.458  15.244  0.00  0.00    +0.000 NA
ATOM      8  N   UNL     1       5.730   3.439  16.507  0.00  0.00    +0.000 N 
ATOM      9  C   UNL     1       5.168   4.623  16.911  0.00  0.00    +0.000 A 
ATOM     10  H   UNL     1       5.848   2.602  17.072  0.00  0.00    +0.000 HD
ENDROOT
BRANCH   1  12
ATOM     11  N   UNL     1       3.028   3.691  19.657  0.00  0.00    +0.000 N 
ATOM     12  C   UNL     1       4.329   3.966  19.179  0.00  0.00    +0.000 C 
ATOM     13  O   UNL     1       5.319   3.335  19.548  0.00  0.00    +0.000 OA
BRANCH  11  15
ATOM     14  C   UNL     1       1.560   2.723  21.429  0.00  0.00    +0.000 C 
ATOM     15  C   UNL     1       2.913   2.692  20.727  0.00  0.00    +0.000 C 
ENDBRANCH  11  15
BRANCH  11  16
ATOM     16  C   UNL     1       1.819   4.349  19.144  0.00  0.00    +0.000 C 
ATOM     17  C   UNL     1       1.324   4.038  17.742  0.00  0.00    +0.000 C 
ENDBRANCH  11  16
ENDBRANCH   1  12
TORSDOF 3
ENDMDL
MODEL 8
REMARK VINA RESULT:      -6.4      1.545      2.186
REMARK  Name = 
REMARK  5 active torsions:
REMARK  status: ('A' for Active; 'I' for Inactive)
REMARK    1  A    between atoms: C_1  and  C_2
REMARK    2  A    between atoms: C_2  and  N_3
REMARK    3  A    between atoms: N_3  and  C_4
REMARK    4  A    between atoms: C_4  and  C_5
REMARK    5  A    between atoms: C_6  and  C_8
REMARK                            x       y       z     vdW  Elec       q    Type
REMARK                         _______ _______ _______ _____ _____    ______ ____
ROOT
ATOM      1  C   UNL     1       4.596   4.796  18.024  0.00  0.00    +0.000 A 
ATOM      2  C   UNL     1       4.315   4.664  16.655  0.00  0.00    +0.000 A 
ATOM      3  C   UNL     1       5.320   4.420  15.716  0.00  0.00    +0.000 A 
ATOM      4  C   UNL     1       6.663   4.401  16.098  0.00  0.00    +0.000 A 
ATOM      5  C   UNL     1       6.981   4.700  17.432  0.00  0.00    +0.000 A 
ATOM      6  C   UNL     1       8.166   4.873  18.179  0.00  0.00    +0.000 A 
ATOM      7  N   UNL     1       7.932   5.175  19.459  0.00  0.00    +0.000 NA
ATOM      8  N   UNL     1       6.585   5.191  19.534  0.00  0.00    +0.000 N 
ATOM      9  C   UNL     1       5.956   4.895  18.351  0.00  0.00    +0.000 A 
ATOM     10  H   UNL     1       6.136   5.448  20.410  0.00  0.00    +0.000 HD
ENDROOT
BRANCH   1  12
ATOM     11  N   UNL     1       3.211   3.766  19.881  0.00  0.00    +0.000 N 
ATOM     12  C   UNL     1       3.567   4.894  19.107  0.00  0.00    +0.000 C 
ATOM     13  O   UNL     1       3.111   6.016  19.323  0.00  0.00    +0.000 OA
BRANCH  11  15
ATOM     14  C   UNL     1       0.772   3.586  20.381  0.00  0.00    +0.000 C 
ATOM     15  C   UNL     1       2.161   3.957  20.888  0.00  0.00    +0.000 C 
ENDBRANCH  11  15
BRANCH  11  16
ATOM     16  C   UNL     1       3.831   2.443  19.719  0.00  0.00    +0.000 C 
ATOM     17  C   UNL     1       3.424   1.553  18.557  0.00  0.00    +0.000 C 
ENDBRANCH  11  16
ENDBRANCH   1  12
TORSDOF 3
ENDMDL
MODEL 9
REMARK VINA RESULT:      -6.4      2.044      4.899
REMARK  Name = 
REMARK  5 active torsions:
REMARK  status: ('A' for Active; 'I' for Inactive)
REMARK    1  A    between atoms: C_1  and  C_2
REMARK    2  A    between atoms: C_2  and  N_3
REMARK    3  A    between atoms: N_3  and  C_4
REMARK    4  A    between atoms: C_4  and  C_5
REMARK    5  A    between atoms: C_6  and  C_8
REMARK                            x       y       z     vdW  Elec       q    Type
REMARK                         _______ _______ _______ _____ _____    ______ ____
ROOT
ATOM      1  C   UNL     1       4.041   4.900  18.418  0.00  0.00    +0.000 A 
ATOM      2  C   UNL     1       2.966   5.733  18.076  0.00  0.00    +0.000 A 
ATOM      3  C   UNL     1       1.655   5.254  18.004  0.00  0.00    +0.000 A 
ATOM      4  C   UNL     1       1.383   3.894  18.174  0.00  0.00    +0.000 A 
ATOM      5  C   UNL     1       2.463   3.015  18.349  0.00  0.00    +0.000 A 
ATOM      6  C   UNL     1       2.626   1.618  18.458  0.00  0.00    +0.000 A 
ATOM      7  N   UNL     1       3.905   1.255  18.603  0.00  0.00    +0.000 NA
ATOM      8  N   UNL     1       4.564   2.432  18.591  0.00  0.00    +0.000 N 
ATOM      9  C   UNL     1       3.751   3.528  18.459  0.00  0.00    +0.000 A 
ATOM     10  H   UNL     1       5.580   2.435  18.637  0.00  0.00    +0.000 HD
ENDROOT
BRANCH   1  12
ATOM     11  N   UNL     1       6.138   6.146  17.726  0.00  0.00    +0.000 N 
ATOM     12  C   UNL     1       5.441   5.365  18.676  0.00  0.00    +0.000 C 
ATOM     13  O   UNL     1       5.911   5.088  19.778  0.00  0.00    +0.000 OA
BRANCH  11  15
ATOM     14  C   UNL     1       7.864   7.948  17.672  0.00  0.00    +0.000 C 
ATOM     15  C   UNL     1       7.520   6.514  18.056  0.00  0.00    +0.000 C 
ENDBRANCH  11  15
BRANCH  11  16
ATOM     16  C   UNL     1       5.552   6.588  16.453  0.00  0.00    +0.000 C 
ATOM     17  C   UNL     1       5.508   5.638  15.267  0.00  0.00    +0.000 C 
ENDBRANCH  11  16
ENDBRANCH   1  12
TORSDOF 3
ENDMDL
