MODEL 1
REMARK VINA RESULT:      -6.9      0.000      0.000
REMARK  Name = 
REMARK  6 active torsions:
REMARK  status: ('A' for Active; 'I' for Inactive)
REMARK    1  A    between atoms: C_1  and  C_2
REMARK    2  A    between atoms: C_2  and  O_3
REMARK    3  A    between atoms: O_3  and  C_4
REMARK    4  A    between atoms: C_4  and  C_6
REMARK    5  A    between atoms: N_9  and  C_10
REMARK    6  A    between atoms: C_10  and  C_11
REMARK                            x       y       z     vdW  Elec       q    Type
REMARK                         _______ _______ _______ _____ _____    ______ ____
ROOT
ATOM      1  C   UNL     1       1.586   2.555  18.999  0.00  0.00    +0.000 C 
ATOM      2  C   UNL     1       2.876   1.735  19.074  0.00  0.00    +0.000 C 
ATOM      3  C   UNL     1       4.111   2.639  19.081  0.00  0.00    +0.000 C 
ATOM      4  N   UNL     1       4.160   3.462  17.864  0.00  0.00    +0.000 NA
ATOM      5  C   UNL     1       2.966   4.320  17.767  0.00  0.00    +0.000 C 
ATOM      6  C   UNL     1       1.657   3.521  17.812  0.00  0.00    +0.000 C 
ENDROOT
BRANCH   1   7
ATOM      7  C   UNL     1       1.361   3.279  20.318  0.00  0.00    +0.000 C 
ATOM      8  O   UNL     1       1.536   2.800  21.427  0.00  0.00    +0.000 OA
BRANCH   7   9
ATOM      9  O   UNL     1       0.862   4.526  20.073  0.00  0.00    +0.000 OA
BRANCH   9  11
ATOM     10  C   UNL     1       2.431   6.335  20.144  0.00  0.00    +0.000 C 
ATOM     11  C   UNL     1       1.363   5.575  20.911  0.00  0.00    +0.000 C 
ENDBRANCH   9  11
ENDBRANCH   7   9
ENDBRANCH   1   7
BRANCH   4  12
ATOM     12  C   UNL     1       5.376   4.304  17.829  0.00  0.00    +0.000 C 
BRANCH  12  13
ATOM     13  C   UNL     1       5.919   4.523  16.436  0.00  0.00    +0.000 A 
ATOM     14  C   UNL     1       5.423   3.817  15.336  0.00  0.00    +0.000 A 
ATOM     15  C   UNL     1       6.000   4.002  14.082  0.00  0.00    +0.000 A 
ATOM     16  C   UNL     1       7.049   4.900  13.978  0.00  0.00    +0.000 A 
ATOM     17 CL   UNL     1       7.843   5.154  12.480  0.00  0.00    +0.000 Cl
ATOM     18  N   UNL     1       7.544   5.620  15.005  0.00  0.00    +0.000 NA
ATOM     19  C   UNL     1       6.965   5.416  16.210  0.00  0.00    +0.000 A 
ENDBRANCH  12  13
ENDBRANCH   4  12
TORSDOF 5
ENDMDL
MODEL 2
REMARK VINA RESULT:      -6.5      4.502      7.044
REMARK  Name = 
REMARK  6 active torsions:
REMARK  status: ('A' for Active; 'I' for Inactive)
REMARK    1  A    between atoms: C_1  and  C_2
REMARK    2  A    between atoms: C_2  and  O_3
REMARK    3  A    between atoms: O_3  and  C_4
REMARK    4  A    between atoms: C_4  and  C_6
REMARK    5  A    between atoms: N_9  and  C_10
REMARK    6  A    between atoms: C_10  and  C_11
REMARK                            x       y       z     vdW  Elec       q    Type
REMARK                         _______ _______ _______ _____ _____    ______ ____
ROOT
ATOM      1  C   UNL     1       7.710   5.901  17.953  0.00  0.00    +0.000 C 
ATOM      2  C   UNL     1       7.233   5.079  16.754  0.00  0.00    +0.000 C 
ATOM      3  C   UNL     1       5.715   5.171  16.585  0.00  0.00    +0.000 C 
ATOM      4  N   UNL     1       5.026   4.675  17.785  0.00  0.00    +0.000 NA
ATOM      5  C   UNL     1       5.404   5.471  18.968  0.00  0.00    +0.000 C 
ATOM      6  C   UNL     1       6.919   5.501  19.202  0.00  0.00    +0.000 C 
ENDROOT
BRANCH   1   7
ATOM      7  C   UNL     1       7.582   7.384  17.642  0.00  0.00    +0.000 C 
ATOM      8  O   UNL     1       6.932   7.861  16.724  0.00  0.00    +0.000 OA
BRANCH   7   9
ATOM      9  O   UNL     1       8.365   8.100  18.501  0.00  0.00    +0.000 OA
BRANCH   9  11
ATOM     10  C   UNL     1       9.370  10.132  19.278  0.00  0.00    +0.000 C 
ATOM     11  C   UNL     1       8.465   9.504  18.232  0.00  0.00    +0.000 C 
ENDBRANCH   9  11
ENDBRANCH   7   9
ENDBRANCH   1   7
BRANCH   4  12
ATOM     12  C   UNL     1       3.557   4.709  17.618  0.00  0.00    +0.000 C 
BRANCH  12  13
ATOM     13  C   UNL     1       2.802   4.153  18.804  0.00  0.00    +0.000 A 
ATOM     14  C   UNL     1       1.928   4.944  19.555  0.00  0.00    +0.000 A 
ATOM     15  C   UNL     1       1.306   4.408  20.680  0.00  0.00    +0.000 A 
ATOM     16  C   UNL     1       1.578   3.090  21.003  0.00  0.00    +0.000 A 
ATOM     17 CL   UNL     1       0.888   2.365  22.395  0.00  0.00    +0.000 Cl
ATOM     18  N   UNL     1       2.393   2.282  20.295  0.00  0.00    +0.000 NA
ATOM     19  C   UNL     1       2.984   2.832  19.210  0.00  0.00    +0.000 A 
ENDBRANCH  12  13
ENDBRANCH   4  12
TORSDOF 5
ENDMDL
MODEL 3
REMARK VINA RESULT:      -6.4      4.163      6.807
REMARK  Name = 
REMARK  6 active torsions:
REMARK  status: ('A' for Active; 'I' for Inactive)
REMARK    1  A    between atoms: C_1  and  C_2
REMARK    2  A    between atoms: C_2  and  O_3
REMARK    3  A    between atoms: O_3  and  C_4
REMARK    4  A    between atoms: C_4  and  C_6
REMARK    5  A    between atoms: N_9  and  C_10
REMARK    6  A    between atoms: C_10  and  C_11
REMARK                            x       y       z     vdW  Elec       q    Type
REMARK                         _______ _______ _______ _____ _____    ______ ____
ROOT
ATOM      1  C   UNL     1       7.196   6.174  17.795  0.00  0.00    +0.000 C 
ATOM      2  C   UNL     1       6.496   5.810  19.107  0.00  0.00    +0.000 C 
ATOM      3  C   UNL     1       5.118   5.197  18.851  0.00  0.00    +0.000 C 
ATOM      4  N   UNL     1       4.258   6.136  18.117  0.00  0.00    +0.000 NA
ATOM      5  C   UNL     1       4.855   6.479  16.814  0.00  0.00    +0.000 C 
ATOM      6  C   UNL     1       6.272   7.051  16.944  0.00  0.00    +0.000 C 
ENDROOT
BRANCH   1   7
ATOM      7  C   UNL     1       7.616   4.906  17.069  0.00  0.00    +0.000 C 
ATOM      8  O   UNL     1       8.254   3.987  17.560  0.00  0.00    +0.000 OA
BRANCH   7   9
ATOM      9  O   UNL     1       7.235   4.983  15.761  0.00  0.00    +0.000 OA
BRANCH   9  11
ATOM     10  C   UNL     1       6.075   4.163  13.831  0.00  0.00    +0.000 C 
ATOM     11  C   UNL     1       6.500   3.860  15.257  0.00  0.00    +0.000 C 
ENDBRANCH   9  11
ENDBRANCH   7   9
ENDBRANCH   1   7
BRANCH   4  12
ATOM     12  C   UNL     1       2.904   5.579  17.907  0.00  0.00    +0.000 C 
BRANCH  12  13
ATOM     13  C   UNL     1       2.453   4.655  19.015  0.00  0.00    +0.000 A 
ATOM     14  C   UNL     1       1.922   3.391  18.746  0.00  0.00    +0.000 A 
ATOM     15  C   UNL     1       1.456   2.601  19.794  0.00  0.00    +0.000 A 
ATOM     16  C   UNL     1       1.552   3.109  21.079  0.00  0.00    +0.000 A 
ATOM     17 CL   UNL     1       0.963   2.220  22.422  0.00  0.00    +0.000 Cl
ATOM     18  N   UNL     1       2.078   4.311  21.388  0.00  0.00    +0.000 NA
ATOM     19  C   UNL     1       2.519   5.055  20.349  0.00  0.00    +0.000 A 
ENDBRANCH  12  13
ENDBRANCH   4  12
TORSDOF 5
ENDMDL
MODEL 4
REMARK VINA RESULT:      -6.3      4.611      7.266
REMARK  Name = 
REMARK  6 active torsions:
REMARK  status: ('A' for Active; 'I' for Inactive)
REMARK    1  A    between atoms: C_1  and  C_2
REMARK    2  A    between atoms: C_2  and  O_3
REMARK    3  A    between atoms: O_3  and  C_4
REMARK    4  A    between atoms: C_4  and  C_6
REMARK    5  A    between atoms: N_9  and  C_10
REMARK    6  A    between atoms: C_10  and  C_11
REMARK                            x       y       z     vdW  Elec       q    Type
REMARK                         _______ _______ _______ _____ _____    ______ ____
ROOT
ATOM      1  C   UNL     1       6.620   4.569  17.250  0.00  0.00    +0.000 C 
ATOM      2  C   UNL     1       5.181   4.079  17.426  0.00  0.00    +0.000 C 
ATOM      3  C   UNL     1       4.173   5.156  17.023  0.00  0.00    +0.000 C 
ATOM      4  N   UNL     1       4.349   6.366  17.840  0.00  0.00    +0.000 NA
ATOM      5  C   UNL     1       5.704   6.919  17.665  0.00  0.00    +0.000 C 
ATOM      6  C   UNL     1       6.805   5.900  17.985  0.00  0.00    +0.000 C 
ENDROOT
BRANCH   1   7
ATOM      7  C   UNL     1       6.948   4.678  15.769  0.00  0.00    +0.000 C 
ATOM      8  O   UNL     1       7.678   5.517  15.267  0.00  0.00    +0.000 OA
BRANCH   7   9
ATOM      9  O   UNL     1       6.240   3.739  15.076  0.00  0.00    +0.000 OA
BRANCH   9  11
ATOM     10  C   UNL     1       6.286   3.474  12.695  0.00  0.00    +0.000 C 
ATOM     11  C   UNL     1       5.628   4.190  13.861  0.00  0.00    +0.000 C 
ENDBRANCH   9  11
ENDBRANCH   7   9
ENDBRANCH   1   7
BRANCH   4  12
ATOM     12  C   UNL     1       3.348   7.400  17.498  0.00  0.00    +0.000 C 
BRANCH  12  13
ATOM     13  C   UNL     1       2.492   7.822  18.671  0.00  0.00    +0.000 A 
ATOM     14  C   UNL     1       2.384   7.035  19.821  0.00  0.00    +0.000 A 
ATOM     15  C   UNL     1       1.531   7.431  20.849  0.00  0.00    +0.000 A 
ATOM     16  C   UNL     1       0.825   8.610  20.687  0.00  0.00    +0.000 A 
ATOM     17 CL   UNL     1      -0.278   9.147  21.884  0.00  0.00    +0.000 Cl
ATOM     18  N   UNL     1       0.916   9.413  19.606  0.00  0.00    +0.000 NA
ATOM     19  C   UNL     1       1.750   9.001  18.625  0.00  0.00    +0.000 A 
ENDBRANCH  12  13
ENDBRANCH   4  12
TORSDOF 5
ENDMDL
MODEL 5
REMARK VINA RESULT:      -6.3      4.598      6.812
REMARK  Name = 
REMARK  6 active torsions:
REMARK  status: ('A' for Active; 'I' for Inactive)
REMARK    1  A    between atoms: C_1  and  C_2
REMARK    2  A    between atoms: C_2  and  O_3
REMARK    3  A    between atoms: O_3  and  C_4
REMARK    4  A    between atoms: C_4  and  C_6
REMARK    5  A    between atoms: N_9  and  C_10
REMARK    6  A    between atoms: C_10  and  C_11
REMARK                            x       y       z     vdW  Elec       q    Type
REMARK                         _______ _______ _______ _____ _____    ______ ____
ROOT
ATOM      1  C   UNL     1       5.663   5.152  16.354  0.00  0.00    +0.000 C 
ATOM      2  C   UNL     1       5.065   6.559  16.292  0.00  0.00    +0.000 C 
ATOM      3  C   UNL     1       4.381   6.932  17.608  0.00  0.00    +0.000 C 
ATOM      4  N   UNL     1       3.298   5.987  17.919  0.00  0.00    +0.000 NA
ATOM      5  C   UNL     1       3.826   4.616  18.050  0.00  0.00    +0.000 C 
ATOM      6  C   UNL     1       4.590   4.154  16.803  0.00  0.00    +0.000 C 
ENDROOT
BRANCH   1   7
ATOM      7  C   UNL     1       6.873   5.149  17.275  0.00  0.00    +0.000 C 
ATOM      8  O   UNL     1       7.095   4.324  18.148  0.00  0.00    +0.000 OA
BRANCH   7   9
ATOM      9  O   UNL     1       7.637   6.252  17.027  0.00  0.00    +0.000 OA
BRANCH   9  11
ATOM     10  C   UNL     1       7.903   8.516  17.767  0.00  0.00    +0.000 C 
ATOM     11  C   UNL     1       7.967   7.053  18.169  0.00  0.00    +0.000 C 
ENDBRANCH   9  11
ENDBRANCH   7   9
ENDBRANCH   1   7
BRANCH   4  12
ATOM     12  C   UNL     1       2.592   6.363  19.163  0.00  0.00    +0.000 C 
BRANCH  12  13
ATOM     13  C   UNL     1       1.964   7.737  19.108  0.00  0.00    +0.000 A 
ATOM     14  C   UNL     1       1.782   8.412  17.898  0.00  0.00    +0.000 A 
ATOM     15  C   UNL     1       1.261   9.704  17.902  0.00  0.00    +0.000 A 
ATOM     16  C   UNL     1       0.932  10.266  19.124  0.00  0.00    +0.000 A 
ATOM     17 CL   UNL     1       0.325  11.866  19.221  0.00  0.00    +0.000 Cl
ATOM     18  N   UNL     1       1.067   9.643  20.313  0.00  0.00    +0.000 NA
ATOM     19  C   UNL     1       1.577   8.392  20.276  0.00  0.00    +0.000 A 
ENDBRANCH  12  13
ENDBRANCH   4  12
TORSDOF 5
ENDMDL
MODEL 6
REMARK VINA RESULT:      -6.3      4.079      6.413
REMARK  Name = 
REMARK  6 active torsions:
REMARK  status: ('A' for Active; 'I' for Inactive)
REMARK    1  A    between atoms: C_1  and  C_2
REMARK    2  A    between atoms: C_2  and  O_3
REMARK    3  A    between atoms: O_3  and  C_4
REMARK    4  A    between atoms: C_4  and  C_6
REMARK    5  A    between atoms: N_9  and  C_10
REMARK    6  A    between atoms: C_10  and  C_11
REMARK                            x       y       z     vdW  Elec       q    Type
REMARK                         _______ _______ _______ _____ _____    ______ ____
ROOT
ATOM      1  C   UNL     1       6.396   6.641  17.052  0.00  0.00    +0.000 C 
ATOM      2  C   UNL     1       4.897   6.610  17.352  0.00  0.00    +0.000 C 
ATOM      3  C   UNL     1       4.420   5.189  17.664  0.00  0.00    +0.000 C 
ATOM      4  N   UNL     1       4.679   4.293  16.528  0.00  0.00    +0.000 NA
ATOM      5  C   UNL     1       6.121   4.237  16.228  0.00  0.00    +0.000 C 
ATOM      6  C   UNL     1       6.725   5.620  15.957  0.00  0.00    +0.000 C 
ENDROOT
BRANCH   1   7
ATOM      7  C   UNL     1       7.181   6.387  18.329  0.00  0.00    +0.000 C 
ATOM      8  O   UNL     1       6.912   5.542  19.168  0.00  0.00    +0.000 OA
BRANCH   7   9
ATOM      9  O   UNL     1       8.192   7.298  18.432  0.00  0.00    +0.000 OA
BRANCH   9  11
ATOM     10  C   UNL     1       8.685   9.641  18.542  0.00  0.00    +0.000 C 
ATOM     11  C   UNL     1       7.976   8.547  17.763  0.00  0.00    +0.000 C 
ENDBRANCH   9  11
ENDBRANCH   7   9
ENDBRANCH   1   7
BRANCH   4  12
ATOM     12  C   UNL     1       4.178   2.927  16.792  0.00  0.00    +0.000 C 
BRANCH  12  13
ATOM     13  C   UNL     1       3.368   2.816  18.064  0.00  0.00    +0.000 A 
ATOM     14  C   UNL     1       1.978   2.964  18.064  0.00  0.00    +0.000 A 
ATOM     15  C   UNL     1       1.281   2.922  19.269  0.00  0.00    +0.000 A 
ATOM     16  C   UNL     1       2.007   2.723  20.430  0.00  0.00    +0.000 A 
ATOM     17 CL   UNL     1       1.232   2.701  21.959  0.00  0.00    +0.000 Cl
ATOM     18  N   UNL     1       3.344   2.552  20.476  0.00  0.00    +0.000 NA
ATOM     19  C   UNL     1       3.993   2.600  19.291  0.00  0.00    +0.000 A 
ENDBRANCH  12  13
ENDBRANCH   4  12
TORSDOF 5
ENDMDL
MODEL 7
REMARK VINA RESULT:      -6.2      2.559      3.252
REMARK  Name = 
REMARK  6 active torsions:
REMARK  status: ('A' for Active; 'I' for Inactive)
REMARK    1  A    between atoms: C_1  and  C_2
REMARK    2  A    between atoms: C_2  and  O_3
REMARK    3  A    between atoms: O_3  and  C_4
REMARK    4  A    between atoms: C_4  and  C_6
REMARK    5  A    between atoms: N_9  and  C_10
REMARK    6  A    between atoms: C_10  and  C_11
REMARK                            x       y       z     vdW  Elec       q    Type
REMARK                         _______ _______ _______ _____ _____    ______ ____
ROOT
ATOM      1  C   UNL     1       1.986   4.864  19.551  0.00  0.00    +0.000 C 
ATOM      2  C   UNL     1       3.184   4.133  20.162  0.00  0.00    +0.000 C 
ATOM      3  C   UNL     1       4.433   4.285  19.290  0.00  0.00    +0.000 C 
ATOM      4  N   UNL     1       4.198   3.738  17.946  0.00  0.00    +0.000 NA
ATOM      5  C   UNL     1       3.088   4.446  17.283  0.00  0.00    +0.000 C 
ATOM      6  C   UNL     1       1.791   4.412  18.100  0.00  0.00    +0.000 C 
ENDROOT
BRANCH   1   7
ATOM      7  C   UNL     1       2.190   6.367  19.664  0.00  0.00    +0.000 C 
ATOM      8  O   UNL     1       2.861   7.048  18.904  0.00  0.00    +0.000 OA
BRANCH   7   9
ATOM      9  O   UNL     1       1.568   6.828  20.788  0.00  0.00    +0.000 OA
BRANCH   9  11
ATOM     10  C   UNL     1       0.062   8.554  21.491  0.00  0.00    +0.000 C 
ATOM     11  C   UNL     1       1.419   8.250  20.879  0.00  0.00    +0.000 C 
ENDBRANCH   9  11
ENDBRANCH   7   9
ENDBRANCH   1   7
BRANCH   4  12
ATOM     12  C   UNL     1       5.412   3.830  17.106  0.00  0.00    +0.000 C 
BRANCH  12  13
ATOM     13  C   UNL     1       6.223   5.083  17.351  0.00  0.00    +0.000 A 
ATOM     14  C   UNL     1       7.216   5.132  18.334  0.00  0.00    +0.000 A 
ATOM     15  C   UNL     1       7.890   6.328  18.571  0.00  0.00    +0.000 A 
ATOM     16  C   UNL     1       7.549   7.428  17.804  0.00  0.00    +0.000 A 
ATOM     17 CL   UNL     1       8.300   8.947  18.061  0.00  0.00    +0.000 Cl
ATOM     18  N   UNL     1       6.616   7.420  16.830  0.00  0.00    +0.000 NA
ATOM     19  C   UNL     1       5.977   6.246  16.625  0.00  0.00    +0.000 A 
ENDBRANCH  12  13
ENDBRANCH   4  12
TORSDOF 5
ENDMDL
MODEL 8
REMARK VINA RESULT:      -6.2      4.119      6.525
REMARK  Name = 
REMARK  6 active torsions:
REMARK  status: ('A' for Active; 'I' for Inactive)
REMARK    1  A    between atoms: C_1  and  C_2
REMARK    2  A    between atoms: C_2  and  O_3
REMARK    3  A    between atoms: O_3  and  C_4
REMARK    4  A    between atoms: C_4  and  C_6
REMARK    5  A    between atoms: N_9  and  C_10
REMARK    6  A    between atoms: C_10  and  C_11
REMARK                            x       y       z     vdW  Elec       q    Type
REMARK                         _______ _______ _______ _____ _____    ______ ____
ROOT
ATOM      1  C   UNL     1       6.731   6.364  16.795  0.00  0.00    +0.000 C 
ATOM      2  C   UNL     1       5.261   6.527  17.187  0.00  0.00    +0.000 C 
ATOM      3  C   UNL     1       4.629   5.183  17.554  0.00  0.00    +0.000 C 
ATOM      4  N   UNL     1       4.701   4.248  16.421  0.00  0.00    +0.000 NA
ATOM      5  C   UNL     1       6.103   4.006  16.035  0.00  0.00    +0.000 C 
ATOM      6  C   UNL     1       6.858   5.298  15.702  0.00  0.00    +0.000 C 
ENDROOT
BRANCH   1   7
ATOM      7  C   UNL     1       7.556   6.026  18.027  0.00  0.00    +0.000 C 
ATOM      8  O   UNL     1       7.720   4.906  18.483  0.00  0.00    +0.000 OA
BRANCH   7   9
ATOM      9  O   UNL     1       8.027   7.177  18.590  0.00  0.00    +0.000 OA
BRANCH   9  11
ATOM     10  C   UNL     1       8.671   9.484  18.498  0.00  0.00    +0.000 C 
ATOM     11  C   UNL     1       8.061   8.324  17.730  0.00  0.00    +0.000 C 
ENDBRANCH   9  11
ENDBRANCH   7   9
ENDBRANCH   1   7
BRANCH   4  12
ATOM     12  C   UNL     1       4.049   2.960  16.741  0.00  0.00    +0.000 C 
BRANCH  12  13
ATOM     13  C   UNL     1       3.391   2.938  18.102  0.00  0.00    +0.000 A 
ATOM     14  C   UNL     1       4.120   2.677  19.265  0.00  0.00    +0.000 A 
ATOM     15  C   UNL     1       3.460   2.600  20.489  0.00  0.00    +0.000 A 
ATOM     16  C   UNL     1       2.091   2.799  20.500  0.00  0.00    +0.000 A 
ATOM     17 CL   UNL     1       1.195   2.680  21.957  0.00  0.00    +0.000 Cl
ATOM     18  N   UNL     1       1.350   3.078  19.408  0.00  0.00    +0.000 NA
ATOM     19  C   UNL     1       2.019   3.144  18.235  0.00  0.00    +0.000 A 
ENDBRANCH  12  13
ENDBRANCH   4  12
TORSDOF 5
ENDMDL
MODEL 9
REMARK VINA RESULT:      -6.2      1.056      2.227
REMARK  Name = 
REMARK  6 active torsions:
REMARK  status: ('A' for Active; 'I' for Inactive)
REMARK    1  A    between atoms: C_1  and  C_2
REMARK    2  A    between atoms: C_2  and  O_3
REMARK    3  A    between atoms: O_3  and  C_4
REMARK    4  A    between atoms: C_4  and  C_6
REMARK    5  A    between atoms: N_9  and  C_10
REMARK    6  A    between atoms: C_10  and  C_11
REMARK                            x       y       z     vdW  Elec       q    Type
REMARK                         _______ _______ _______ _____ _____    ______ ____
ROOT
ATOM      1  C   UNL     1       1.904   5.719  19.460  0.00  0.00    +0.000 C 
ATOM      2  C   UNL     1       1.897   5.185  18.026  0.00  0.00    +0.000 C 
ATOM      3  C   UNL     1       3.136   4.333  17.743  0.00  0.00    +0.000 C 
ATOM      4  N   UNL     1       4.363   5.120  17.934  0.00  0.00    +0.000 NA
ATOM      5  C   UNL     1       4.454   5.614  19.320  0.00  0.00    +0.000 C 
ATOM      6  C   UNL     1       3.229   6.436  19.738  0.00  0.00    +0.000 C 
ENDROOT
BRANCH   1   7
ATOM      7  C   UNL     1       1.652   4.579  20.434  0.00  0.00    +0.000 C 
ATOM      8  O   UNL     1       2.240   4.407  21.490  0.00  0.00    +0.000 OA
BRANCH   7   9
ATOM      9  O   UNL     1       0.718   3.731  19.911  0.00  0.00    +0.000 OA
BRANCH   9  11
ATOM     10  C   UNL     1       1.700   1.716  19.065  0.00  0.00    +0.000 C 
ATOM     11  C   UNL     1       0.907   2.340  20.199  0.00  0.00    +0.000 C 
ENDBRANCH   9  11
ENDBRANCH   7   9
ENDBRANCH   1   7
BRANCH   4  12
ATOM     12  C   UNL     1       5.569   4.326  17.614  0.00  0.00    +0.000 C 
BRANCH  12  13
ATOM     13  C   UNL     1       6.046   4.500  16.190  0.00  0.00    +0.000 A 
ATOM     14  C   UNL     1       5.454   3.810  15.129  0.00  0.00    +0.000 A 
ATOM     15  C   UNL     1       5.971   3.949  13.843  0.00  0.00    +0.000 A 
ATOM     16  C   UNL     1       7.059   4.787  13.670  0.00  0.00    +0.000 A 
ATOM     17 CL   UNL     1       7.782   4.982  12.128  0.00  0.00    +0.000 Cl
ATOM     18  N   UNL     1       7.647   5.490  14.659  0.00  0.00    +0.000 NA
ATOM     19  C   UNL     1       7.124   5.332  15.896  0.00  0.00    +0.000 A 
ENDBRANCH  12  13
ENDBRANCH   4  12
TORSDOF 5
ENDMDL
