MODEL 1
REMARK VINA RESULT:      -5.5      0.000      0.000
REMARK  Name = 
REMARK  21 active torsions:
REMARK  status: ('A' for Active; 'I' for Inactive)
REMARK    1  A    between atoms: C_1  and  C_2
REMARK    2  A    between atoms: C_2  and  N_3
REMARK    3  A    between atoms: N_3  and  C_4
REMARK    4  A    between atoms: C_4  and  C_5
REMARK    5  A    between atoms: C_5  and  C_6
REMARK    6  A    between atoms: C_6  and  O_7
REMARK    7  A    between atoms: C_6  and  C_8
REMARK    8  A    between atoms: C_8  and  N_9
REMARK    9  A    between atoms: N_9  and  C_10
REMARK   10  A    between atoms: C_10  and  C_11
REMARK   11  A    between atoms: C_11  and  C_12
REMARK   12  A    between atoms: C_12  and  C_13
REMARK   13  A    between atoms: C_13  and  N_14
REMARK   14  A    between atoms: N_14  and  C_15
REMARK   15  A    between atoms: C_15  and  C_16
REMARK   16  A    between atoms: C_16  and  O_17
REMARK   17  A    between atoms: C_16  and  C_18
REMARK   18  A    between atoms: C_18  and  C_19
REMARK   19  A    between atoms: C_19  and  N_20
REMARK   20  A    between atoms: N_20  and  C_21
REMARK   21  A    between atoms: C_21  and  C_22
REMARK                            x       y       z     vdW  Elec       q    Type
REMARK                         _______ _______ _______ _____ _____    ______ ____
ROOT
ATOM      1  C   UNL     1       4.350   3.518  17.032  0.00  0.00    +0.000 C 
ENDROOT
BRANCH   1   2
ATOM      2  C   UNL     1       4.469   3.870  18.503  0.00  0.00    +0.000 C 
BRANCH   2   3
ATOM      3  N   UNL     1       5.853   3.721  18.969  0.00  0.00    +0.000 NA
ATOM      4  H   UNL     1       5.886   3.136  19.837  0.00  0.00    +0.000 HD
BRANCH   3   5
ATOM      5  C   UNL     1       6.480   5.028  19.213  0.00  0.00    +0.000 C 
BRANCH   5   6
ATOM      6  C   UNL     1       7.624   5.345  18.210  0.00  0.00    +0.000 C 
BRANCH   6   7
ATOM      7  O   UNL     1       8.105   4.163  17.619  0.00  0.00    +0.000 OA
ATOM      8  H   UNL     1       9.093   4.229  17.577  0.00  0.00    +0.000 HD
ENDBRANCH   6   7
BRANCH   6   9
ATOM      9  C   UNL     1       7.224   6.362  17.122  0.00  0.00    +0.000 C 
BRANCH   9  10
ATOM     10  C   UNL     1       6.645   5.730  15.835  0.00  0.00    +0.000 C 
BRANCH  10  11
ATOM     11  N   UNL     1       7.698   5.276  14.916  0.00  0.00    +0.000 NA
ATOM     12  H   UNL     1       8.340   6.080  14.708  0.00  0.00    +0.000 HD
BRANCH  11  14
ATOM     13  C   UNL     1       5.988   3.867  13.854  0.00  0.00    +0.000 C 
ATOM     14  C   UNL     1       7.123   4.862  13.631  0.00  0.00    +0.000 C 
ENDBRANCH  11  14
ENDBRANCH  10  11
ENDBRANCH   9  10
ENDBRANCH   6   9
ENDBRANCH   5   6
ENDBRANCH   3   5
ENDBRANCH   2   3
ENDBRANCH   1   2
BRANCH   1  15
ATOM     15  C   UNL     1       2.979   2.889  16.780  0.00  0.00    +0.000 C 
BRANCH  15  16
ATOM     16  C   UNL     1       1.998   3.307  17.857  0.00  0.00    +0.000 C 
BRANCH  16  17
ATOM     17  N   UNL     1       1.440   2.121  18.507  0.00  0.00    +0.000 NA
ATOM     18  H   UNL     1       1.751   1.271  17.982  0.00  0.00    +0.000 HD
BRANCH  17  19
ATOM     19  C   UNL     1       1.945   2.050  19.878  0.00  0.00    +0.000 C 
BRANCH  19  20
ATOM     20  C   UNL     1       1.052   2.849  20.846  0.00  0.00    +0.000 C 
BRANCH  20  21
ATOM     21  O   UNL     1       1.461   2.641  22.177  0.00  0.00    +0.000 OA
ATOM     22  H   UNL     1       1.821   3.500  22.519  0.00  0.00    +0.000 HD
ENDBRANCH  20  21
BRANCH  20  23
ATOM     23  C   UNL     1       1.057   4.359  20.528  0.00  0.00    +0.000 C 
BRANCH  23  24
ATOM     24  C   UNL     1       2.195   5.109  21.239  0.00  0.00    +0.000 C 
BRANCH  24  25
ATOM     25  N   UNL     1       3.016   5.840  20.273  0.00  0.00    +0.000 NA
ATOM     26  H   UNL     1       3.266   5.185  19.494  0.00  0.00    +0.000 HD
BRANCH  25  27
ATOM     27  C   UNL     1       2.239   6.952  19.713  0.00  0.00    +0.000 C 
ATOM     28  C   UNL     1       2.578   7.147  18.243  0.00  0.00    +0.000 C 
ENDBRANCH  25  27
ENDBRANCH  24  25
ENDBRANCH  23  24
ENDBRANCH  20  23
ENDBRANCH  19  20
ENDBRANCH  17  19
ENDBRANCH  16  17
ENDBRANCH  15  16
ENDBRANCH   1  15
TORSDOF 19
ENDMDL
MODEL 2
REMARK VINA RESULT:      -5.4      1.148      6.370
REMARK  Name = 
REMARK  21 active torsions:
REMARK  status: ('A' for Active; 'I' for Inactive)
REMARK    1  A    between atoms: C_1  and  C_2
REMARK    2  A    between atoms: C_2  and  N_3
REMARK    3  A    between atoms: N_3  and  C_4
REMARK    4  A    between atoms: C_4  and  C_5
REMARK    5  A    between atoms: C_5  and  C_6
REMARK    6  A    between atoms: C_6  and  O_7
REMARK    7  A    between atoms: C_6  and  C_8
REMARK    8  A    between atoms: C_8  and  N_9
REMARK    9  A    between atoms: N_9  and  C_10
REMARK   10  A    between atoms: C_10  and  C_11
REMARK   11  A    between atoms: C_11  and  C_12
REMARK   12  A    between atoms: C_12  and  C_13
REMARK   13  A    between atoms: C_13  and  N_14
REMARK   14  A    between atoms: N_14  and  C_15
REMARK   15  A    between atoms: C_15  and  C_16
REMARK   16  A    between atoms: C_16  and  O_17
REMARK   17  A    between atoms: C_16  and  C_18
REMARK   18  A    between atoms: C_18  and  C_19
REMARK   19  A    between atoms: C_19  and  N_20
REMARK   20  A    between atoms: N_20  and  C_21
REMARK   21  A    between atoms: C_21  and  C_22
REMARK                            x       y       z     vdW  Elec       q    Type
REMARK                         _______ _______ _______ _____ _____    ______ ____
ROOT
ATOM      1  C   UNL     1       3.615   1.618  18.011  0.00  0.00    +0.000 C 
ENDROOT
BRANCH   1   2
ATOM      2  C   UNL     1       2.747   1.762  19.247  0.00  0.00    +0.000 C 
BRANCH   2   3
ATOM      3  N   UNL     1       1.337   1.948  18.880  0.00  0.00    +0.000 NA
ATOM      4  H   UNL     1       1.143   1.519  17.945  0.00  0.00    +0.000 HD
BRANCH   3   5
ATOM      5  C   UNL     1       0.968   3.371  18.873  0.00  0.00    +0.000 C 
BRANCH   5   6
ATOM      6  C   UNL     1       0.911   3.986  20.299  0.00  0.00    +0.000 C 
BRANCH   6   7
ATOM      7  O   UNL     1       0.782   2.976  21.269  0.00  0.00    +0.000 OA
ATOM      8  H   UNL     1       1.309   2.195  20.959  0.00  0.00    +0.000 HD
ENDBRANCH   6   7
BRANCH   6   9
ATOM      9  C   UNL     1       2.114   4.892  20.628  0.00  0.00    +0.000 C 
BRANCH   9  10
ATOM     10  C   UNL     1       2.041   6.307  20.007  0.00  0.00    +0.000 C 
BRANCH  10  11
ATOM     11  N   UNL     1       2.537   6.334  18.623  0.00  0.00    +0.000 NA
ATOM     12  H   UNL     1       3.506   5.931  18.601  0.00  0.00    +0.000 HD
BRANCH  11  14
ATOM     13  C   UNL     1       1.774   8.643  18.975  0.00  0.00    +0.000 C 
ATOM     14  C   UNL     1       2.650   7.714  18.140  0.00  0.00    +0.000 C 
ENDBRANCH  11  14
ENDBRANCH  10  11
ENDBRANCH   9  10
ENDBRANCH   6   9
ENDBRANCH   5   6
ENDBRANCH   3   5
ENDBRANCH   2   3
ENDBRANCH   1   2
BRANCH   1  15
ATOM     15  C   UNL     1       4.137   2.997  17.606  0.00  0.00    +0.000 C 
BRANCH  15  16
ATOM     16  C   UNL     1       5.027   3.566  18.692  0.00  0.00    +0.000 C 
BRANCH  16  17
ATOM     17  N   UNL     1       5.150   5.015  18.523  0.00  0.00    +0.000 NA
ATOM     18  H   UNL     1       4.464   5.488  19.156  0.00  0.00    +0.000 HD
BRANCH  17  19
ATOM     19  C   UNL     1       6.505   5.422  18.892  0.00  0.00    +0.000 C 
BRANCH  19  20
ATOM     20  C   UNL     1       7.454   5.379  17.679  0.00  0.00    +0.000 C 
BRANCH  20  21
ATOM     21  O   UNL     1       8.113   4.137  17.613  0.00  0.00    +0.000 OA
ATOM     22  H   UNL     1       9.061   4.285  17.868  0.00  0.00    +0.000 HD
ENDBRANCH  20  21
BRANCH  20  23
ATOM     23  C   UNL     1       6.712   5.648  16.352  0.00  0.00    +0.000 C 
BRANCH  23  24
ATOM     24  C   UNL     1       7.284   4.835  15.179  0.00  0.00    +0.000 C 
BRANCH  24  25
ATOM     25  N   UNL     1       6.417   3.699  14.864  0.00  0.00    +0.000 NA
ATOM     26  H   UNL     1       5.798   3.521  15.691  0.00  0.00    +0.000 HD
BRANCH  25  27
ATOM     27  C   UNL     1       5.570   4.036  13.714  0.00  0.00    +0.000 C 
ATOM     28  C   UNL     1       6.099   3.368  12.453  0.00  0.00    +0.000 C 
ENDBRANCH  25  27
ENDBRANCH  24  25
ENDBRANCH  23  24
ENDBRANCH  20  23
ENDBRANCH  19  20
ENDBRANCH  17  19
ENDBRANCH  16  17
ENDBRANCH  15  16
ENDBRANCH   1  15
TORSDOF 19
ENDMDL
MODEL 3
REMARK VINA RESULT:      -5.4      2.458      4.145
REMARK  Name = 
REMARK  21 active torsions:
REMARK  status: ('A' for Active; 'I' for Inactive)
REMARK    1  A    between atoms: C_1  and  C_2
REMARK    2  A    between atoms: C_2  and  N_3
REMARK    3  A    between atoms: N_3  and  C_4
REMARK    4  A    between atoms: C_4  and  C_5
REMARK    5  A    between atoms: C_5  and  C_6
REMARK    6  A    between atoms: C_6  and  O_7
REMARK    7  A    between atoms: C_6  and  C_8
REMARK    8  A    between atoms: C_8  and  N_9
REMARK    9  A    between atoms: N_9  and  C_10
REMARK   10  A    between atoms: C_10  and  C_11
REMARK   11  A    between atoms: C_11  and  C_12
REMARK   12  A    between atoms: C_12  and  C_13
REMARK   13  A    between atoms: C_13  and  N_14
REMARK   14  A    between atoms: N_14  and  C_15
REMARK   15  A    between atoms: C_15  and  C_16
REMARK   16  A    between atoms: C_16  and  O_17
REMARK   17  A    between atoms: C_16  and  C_18
REMARK   18  A    between atoms: C_18  and  C_19
REMARK   19  A    between atoms: C_19  and  N_20
REMARK   20  A    between atoms: N_20  and  C_21
REMARK   21  A    between atoms: C_21  and  C_22
REMARK                            x       y       z     vdW  Elec       q    Type
REMARK                         _______ _______ _______ _____ _____    ______ ____
ROOT
ATOM      1  C   UNL     1       6.673   6.226  17.880  0.00  0.00    +0.000 C 
ENDROOT
BRANCH   1   2
ATOM      2  C   UNL     1       7.087   5.228  16.815  0.00  0.00    +0.000 C 
BRANCH   2   3
ATOM      3  N   UNL     1       6.489   5.567  15.518  0.00  0.00    +0.000 NA
ATOM      4  H   UNL     1       5.451   5.672  15.610  0.00  0.00    +0.000 HD
BRANCH   3   5
ATOM      5  C   UNL     1       6.807   4.554  14.500  0.00  0.00    +0.000 C 
BRANCH   5   6
ATOM      6  C   UNL     1       7.224   5.179  13.138  0.00  0.00    +0.000 C 
BRANCH   6   7
ATOM      7  O   UNL     1       8.540   5.669  13.201  0.00  0.00    +0.000 OA
ATOM      8  H   UNL     1       8.492   6.628  13.447  0.00  0.00    +0.000 HD
ENDBRANCH   6   7
BRANCH   6   9
ATOM      9  C   UNL     1       7.069   4.214  11.946  0.00  0.00    +0.000 C 
BRANCH   9  10
ATOM     10  C   UNL     1       6.034   3.085  12.164  0.00  0.00    +0.000 C 
BRANCH  10  11
ATOM     11  N   UNL     1       4.651   3.567  12.040  0.00  0.00    +0.000 NA
ATOM     12  H   UNL     1       4.115   3.291  12.899  0.00  0.00    +0.000 HD
BRANCH  11  14
ATOM     13  C   UNL     1       3.225   3.961  10.079  0.00  0.00    +0.000 C 
ATOM     14  C   UNL     1       3.978   2.924  10.906  0.00  0.00    +0.000 C 
ENDBRANCH  11  14
ENDBRANCH  10  11
ENDBRANCH   9  10
ENDBRANCH   6   9
ENDBRANCH   5   6
ENDBRANCH   3   5
ENDBRANCH   2   3
ENDBRANCH   1   2
BRANCH   1  15
ATOM     15  C   UNL     1       5.341   5.783  18.486  0.00  0.00    +0.000 C 
BRANCH  15  16
ATOM     16  C   UNL     1       5.224   4.272  18.461  0.00  0.00    +0.000 C 
BRANCH  16  17
ATOM     17  N   UNL     1       5.171   3.756  19.830  0.00  0.00    +0.000 NA
ATOM     18  H   UNL     1       4.632   4.429  20.423  0.00  0.00    +0.000 HD
BRANCH  17  19
ATOM     19  C   UNL     1       4.485   2.465  19.823  0.00  0.00    +0.000 C 
BRANCH  19  20
ATOM     20  C   UNL     1       3.652   2.278  18.541  0.00  0.00    +0.000 C 
BRANCH  20  21
ATOM     21  O   UNL     1       4.186   1.242  17.753  0.00  0.00    +0.000 OA
ATOM     22  H   UNL     1       4.162   1.540  16.806  0.00  0.00    +0.000 HD
ENDBRANCH  20  21
BRANCH  20  23
ATOM     23  C   UNL     1       2.168   1.988  18.851  0.00  0.00    +0.000 C 
BRANCH  23  24
ATOM     24  C   UNL     1       1.264   3.207  18.612  0.00  0.00    +0.000 C 
BRANCH  24  25
ATOM     25  N   UNL     1       0.422   3.466  19.781  0.00  0.00    +0.000 NA
ATOM     26  H   UNL     1      -0.092   2.582  20.016  0.00  0.00    +0.000 HD
BRANCH  25  27
ATOM     27  C   UNL     1       1.269   3.828  20.923  0.00  0.00    +0.000 C 
ATOM     28  C   UNL     1       1.896   5.196  20.704  0.00  0.00    +0.000 C 
ENDBRANCH  25  27
ENDBRANCH  24  25
ENDBRANCH  23  24
ENDBRANCH  20  23
ENDBRANCH  19  20
ENDBRANCH  17  19
ENDBRANCH  16  17
ENDBRANCH  15  16
ENDBRANCH   1  15
TORSDOF 19
ENDMDL
MODEL 4
REMARK VINA RESULT:      -5.3      3.570      6.015
REMARK  Name = 
REMARK  21 active torsions:
REMARK  status: ('A' for Active; 'I' for Inactive)
REMARK    1  A    between atoms: C_1  and  C_2
REMARK    2  A    between atoms: C_2  and  N_3
REMARK    3  A    between atoms: N_3  and  C_4
REMARK    4  A    between atoms: C_4  and  C_5
REMARK    5  A    between atoms: C_5  and  C_6
REMARK    6  A    between atoms: C_6  and  O_7
REMARK    7  A    between atoms: C_6  and  C_8
REMARK    8  A    between atoms: C_8  and  N_9
REMARK    9  A    between atoms: N_9  and  C_10
REMARK   10  A    between atoms: C_10  and  C_11
REMARK   11  A    between atoms: C_11  and  C_12
REMARK   12  A    between atoms: C_12  and  C_13
REMARK   13  A    between atoms: C_13  and  N_14
REMARK   14  A    between atoms: N_14  and  C_15
REMARK   15  A    between atoms: C_15  and  C_16
REMARK   16  A    between atoms: C_16  and  O_17
REMARK   17  A    between atoms: C_16  and  C_18
REMARK   18  A    between atoms: C_18  and  C_19
REMARK   19  A    between atoms: C_19  and  N_20
REMARK   20  A    between atoms: N_20  and  C_21
REMARK   21  A    between atoms: C_21  and  C_22
REMARK                            x       y       z     vdW  Elec       q    Type
REMARK                         _______ _______ _______ _____ _____    ______ ____
ROOT
ATOM      1  C   UNL     1       5.779   5.750  18.333  0.00  0.00    +0.000 C 
ENDROOT
BRANCH   1   2
ATOM      2  C   UNL     1       5.265   4.659  19.254  0.00  0.00    +0.000 C 
BRANCH   2   3
ATOM      3  N   UNL     1       5.300   3.351  18.589  0.00  0.00    +0.000 NA
ATOM      4  H   UNL     1       5.173   3.462  17.556  0.00  0.00    +0.000 HD
BRANCH   3   5
ATOM      5  C   UNL     1       4.275   2.447  19.132  0.00  0.00    +0.000 C 
BRANCH   5   6
ATOM      6  C   UNL     1       3.223   2.021  18.069  0.00  0.00    +0.000 C 
BRANCH   6   7
ATOM      7  O   UNL     1       2.195   1.270  18.664  0.00  0.00    +0.000 OA
ATOM      8  H   UNL     1       2.227   0.357  18.276  0.00  0.00    +0.000 HD
ENDBRANCH   6   7
BRANCH   6   9
ATOM      9  C   UNL     1       2.631   3.207  17.280  0.00  0.00    +0.000 C 
BRANCH   9  10
ATOM     10  C   UNL     1       1.376   3.843  17.924  0.00  0.00    +0.000 C 
BRANCH  10  11
ATOM     11  N   UNL     1       1.687   4.529  19.187  0.00  0.00    +0.000 NA
ATOM     12  H   UNL     1       2.685   4.331  19.446  0.00  0.00    +0.000 HD
BRANCH  11  14
ATOM     13  C   UNL     1       1.746   3.535  21.433  0.00  0.00    +0.000 C 
ATOM     14  C   UNL     1       0.863   4.000  20.280  0.00  0.00    +0.000 C 
ENDBRANCH  11  14
ENDBRANCH  10  11
ENDBRANCH   9  10
ENDBRANCH   6   9
ENDBRANCH   5   6
ENDBRANCH   3   5
ENDBRANCH   2   3
ENDBRANCH   1   2
BRANCH   1  15
ATOM     15  C   UNL     1       4.667   6.144  17.359  0.00  0.00    +0.000 C 
BRANCH  15  16
ATOM     16  C   UNL     1       4.028   7.450  17.785  0.00  0.00    +0.000 C 
BRANCH  16  17
ATOM     17  N   UNL     1       2.581   7.276  17.912  0.00  0.00    +0.000 NA
ATOM     18  H   UNL     1       2.373   6.259  18.039  0.00  0.00    +0.000 HD
BRANCH  17  19
ATOM     19  C   UNL     1       2.116   8.012  19.087  0.00  0.00    +0.000 C 
BRANCH  19  20
ATOM     20  C   UNL     1       1.639   9.428  18.710  0.00  0.00    +0.000 C 
BRANCH  20  21
ATOM     21  O   UNL     1       1.328   9.494  17.339  0.00  0.00    +0.000 OA
ATOM     22  H   UNL     1       0.340   9.437  17.251  0.00  0.00    +0.000 HD
ENDBRANCH  20  21
BRANCH  20  23
ATOM     23  C   UNL     1       0.419   9.871  19.545  0.00  0.00    +0.000 C 
BRANCH  23  24
ATOM     24  C   UNL     1       0.021  11.332  19.281  0.00  0.00    +0.000 C 
BRANCH  24  25
ATOM     25  N   UNL     1      -0.593  11.472  17.960  0.00  0.00    +0.000 NA
ATOM     26  H   UNL     1      -0.071  10.857  17.290  0.00  0.00    +0.000 HD
BRANCH  25  27
ATOM     27  C   UNL     1      -1.987  11.016  18.019  0.00  0.00    +0.000 C 
ATOM     28  C   UNL     1      -2.237   9.941  16.972  0.00  0.00    +0.000 C 
ENDBRANCH  25  27
ENDBRANCH  24  25
ENDBRANCH  23  24
ENDBRANCH  20  23
ENDBRANCH  19  20
ENDBRANCH  17  19
ENDBRANCH  16  17
ENDBRANCH  15  16
ENDBRANCH   1  15
TORSDOF 19
ENDMDL
MODEL 5
REMARK VINA RESULT:      -5.3      2.184      4.091
REMARK  Name = 
REMARK  21 active torsions:
REMARK  status: ('A' for Active; 'I' for Inactive)
REMARK    1  A    between atoms: C_1  and  C_2
REMARK    2  A    between atoms: C_2  and  N_3
REMARK    3  A    between atoms: N_3  and  C_4
REMARK    4  A    between atoms: C_4  and  C_5
REMARK    5  A    between atoms: C_5  and  C_6
REMARK    6  A    between atoms: C_6  and  O_7
REMARK    7  A    between atoms: C_6  and  C_8
REMARK    8  A    between atoms: C_8  and  N_9
REMARK    9  A    between atoms: N_9  and  C_10
REMARK   10  A    between atoms: C_10  and  C_11
REMARK   11  A    between atoms: C_11  and  C_12
REMARK   12  A    between atoms: C_12  and  C_13
REMARK   13  A    between atoms: C_13  and  N_14
REMARK   14  A    between atoms: N_14  and  C_15
REMARK   15  A    between atoms: C_15  and  C_16
REMARK   16  A    between atoms: C_16  and  O_17
REMARK   17  A    between atoms: C_16  and  C_18
REMARK   18  A    between atoms: C_18  and  C_19
REMARK   19  A    between atoms: C_19  and  N_20
REMARK   20  A    between atoms: N_20  and  C_21
REMARK   21  A    between atoms: C_21  and  C_22
REMARK                            x       y       z     vdW  Elec       q    Type
REMARK                         _______ _______ _______ _____ _____    ______ ____
ROOT
ATOM      1  C   UNL     1       7.851   7.219  18.281  0.00  0.00    +0.000 C 
ENDROOT
BRANCH   1   2
ATOM      2  C   UNL     1       7.407   7.033  16.842  0.00  0.00    +0.000 C 
BRANCH   2   3
ATOM      3  N   UNL     1       5.955   6.833  16.762  0.00  0.00    +0.000 NA
ATOM      4  H   UNL     1       5.592   6.424  17.654  0.00  0.00    +0.000 HD
BRANCH   3   5
ATOM      5  C   UNL     1       5.594   5.972  15.625  0.00  0.00    +0.000 C 
BRANCH   5   6
ATOM      6  C   UNL     1       6.670   4.892  15.323  0.00  0.00    +0.000 C 
BRANCH   6   7
ATOM      7  O   UNL     1       6.220   3.620  15.720  0.00  0.00    +0.000 OA
ATOM      8  H   UNL     1       6.855   3.277  16.401  0.00  0.00    +0.000 HD
ENDBRANCH   6   7
BRANCH   6   9
ATOM      9  C   UNL     1       7.116   4.865  13.847  0.00  0.00    +0.000 C 
BRANCH   9  10
ATOM     10  C   UNL     1       6.537   3.690  13.024  0.00  0.00    +0.000 C 
BRANCH  10  11
ATOM     11  N   UNL     1       5.082   3.801  12.844  0.00  0.00    +0.000 NA
ATOM     12  H   UNL     1       4.603   3.366  13.670  0.00  0.00    +0.000 HD
BRANCH  11  14
ATOM     13  C   UNL     1       5.654   1.945  11.339  0.00  0.00    +0.000 C 
ATOM     14  C   UNL     1       4.646   3.042  11.666  0.00  0.00    +0.000 C 
ENDBRANCH  11  14
ENDBRANCH  10  11
ENDBRANCH   9  10
ENDBRANCH   6   9
ENDBRANCH   5   6
ENDBRANCH   3   5
ENDBRANCH   2   3
ENDBRANCH   1   2
BRANCH   1  15
ATOM     15  C   UNL     1       7.988   5.846  18.941  0.00  0.00    +0.000 C 
BRANCH  15  16
ATOM     16  C   UNL     1       6.651   5.384  19.485  0.00  0.00    +0.000 C 
BRANCH  16  17
ATOM     17  N   UNL     1       6.227   4.168  18.789  0.00  0.00    +0.000 NA
ATOM     18  H   UNL     1       6.511   3.337  19.358  0.00  0.00    +0.000 HD
BRANCH  17  19
ATOM     19  C   UNL     1       4.771   4.183  18.654  0.00  0.00    +0.000 C 
BRANCH  19  20
ATOM     20  C   UNL     1       4.079   4.066  20.025  0.00  0.00    +0.000 C 
BRANCH  20  21
ATOM     21  O   UNL     1       3.321   5.221  20.294  0.00  0.00    +0.000 OA
ATOM     22  H   UNL     1       3.325   5.363  21.277  0.00  0.00    +0.000 HD
ENDBRANCH  20  21
BRANCH  20  23
ATOM     23  C   UNL     1       3.177   2.817  20.116  0.00  0.00    +0.000 C 
BRANCH  23  24
ATOM     24  C   UNL     1       3.442   1.813  18.982  0.00  0.00    +0.000 C 
BRANCH  24  25
ATOM     25  N   UNL     1       2.419   1.925  17.941  0.00  0.00    +0.000 NA
ATOM     26  H   UNL     1       2.049   0.965  17.742  0.00  0.00    +0.000 HD
BRANCH  25  27
ATOM     27  C   UNL     1       1.313   2.757  18.431  0.00  0.00    +0.000 C 
ATOM     28  C   UNL     1       1.169   4.005  17.573  0.00  0.00    +0.000 C 
ENDBRANCH  25  27
ENDBRANCH  24  25
ENDBRANCH  23  24
ENDBRANCH  20  23
ENDBRANCH  19  20
ENDBRANCH  17  19
ENDBRANCH  16  17
ENDBRANCH  15  16
ENDBRANCH   1  15
TORSDOF 19
ENDMDL
MODEL 6
REMARK VINA RESULT:      -5.3      4.627      7.409
REMARK  Name = 
REMARK  21 active torsions:
REMARK  status: ('A' for Active; 'I' for Inactive)
REMARK    1  A    between atoms: C_1  and  C_2
REMARK    2  A    between atoms: C_2  and  N_3
REMARK    3  A    between atoms: N_3  and  C_4
REMARK    4  A    between atoms: C_4  and  C_5
REMARK    5  A    between atoms: C_5  and  C_6
REMARK    6  A    between atoms: C_6  and  O_7
REMARK    7  A    between atoms: C_6  and  C_8
REMARK    8  A    between atoms: C_8  and  N_9
REMARK    9  A    between atoms: N_9  and  C_10
REMARK   10  A    between atoms: C_10  and  C_11
REMARK   11  A    between atoms: C_11  and  C_12
REMARK   12  A    between atoms: C_12  and  C_13
REMARK   13  A    between atoms: C_13  and  N_14
REMARK   14  A    between atoms: N_14  and  C_15
REMARK   15  A    between atoms: C_15  and  C_16
REMARK   16  A    between atoms: C_16  and  O_17
REMARK   17  A    between atoms: C_16  and  C_18
REMARK   18  A    between atoms: C_18  and  C_19
REMARK   19  A    between atoms: C_19  and  N_20
REMARK   20  A    between atoms: N_20  and  C_21
REMARK   21  A    between atoms: C_21  and  C_22
REMARK                            x       y       z     vdW  Elec       q    Type
REMARK                         _______ _______ _______ _____ _____    ______ ____
ROOT
ATOM      1  C   UNL     1       2.811   8.353  17.570  0.00  0.00    +0.000 C 
ENDROOT
BRANCH   1   2
ATOM      2  C   UNL     1       1.499   8.813  18.176  0.00  0.00    +0.000 C 
BRANCH   2   3
ATOM      3  N   UNL     1       1.306  10.255  17.979  0.00  0.00    +0.000 NA
ATOM      4  H   UNL     1       2.219  10.720  17.763  0.00  0.00    +0.000 HD
BRANCH   3   5
ATOM      5  C   UNL     1       0.686  10.879  19.158  0.00  0.00    +0.000 C 
BRANCH   5   6
ATOM      6  C   UNL     1       0.027  12.250  18.837  0.00  0.00    +0.000 C 
BRANCH   6   7
ATOM      7  O   UNL     1       0.789  12.954  17.888  0.00  0.00    +0.000 OA
ATOM      8  H   UNL     1       0.811  13.906  18.168  0.00  0.00    +0.000 HD
ENDBRANCH   6   7
BRANCH   6   9
ATOM      9  C   UNL     1      -1.437  12.135  18.369  0.00  0.00    +0.000 C 
BRANCH   9  10
ATOM     10  C   UNL     1      -1.936  10.684  18.171  0.00  0.00    +0.000 C 
BRANCH  10  11
ATOM     11  N   UNL     1      -1.781  10.228  16.782  0.00  0.00    +0.000 NA
ATOM     12  H   UNL     1      -0.818  10.475  16.447  0.00  0.00    +0.000 HD
BRANCH  11  14
ATOM     13  C   UNL     1      -3.029  10.081  14.670  0.00  0.00    +0.000 C 
ATOM     14  C   UNL     1      -2.720  10.931  15.899  0.00  0.00    +0.000 C 
ENDBRANCH  11  14
ENDBRANCH  10  11
ENDBRANCH   9  10
ENDBRANCH   6   9
ENDBRANCH   5   6
ENDBRANCH   3   5
ENDBRANCH   2   3
ENDBRANCH   1   2
BRANCH   1  15
ATOM     15  C   UNL     1       3.162   6.974  18.130  0.00  0.00    +0.000 C 
BRANCH  15  16
ATOM     16  C   UNL     1       4.304   6.359  17.347  0.00  0.00    +0.000 C 
BRANCH  16  17
ATOM     17  N   UNL     1       5.288   5.789  18.270  0.00  0.00    +0.000 NA
ATOM     18  H   UNL     1       5.688   6.560  18.854  0.00  0.00    +0.000 HD
BRANCH  17  19
ATOM     19  C   UNL     1       4.618   4.824  19.140  0.00  0.00    +0.000 C 
BRANCH  19  20
ATOM     20  C   UNL     1       4.846   3.380  18.655  0.00  0.00    +0.000 C 
BRANCH  20  21
ATOM     21  O   UNL     1       5.144   2.538  19.743  0.00  0.00    +0.000 OA
ATOM     22  H   UNL     1       5.056   3.075  20.573  0.00  0.00    +0.000 HD
ENDBRANCH  20  21
BRANCH  20  23
ATOM     23  C   UNL     1       3.627   2.827  17.886  0.00  0.00    +0.000 C 
BRANCH  23  24
ATOM     24  C   UNL     1       2.295   3.138  18.585  0.00  0.00    +0.000 C 
BRANCH  24  25
ATOM     25  N   UNL     1       2.146   2.334  19.799  0.00  0.00    +0.000 NA
ATOM     26  H   UNL     1       3.069   2.318  20.296  0.00  0.00    +0.000 HD
BRANCH  25  27
ATOM     27  C   UNL     1       1.154   2.960  20.681  0.00  0.00    +0.000 C 
ATOM     28  C   UNL     1       1.138   4.467  20.473  0.00  0.00    +0.000 C 
ENDBRANCH  25  27
ENDBRANCH  24  25
ENDBRANCH  23  24
ENDBRANCH  20  23
ENDBRANCH  19  20
ENDBRANCH  17  19
ENDBRANCH  16  17
ENDBRANCH  15  16
ENDBRANCH   1  15
TORSDOF 19
ENDMDL
MODEL 7
REMARK VINA RESULT:      -5.3      2.613      4.180
REMARK  Name = 
REMARK  21 active torsions:
REMARK  status: ('A' for Active; 'I' for Inactive)
REMARK    1  A    between atoms: C_1  and  C_2
REMARK    2  A    between atoms: C_2  and  N_3
REMARK    3  A    between atoms: N_3  and  C_4
REMARK    4  A    between atoms: C_4  and  C_5
REMARK    5  A    between atoms: C_5  and  C_6
REMARK    6  A    between atoms: C_6  and  O_7
REMARK    7  A    between atoms: C_6  and  C_8
REMARK    8  A    between atoms: C_8  and  N_9
REMARK    9  A    between atoms: N_9  and  C_10
REMARK   10  A    between atoms: C_10  and  C_11
REMARK   11  A    between atoms: C_11  and  C_12
REMARK   12  A    between atoms: C_12  and  C_13
REMARK   13  A    between atoms: C_13  and  N_14
REMARK   14  A    between atoms: N_14  and  C_15
REMARK   15  A    between atoms: C_15  and  C_16
REMARK   16  A    between atoms: C_16  and  O_17
REMARK   17  A    between atoms: C_16  and  C_18
REMARK   18  A    between atoms: C_18  and  C_19
REMARK   19  A    between atoms: C_19  and  N_20
REMARK   20  A    between atoms: N_20  and  C_21
REMARK   21  A    between atoms: C_21  and  C_22
REMARK                            x       y       z     vdW  Elec       q    Type
REMARK                         _______ _______ _______ _____ _____    ______ ____
ROOT
ATOM      1  C   UNL     1       4.665   6.632  17.479  0.00  0.00    +0.000 C 
ENDROOT
BRANCH   1   2
ATOM      2  C   UNL     1       5.124   6.473  16.041  0.00  0.00    +0.000 C 
BRANCH   2   3
ATOM      3  N   UNL     1       6.217   5.498  15.943  0.00  0.00    +0.000 NA
ATOM      4  H   UNL     1       7.003   5.765  16.581  0.00  0.00    +0.000 HD
BRANCH   3   5
ATOM      5  C   UNL     1       6.704   5.376  14.561  0.00  0.00    +0.000 C 
BRANCH   5   6
ATOM      6  C   UNL     1       6.757   3.903  14.069  0.00  0.00    +0.000 C 
BRANCH   6   7
ATOM      7  O   UNL     1       5.970   3.078  14.891  0.00  0.00    +0.000 OA
ATOM      8  H   UNL     1       5.218   2.737  14.342  0.00  0.00    +0.000 HD
ENDBRANCH   6   7
BRANCH   6   9
ATOM      9  C   UNL     1       6.347   3.732  12.592  0.00  0.00    +0.000 C 
BRANCH   9  10
ATOM     10  C   UNL     1       4.828   3.549  12.365  0.00  0.00    +0.000 C 
BRANCH  10  11
ATOM     11  N   UNL     1       4.537   2.783  11.144  0.00  0.00    +0.000 NA
ATOM     12  H   UNL     1       5.156   3.128  10.370  0.00  0.00    +0.000 HD
BRANCH  11  14
ATOM     13  C   UNL     1       3.096   4.191   9.738  0.00  0.00    +0.000 C 
ATOM     14  C   UNL     1       3.156   3.013  10.705  0.00  0.00    +0.000 C 
ENDBRANCH  11  14
ENDBRANCH  10  11
ENDBRANCH   9  10
ENDBRANCH   6   9
ENDBRANCH   5   6
ENDBRANCH   3   5
ENDBRANCH   2   3
ENDBRANCH   1   2
BRANCH   1  15
ATOM     15  C   UNL     1       5.462   5.673  18.365  0.00  0.00    +0.000 C 
BRANCH  15  16
ATOM     16  C   UNL     1       4.539   4.945  19.321  0.00  0.00    +0.000 C 
BRANCH  16  17
ATOM     17  N   UNL     1       4.646   3.500  19.110  0.00  0.00    +0.000 NA
ATOM     18  H   UNL     1       4.209   3.007  19.923  0.00  0.00    +0.000 HD
BRANCH  17  19
ATOM     19  C   UNL     1       3.927   3.145  17.888  0.00  0.00    +0.000 C 
BRANCH  19  20
ATOM     20  C   UNL     1       3.372   1.710  17.961  0.00  0.00    +0.000 C 
BRANCH  20  21
ATOM     21  O   UNL     1       4.336   0.835  18.496  0.00  0.00    +0.000 OA
ATOM     22  H   UNL     1       3.896  -0.042  18.647  0.00  0.00    +0.000 HD
ENDBRANCH  20  21
BRANCH  20  23
ATOM     23  C   UNL     1       2.075   1.631  18.795  0.00  0.00    +0.000 C 
BRANCH  23  24
ATOM     24  C   UNL     1       1.203   2.888  18.652  0.00  0.00    +0.000 C 
BRANCH  24  25
ATOM     25  N   UNL     1       0.487   3.166  19.899  0.00  0.00    +0.000 NA
ATOM     26  H   UNL     1       0.474   2.288  20.471  0.00  0.00    +0.000 HD
BRANCH  25  27
ATOM     27  C   UNL     1       1.203   4.201  20.653  0.00  0.00    +0.000 C 
ATOM     28  C   UNL     1       2.074   3.566  21.727  0.00  0.00    +0.000 C 
ENDBRANCH  25  27
ENDBRANCH  24  25
ENDBRANCH  23  24
ENDBRANCH  20  23
ENDBRANCH  19  20
ENDBRANCH  17  19
ENDBRANCH  16  17
ENDBRANCH  15  16
ENDBRANCH   1  15
TORSDOF 19
ENDMDL
MODEL 8
REMARK VINA RESULT:      -5.2      1.784      6.343
REMARK  Name = 
REMARK  21 active torsions:
REMARK  status: ('A' for Active; 'I' for Inactive)
REMARK    1  A    between atoms: C_1  and  C_2
REMARK    2  A    between atoms: C_2  and  N_3
REMARK    3  A    between atoms: N_3  and  C_4
REMARK    4  A    between atoms: C_4  and  C_5
REMARK    5  A    between atoms: C_5  and  C_6
REMARK    6  A    between atoms: C_6  and  O_7
REMARK    7  A    between atoms: C_6  and  C_8
REMARK    8  A    between atoms: C_8  and  N_9
REMARK    9  A    between atoms: N_9  and  C_10
REMARK   10  A    between atoms: C_10  and  C_11
REMARK   11  A    between atoms: C_11  and  C_12
REMARK   12  A    between atoms: C_12  and  C_13
REMARK   13  A    between atoms: C_13  and  N_14
REMARK   14  A    between atoms: N_14  and  C_15
REMARK   15  A    between atoms: C_15  and  C_16
REMARK   16  A    between atoms: C_16  and  O_17
REMARK   17  A    between atoms: C_16  and  C_18
REMARK   18  A    between atoms: C_18  and  C_19
REMARK   19  A    between atoms: C_19  and  N_20
REMARK   20  A    between atoms: N_20  and  C_21
REMARK   21  A    between atoms: C_21  and  C_22
REMARK                            x       y       z     vdW  Elec       q    Type
REMARK                         _______ _______ _______ _____ _____    ______ ____
ROOT
ATOM      1  C   UNL     1       3.125   1.897  18.986  0.00  0.00    +0.000 C 
ENDROOT
BRANCH   1   2
ATOM      2  C   UNL     1       3.787   2.411  20.251  0.00  0.00    +0.000 C 
BRANCH   2   3
ATOM      3  N   UNL     1       2.905   2.241  21.411  0.00  0.00    +0.000 NA
ATOM      4  H   UNL     1       2.200   1.489  21.229  0.00  0.00    +0.000 HD
BRANCH   3   5
ATOM      5  C   UNL     1       2.226   3.499  21.757  0.00  0.00    +0.000 C 
BRANCH   5   6
ATOM      6  C   UNL     1       1.796   4.315  20.506  0.00  0.00    +0.000 C 
BRANCH   6   7
ATOM      7  O   UNL     1       0.456   4.047  20.176  0.00  0.00    +0.000 OA
ATOM      8  H   UNL     1      -0.088   4.819  20.479  0.00  0.00    +0.000 HD
ENDBRANCH   6   7
BRANCH   6   9
ATOM      9  C   UNL     1       2.015   5.834  20.657  0.00  0.00    +0.000 C 
BRANCH   9  10
ATOM     10  C   UNL     1       2.380   6.564  19.342  0.00  0.00    +0.000 C 
BRANCH  10  11
ATOM     11  N   UNL     1       1.960   7.973  19.354  0.00  0.00    +0.000 NA
ATOM     12  H   UNL     1       0.915   8.017  19.436  0.00  0.00    +0.000 HD
BRANCH  11  14
ATOM     13  C   UNL     1       1.477   9.894  17.901  0.00  0.00    +0.000 C 
ATOM     14  C   UNL     1       2.305   8.627  18.086  0.00  0.00    +0.000 C 
ENDBRANCH  11  14
ENDBRANCH  10  11
ENDBRANCH   9  10
ENDBRANCH   6   9
ENDBRANCH   5   6
ENDBRANCH   3   5
ENDBRANCH   2   3
ENDBRANCH   1   2
BRANCH   1  15
ATOM     15  C   UNL     1       3.917   2.389  17.774  0.00  0.00    +0.000 C 
BRANCH  15  16
ATOM     16  C   UNL     1       3.320   3.675  17.238  0.00  0.00    +0.000 C 
BRANCH  16  17
ATOM     17  N   UNL     1       4.390   4.597  16.854  0.00  0.00    +0.000 NA
ATOM     18  H   UNL     1       4.034   5.578  16.932  0.00  0.00    +0.000 HD
BRANCH  17  19
ATOM     19  C   UNL     1       5.517   4.421  17.769  0.00  0.00    +0.000 C 
BRANCH  19  20
ATOM     20  C   UNL     1       6.806   5.041  17.196  0.00  0.00    +0.000 C 
BRANCH  20  21
ATOM     21  O   UNL     1       7.825   4.074  17.118  0.00  0.00    +0.000 OA
ATOM     22  H   UNL     1       8.668   4.542  16.880  0.00  0.00    +0.000 HD
ENDBRANCH  20  21
BRANCH  20  23
ATOM     23  C   UNL     1       6.578   5.673  15.807  0.00  0.00    +0.000 C 
BRANCH  23  24
ATOM     24  C   UNL     1       7.164   4.824  14.668  0.00  0.00    +0.000 C 
BRANCH  24  25
ATOM     25  N   UNL     1       6.346   3.632  14.436  0.00  0.00    +0.000 NA
ATOM     26  H   UNL     1       5.796   3.439  15.308  0.00  0.00    +0.000 HD
BRANCH  25  27
ATOM     27  C   UNL     1       5.404   3.891  13.341  0.00  0.00    +0.000 C 
ATOM     28  C   UNL     1       5.851   3.172  12.077  0.00  0.00    +0.000 C 
ENDBRANCH  25  27
ENDBRANCH  24  25
ENDBRANCH  23  24
ENDBRANCH  20  23
ENDBRANCH  19  20
ENDBRANCH  17  19
ENDBRANCH  16  17
ENDBRANCH  15  16
ENDBRANCH   1  15
TORSDOF 19
ENDMDL
MODEL 9
REMARK VINA RESULT:      -5.2      4.078      7.001
REMARK  Name = 
REMARK  21 active torsions:
REMARK  status: ('A' for Active; 'I' for Inactive)
REMARK    1  A    between atoms: C_1  and  C_2
REMARK    2  A    between atoms: C_2  and  N_3
REMARK    3  A    between atoms: N_3  and  C_4
REMARK    4  A    between atoms: C_4  and  C_5
REMARK    5  A    between atoms: C_5  and  C_6
REMARK    6  A    between atoms: C_6  and  O_7
REMARK    7  A    between atoms: C_6  and  C_8
REMARK    8  A    between atoms: C_8  and  N_9
REMARK    9  A    between atoms: N_9  and  C_10
REMARK   10  A    between atoms: C_10  and  C_11
REMARK   11  A    between atoms: C_11  and  C_12
REMARK   12  A    between atoms: C_12  and  C_13
REMARK   13  A    between atoms: C_13  and  N_14
REMARK   14  A    between atoms: N_14  and  C_15
REMARK   15  A    between atoms: C_15  and  C_16
REMARK   16  A    between atoms: C_16  and  O_17
REMARK   17  A    between atoms: C_16  and  C_18
REMARK   18  A    between atoms: C_18  and  C_19
REMARK   19  A    between atoms: C_19  and  N_20
REMARK   20  A    between atoms: N_20  and  C_21
REMARK   21  A    between atoms: C_21  and  C_22
REMARK                            x       y       z     vdW  Elec       q    Type
REMARK                         _______ _______ _______ _____ _____    ______ ____
ROOT
ATOM      1  C   UNL     1       2.135   5.900  20.142  0.00  0.00    +0.000 C 
ENDROOT
BRANCH   1   2
ATOM      2  C   UNL     1       1.554   7.187  20.698  0.00  0.00    +0.000 C 
BRANCH   2   3
ATOM      3  N   UNL     1       1.755   8.301  19.764  0.00  0.00    +0.000 NA
ATOM      4  H   UNL     1       2.754   8.614  19.778  0.00  0.00    +0.000 HD
BRANCH   3   5
ATOM      5  C   UNL     1       0.865   9.430  20.077  0.00  0.00    +0.000 C 
BRANCH   5   6
ATOM      6  C   UNL     1       0.428  10.221  18.812  0.00  0.00    +0.000 C 
BRANCH   6   7
ATOM      7  O   UNL     1       0.995   9.656  17.655  0.00  0.00    +0.000 OA
ATOM      8  H   UNL     1       1.911   9.356  17.887  0.00  0.00    +0.000 HD
ENDBRANCH   6   7
BRANCH   6   9
ATOM      9  C   UNL     1      -1.102  10.335  18.656  0.00  0.00    +0.000 C 
BRANCH   9  10
ATOM     10  C   UNL     1      -1.587  11.679  18.064  0.00  0.00    +0.000 C 
BRANCH  10  11
ATOM     11  N   UNL     1      -1.933  11.566  16.639  0.00  0.00    +0.000 NA
ATOM     12  H   UNL     1      -2.662  12.284  16.407  0.00  0.00    +0.000 HD
BRANCH  11  14
ATOM     13  C   UNL     1      -2.973  10.182  14.895  0.00  0.00    +0.000 C 
ATOM     14  C   UNL     1      -2.533  10.258  16.354  0.00  0.00    +0.000 C 
ENDBRANCH  11  14
ENDBRANCH  10  11
ENDBRANCH   9  10
ENDBRANCH   6   9
ENDBRANCH   5   6
ENDBRANCH   3   5
ENDBRANCH   2   3
ENDBRANCH   1   2
BRANCH   1  15
ATOM     15  C   UNL     1       1.222   4.735  20.526  0.00  0.00    +0.000 C 
BRANCH  15  16
ATOM     16  C   UNL     1       2.038   3.480  20.764  0.00  0.00    +0.000 C 
BRANCH  16  17
ATOM     17  N   UNL     1       1.810   2.527  19.677  0.00  0.00    +0.000 NA
ATOM     18  H   UNL     1       1.137   2.947  18.995  0.00  0.00    +0.000 HD
BRANCH  17  19
ATOM     19  C   UNL     1       3.080   2.266  19.002  0.00  0.00    +0.000 C 
BRANCH  19  20
ATOM     20  C   UNL     1       3.134   2.952  17.624  0.00  0.00    +0.000 C 
BRANCH  20  21
ATOM     21  O   UNL     1       1.861   3.430  17.261  0.00  0.00    +0.000 OA
ATOM     22  H   UNL     1       1.588   2.961  16.429  0.00  0.00    +0.000 HD
ENDBRANCH  20  21
BRANCH  20  23
ATOM     23  C   UNL     1       4.154   4.110  17.592  0.00  0.00    +0.000 C 
BRANCH  23  24
ATOM     24  C   UNL     1       4.886   4.217  16.245  0.00  0.00    +0.000 C 
BRANCH  24  25
ATOM     25  N   UNL     1       5.421   5.566  16.051  0.00  0.00    +0.000 NA
ATOM     26  H   UNL     1       4.966   6.201  16.750  0.00  0.00    +0.000 HD
BRANCH  25  27
ATOM     27  C   UNL     1       6.867   5.559  16.303  0.00  0.00    +0.000 C 
ATOM     28  C   UNL     1       7.231   6.627  17.324  0.00  0.00    +0.000 C 
ENDBRANCH  25  27
ENDBRANCH  24  25
ENDBRANCH  23  24
ENDBRANCH  20  23
ENDBRANCH  19  20
ENDBRANCH  17  19
ENDBRANCH  16  17
ENDBRANCH  15  16
ENDBRANCH   1  15
TORSDOF 19
ENDMDL
