MODEL 1
REMARK VINA RESULT:      -9.2      0.000      0.000
REMARK  Name = 
REMARK  4 active torsions:
REMARK  status: ('A' for Active; 'I' for Inactive)
REMARK    1  A    between atoms: C_2  and  O_3
REMARK    2  A    between atoms: C_2  and  C_4
REMARK    3  A    between atoms: C_15  and  C_16
REMARK    4  A    between atoms: C_19  and  O_20
REMARK                            x       y       z     vdW  Elec       q    Type
REMARK                         _______ _______ _______ _____ _____    ______ ____
ROOT
ATOM      1  C   UNL     1       3.810   3.864  18.413  0.00  0.00    +0.000 A 
ATOM      2  C   UNL     1       3.062   4.724  19.210  0.00  0.00    +0.000 A 
ATOM      3  C   UNL     1       3.031   6.055  18.863  0.00  0.00    +0.000 A 
ATOM      4  N   UNL     1       3.679   6.602  17.831  0.00  0.00    +0.000 NA
ATOM      5  C   UNL     1       4.389   5.779  17.051  0.00  0.00    +0.000 A 
ATOM      6  C   UNL     1       5.070   6.351  15.988  0.00  0.00    +0.000 A 
ATOM      7  C   UNL     1       5.842   5.591  15.112  0.00  0.00    +0.000 A 
ATOM      8  C   UNL     1       5.907   4.215  15.274  0.00  0.00    +0.000 A 
ATOM      9  C   UNL     1       5.219   3.610  16.323  0.00  0.00    +0.000 A 
ATOM     10  C   UNL     1       4.481   4.377  17.266  0.00  0.00    +0.000 A 
ATOM     11  C   UNL     1       2.205   6.815  19.794  0.00  0.00    +0.000 C 
ATOM     12  C   UNL     1       1.974   8.132  19.688  0.00  0.00    +0.000 C 
ATOM     13  C   UNL     1       1.694   5.841  20.826  0.00  0.00    +0.000 C 
ATOM     14  C   UNL     1       2.268   4.458  20.447  0.00  0.00    +0.000 C 
ENDROOT
BRANCH  12  15
ATOM     15  C   UNL     1       1.134   8.887  20.618  0.00  0.00    +0.000 A 
ATOM     16  C   UNL     1       0.176   9.784  20.130  0.00  0.00    +0.000 A 
ATOM     17  C   UNL     1      -0.614  10.520  21.015  0.00  0.00    +0.000 A 
ATOM     18  C   UNL     1      -0.442  10.354  22.386  0.00  0.00    +0.000 A 
ATOM     19  C   UNL     1       0.488   9.450  22.883  0.00  0.00    +0.000 A 
ATOM     20  C   UNL     1       1.281   8.715  21.999  0.00  0.00    +0.000 A 
BRANCH  18  21
ATOM     21  O   UNL     1      -1.170  11.075  23.285  0.00  0.00    +0.000 OA
ATOM     22  H   UNL     1      -1.313  10.529  24.075  0.00  0.00    +0.000 HD
ENDBRANCH  18  21
ENDBRANCH  12  15
BRANCH   1  24
ATOM     23  O   UNL     1       3.041   1.615  18.487  0.00  0.00    +0.000 OA
ATOM     24  C   UNL     1       3.877   2.438  18.815  0.00  0.00    +0.000 C 
BRANCH  24  25
ATOM     25  O   UNL     1       4.901   2.156  19.648  0.00  0.00    +0.000 OA
ATOM     26  H   UNL     1       4.989   1.216  19.898  0.00  0.00    +0.000 HD
ENDBRANCH  24  25
ENDBRANCH   1  24
TORSDOF 4
ENDMDL
MODEL 2
REMARK VINA RESULT:      -9.0      0.267      1.207
REMARK  Name = 
REMARK  4 active torsions:
REMARK  status: ('A' for Active; 'I' for Inactive)
REMARK    1  A    between atoms: C_2  and  O_3
REMARK    2  A    between atoms: C_2  and  C_4
REMARK    3  A    between atoms: C_15  and  C_16
REMARK    4  A    between atoms: C_19  and  O_20
REMARK                            x       y       z     vdW  Elec       q    Type
REMARK                         _______ _______ _______ _____ _____    ______ ____
ROOT
ATOM      1  C   UNL     1       3.554   3.826  18.354  0.00  0.00    +0.000 A 
ATOM      2  C   UNL     1       2.821   4.699  19.151  0.00  0.00    +0.000 A 
ATOM      3  C   UNL     1       2.897   6.042  18.866  0.00  0.00    +0.000 A 
ATOM      4  N   UNL     1       3.636   6.589  17.896  0.00  0.00    +0.000 NA
ATOM      5  C   UNL     1       4.331   5.754  17.117  0.00  0.00    +0.000 A 
ATOM      6  C   UNL     1       5.107   6.324  16.119  0.00  0.00    +0.000 A 
ATOM      7  C   UNL     1       5.874   5.553  15.249  0.00  0.00    +0.000 A 
ATOM      8  C   UNL     1       5.839   4.170  15.349  0.00  0.00    +0.000 A 
ATOM      9  C   UNL     1       5.056   3.568  16.330  0.00  0.00    +0.000 A 
ATOM     10  C   UNL     1       4.319   4.341  17.269  0.00  0.00    +0.000 A 
ATOM     11  C   UNL     1       2.072   6.816  19.788  0.00  0.00    +0.000 C 
ATOM     12  C   UNL     1       1.935   8.149  19.732  0.00  0.00    +0.000 C 
ATOM     13  C   UNL     1       1.442   5.834  20.745  0.00  0.00    +0.000 C 
ATOM     14  C   UNL     1       1.944   4.434  20.331  0.00  0.00    +0.000 C 
ENDROOT
BRANCH  12  15
ATOM     15  C   UNL     1       1.097   8.918  20.652  0.00  0.00    +0.000 A 
ATOM     16  C   UNL     1       1.234   8.751  22.035  0.00  0.00    +0.000 A 
ATOM     17  C   UNL     1       0.423   9.470  22.916  0.00  0.00    +0.000 A 
ATOM     18  C   UNL     1      -0.522  10.355  22.407  0.00  0.00    +0.000 A 
ATOM     19  C   UNL     1      -0.652  10.548  21.037  0.00  0.00    +0.000 A 
ATOM     20  C   UNL     1       0.156   9.828  20.156  0.00  0.00    +0.000 A 
BRANCH  18  21
ATOM     21  O   UNL     1      -1.355  11.053  23.229  0.00  0.00    +0.000 OA
ATOM     22  H   UNL     1      -1.669  11.840  22.755  0.00  0.00    +0.000 HD
ENDBRANCH  18  21
ENDBRANCH  12  15
BRANCH   1  24
ATOM     23  O   UNL     1       4.249   1.862  19.501  0.00  0.00    +0.000 OA
ATOM     24  C   UNL     1       3.504   2.382  18.691  0.00  0.00    +0.000 C 
BRANCH  24  25
ATOM     25  O   UNL     1       2.614   1.683  17.954  0.00  0.00    +0.000 OA
ATOM     26  H   UNL     1       2.441   2.037  17.061  0.00  0.00    +0.000 HD
ENDBRANCH  24  25
ENDBRANCH   1  24
TORSDOF 4
ENDMDL
MODEL 3
REMARK VINA RESULT:      -8.6      2.508      8.114
REMARK  Name = 
REMARK  4 active torsions:
REMARK  status: ('A' for Active; 'I' for Inactive)
REMARK    1  A    between atoms: C_2  and  O_3
REMARK    2  A    between atoms: C_2  and  C_4
REMARK    3  A    between atoms: C_15  and  C_16
REMARK    4  A    between atoms: C_19  and  O_20
REMARK                            x       y       z     vdW  Elec       q    Type
REMARK                         _______ _______ _______ _____ _____    ______ ____
ROOT
ATOM      1  C   UNL     1       1.002  10.264  19.579  0.00  0.00    +0.000 A 
ATOM      2  C   UNL     1       1.524   9.020  19.239  0.00  0.00    +0.000 A 
ATOM      3  C   UNL     1       1.364   7.991  20.138  0.00  0.00    +0.000 A 
ATOM      4  N   UNL     1       0.766   8.087  21.328  0.00  0.00    +0.000 NA
ATOM      5  C   UNL     1       0.249   9.277  21.656  0.00  0.00    +0.000 A 
ATOM      6  C   UNL     1      -0.362   9.377  22.896  0.00  0.00    +0.000 A 
ATOM      7  C   UNL     1      -0.933  10.566  23.344  0.00  0.00    +0.000 A 
ATOM      8  C   UNL     1      -0.932  11.680  22.516  0.00  0.00    +0.000 A 
ATOM      9  C   UNL     1      -0.342  11.604  21.257  0.00  0.00    +0.000 A 
ATOM     10  C   UNL     1       0.304  10.418  20.811  0.00  0.00    +0.000 A 
ATOM     11  C   UNL     1       1.963   6.761  19.631  0.00  0.00    +0.000 C 
ATOM     12  C   UNL     1       1.937   5.590  20.284  0.00  0.00    +0.000 C 
ATOM     13  C   UNL     1       2.564   7.086  18.286  0.00  0.00    +0.000 C 
ATOM     14  C   UNL     1       2.284   8.583  18.029  0.00  0.00    +0.000 C 
ENDROOT
BRANCH  12  15
ATOM     15  C   UNL     1       2.529   4.357  19.765  0.00  0.00    +0.000 A 
ATOM     16  C   UNL     1       1.717   3.384  19.171  0.00  0.00    +0.000 A 
ATOM     17  C   UNL     1       2.275   2.197  18.691  0.00  0.00    +0.000 A 
ATOM     18  C   UNL     1       3.646   1.992  18.807  0.00  0.00    +0.000 A 
ATOM     19  C   UNL     1       4.467   2.959  19.373  0.00  0.00    +0.000 A 
ATOM     20  C   UNL     1       3.909   4.145  19.856  0.00  0.00    +0.000 A 
BRANCH  18  21
ATOM     21  O   UNL     1       4.228   0.835  18.381  0.00  0.00    +0.000 OA
ATOM     22  H   UNL     1       4.805   0.501  19.087  0.00  0.00    +0.000 HD
ENDBRANCH  18  21
ENDBRANCH  12  15
BRANCH   1  24
ATOM     23  O   UNL     1       2.270  11.980  18.529  0.00  0.00    +0.000 OA
ATOM     24  C   UNL     1       1.214  11.381  18.627  0.00  0.00    +0.000 C 
BRANCH  24  25
ATOM     25  O   UNL     1       0.104  11.729  17.942  0.00  0.00    +0.000 OA
ATOM     26  H   UNL     1      -0.716  11.770  18.469  0.00  0.00    +0.000 HD
ENDBRANCH  24  25
ENDBRANCH   1  24
TORSDOF 4
ENDMDL
MODEL 4
REMARK VINA RESULT:      -8.4      2.361      8.458
REMARK  Name = 
REMARK  4 active torsions:
REMARK  status: ('A' for Active; 'I' for Inactive)
REMARK    1  A    between atoms: C_2  and  O_3
REMARK    2  A    between atoms: C_2  and  C_4
REMARK    3  A    between atoms: C_15  and  C_16
REMARK    4  A    between atoms: C_19  and  O_20
REMARK                            x       y       z     vdW  Elec       q    Type
REMARK                         _______ _______ _______ _____ _____    ______ ____
ROOT
ATOM      1  C   UNL     1       0.437  10.985  19.554  0.00  0.00    +0.000 A 
ATOM      2  C   UNL     1       1.189   9.971  18.970  0.00  0.00    +0.000 A 
ATOM      3  C   UNL     1       1.381   8.818  19.695  0.00  0.00    +0.000 A 
ATOM      4  N   UNL     1       0.923   8.593  20.929  0.00  0.00    +0.000 NA
ATOM      5  C   UNL     1       0.187   9.558  21.491  0.00  0.00    +0.000 A 
ATOM      6  C   UNL     1      -0.277   9.327  22.777  0.00  0.00    +0.000 A 
ATOM      7  C   UNL     1      -1.051  10.261  23.461  0.00  0.00    +0.000 A 
ATOM      8  C   UNL     1      -1.407  11.446  22.834  0.00  0.00    +0.000 A 
ATOM      9  C   UNL     1      -0.970  11.698  21.536  0.00  0.00    +0.000 A 
ATOM     10  C   UNL     1      -0.125  10.786  20.847  0.00  0.00    +0.000 A 
ATOM     11  C   UNL     1       2.183   7.859  18.942  0.00  0.00    +0.000 C 
ATOM     12  C   UNL     1       2.508   6.638  19.392  0.00  0.00    +0.000 C 
ATOM     13  C   UNL     1       2.528   8.511  17.626  0.00  0.00    +0.000 C 
ATOM     14  C   UNL     1       1.879   9.912  17.646  0.00  0.00    +0.000 C 
ENDROOT
BRANCH  12  15
ATOM     15  C   UNL     1       3.303   5.676  18.628  0.00  0.00    +0.000 A 
ATOM     16  C   UNL     1       4.700   5.698  18.708  0.00  0.00    +0.000 A 
ATOM     17  C   UNL     1       5.463   4.794  17.966  0.00  0.00    +0.000 A 
ATOM     18  C   UNL     1       4.822   3.870  17.147  0.00  0.00    +0.000 A 
ATOM     19  C   UNL     1       3.435   3.821  17.077  0.00  0.00    +0.000 A 
ATOM     20  C   UNL     1       2.672   4.727  17.816  0.00  0.00    +0.000 A 
BRANCH  18  21
ATOM     21  O   UNL     1       5.528   2.990  16.382  0.00  0.00    +0.000 OA
ATOM     22  H   UNL     1       6.461   3.260  16.382  0.00  0.00    +0.000 HD
ENDBRANCH  18  21
ENDBRANCH  12  15
BRANCH   1  24
ATOM     23  O   UNL     1       0.978  13.221  18.950  0.00  0.00    +0.000 OA
ATOM     24  C   UNL     1       0.269  12.244  18.787  0.00  0.00    +0.000 C 
BRANCH  24  25
ATOM     25  O   UNL     1      -0.794  12.235  17.955  0.00  0.00    +0.000 OA
ATOM     26  H   UNL     1      -0.610  11.933  17.046  0.00  0.00    +0.000 HD
ENDBRANCH  24  25
ENDBRANCH   1  24
TORSDOF 4
ENDMDL
MODEL 5
REMARK VINA RESULT:      -8.3      2.442      8.419
REMARK  Name = 
REMARK  4 active torsions:
REMARK  status: ('A' for Active; 'I' for Inactive)
REMARK    1  A    between atoms: C_2  and  O_3
REMARK    2  A    between atoms: C_2  and  C_4
REMARK    3  A    between atoms: C_15  and  C_16
REMARK    4  A    between atoms: C_19  and  O_20
REMARK                            x       y       z     vdW  Elec       q    Type
REMARK                         _______ _______ _______ _____ _____    ______ ____
ROOT
ATOM      1  C   UNL     1       0.647  11.289  19.513  0.00  0.00    +0.000 A 
ATOM      2  C   UNL     1       1.249  10.114  19.074  0.00  0.00    +0.000 A 
ATOM      3  C   UNL     1       1.162   9.008  19.886  0.00  0.00    +0.000 A 
ATOM      4  N   UNL     1       0.564   8.967  21.080  0.00  0.00    +0.000 NA
ATOM      5  C   UNL     1      -0.030  10.089  21.501  0.00  0.00    +0.000 A 
ATOM      6  C   UNL     1      -0.641  10.048  22.746  0.00  0.00    +0.000 A 
ATOM      7  C   UNL     1      -1.288  11.155  23.287  0.00  0.00    +0.000 A 
ATOM      8  C   UNL     1      -1.365  12.330  22.552  0.00  0.00    +0.000 A 
ATOM      9  C   UNL     1      -0.777  12.396  21.292  0.00  0.00    +0.000 A 
ATOM     10  C   UNL     1      -0.055  11.296  20.752  0.00  0.00    +0.000 A 
ATOM     11  C   UNL     1       1.839   7.866  19.281  0.00  0.00    +0.000 C 
ATOM     12  C   UNL     1       1.895   6.647  19.838  0.00  0.00    +0.000 C 
ATOM     13  C   UNL     1       2.412   8.338  17.968  0.00  0.00    +0.000 C 
ATOM     14  C   UNL     1       2.031   9.828  17.833  0.00  0.00    +0.000 C 
ENDROOT
BRANCH  12  15
ATOM     15  C   UNL     1       2.565   5.502  19.222  0.00  0.00    +0.000 A 
ATOM     16  C   UNL     1       1.887   4.709  18.288  0.00  0.00    +0.000 A 
ATOM     17  C   UNL     1       2.517   3.604  17.712  0.00  0.00    +0.000 A 
ATOM     18  C   UNL     1       3.826   3.300  18.072  0.00  0.00    +0.000 A 
ATOM     19  C   UNL     1       4.519   4.092  18.978  0.00  0.00    +0.000 A 
ATOM     20  C   UNL     1       3.888   5.195  19.558  0.00  0.00    +0.000 A 
BRANCH  18  21
ATOM     21  O   UNL     1       4.468   2.213  17.557  0.00  0.00    +0.000 OA
ATOM     22  H   UNL     1       4.195   1.427  18.059  0.00  0.00    +0.000 HD
ENDBRANCH  18  21
ENDBRANCH  12  15
BRANCH   1  24
ATOM     23  O   UNL     1       1.698  13.284  18.759  0.00  0.00    +0.000 OA
ATOM     24  C   UNL     1       0.779  12.491  18.655  0.00  0.00    +0.000 C 
BRANCH  24  25
ATOM     25  O   UNL     1      -0.256  12.670  17.806  0.00  0.00    +0.000 OA
ATOM     26  H   UNL     1      -0.976  13.237  18.141  0.00  0.00    +0.000 HD
ENDBRANCH  24  25
ENDBRANCH   1  24
TORSDOF 4
ENDMDL
MODEL 6
REMARK VINA RESULT:      -8.1      2.243      3.883
REMARK  Name = 
REMARK  4 active torsions:
REMARK  status: ('A' for Active; 'I' for Inactive)
REMARK    1  A    between atoms: C_2  and  O_3
REMARK    2  A    between atoms: C_2  and  C_4
REMARK    3  A    between atoms: C_15  and  C_16
REMARK    4  A    between atoms: C_19  and  O_20
REMARK                            x       y       z     vdW  Elec       q    Type
REMARK                         _______ _______ _______ _____ _____    ______ ____
ROOT
ATOM      1  C   UNL     1       3.892   5.306  18.410  0.00  0.00    +0.000 A 
ATOM      2  C   UNL     1       3.306   6.565  18.328  0.00  0.00    +0.000 A 
ATOM      3  C   UNL     1       2.357   6.892  19.269  0.00  0.00    +0.000 A 
ATOM      4  N   UNL     1       1.929   6.091  20.249  0.00  0.00    +0.000 NA
ATOM      5  C   UNL     1       2.499   4.885  20.342  0.00  0.00    +0.000 A 
ATOM      6  C   UNL     1       2.045   4.051  21.352  0.00  0.00    +0.000 A 
ATOM      7  C   UNL     1       2.563   2.773  21.543  0.00  0.00    +0.000 A 
ATOM      8  C   UNL     1       3.592   2.323  20.729  0.00  0.00    +0.000 A 
ATOM      9  C   UNL     1       4.081   3.145  19.717  0.00  0.00    +0.000 A 
ATOM     10  C   UNL     1       3.519   4.426  19.465  0.00  0.00    +0.000 A 
ATOM     11  C   UNL     1       1.847   8.240  19.045  0.00  0.00    +0.000 C 
ATOM     12  C   UNL     1       0.929   8.833  19.823  0.00  0.00    +0.000 C 
ATOM     13  C   UNL     1       2.553   8.782  17.826  0.00  0.00    +0.000 C 
ATOM     14  C   UNL     1       3.513   7.671  17.345  0.00  0.00    +0.000 C 
ENDROOT
BRANCH  12  15
ATOM     15  C   UNL     1       0.430  10.190  19.600  0.00  0.00    +0.000 A 
ATOM     16  C   UNL     1      -0.640  10.411  18.726  0.00  0.00    +0.000 A 
ATOM     17  C   UNL     1      -1.107  11.707  18.497  0.00  0.00    +0.000 A 
ATOM     18  C   UNL     1      -0.500  12.776  19.147  0.00  0.00    +0.000 A 
ATOM     19  C   UNL     1       0.547  12.569  20.036  0.00  0.00    +0.000 A 
ATOM     20  C   UNL     1       1.017  11.274  20.263  0.00  0.00    +0.000 A 
BRANCH  18  21
ATOM     21  O   UNL     1      -0.903  14.060  18.928  0.00  0.00    +0.000 OA
ATOM     22  H   UNL     1      -1.015  14.190  17.972  0.00  0.00    +0.000 HD
ENDBRANCH  18  21
ENDBRANCH  12  15
BRANCH   1  24
ATOM     23  O   UNL     1       4.589   4.341  16.351  0.00  0.00    +0.000 OA
ATOM     24  C   UNL     1       4.884   4.942  17.369  0.00  0.00    +0.000 C 
BRANCH  24  25
ATOM     25  O   UNL     1       6.155   5.261  17.693  0.00  0.00    +0.000 OA
ATOM     26  H   UNL     1       6.477   6.109  17.332  0.00  0.00    +0.000 HD
ENDBRANCH  24  25
ENDBRANCH   1  24
TORSDOF 4
ENDMDL
MODEL 7
REMARK VINA RESULT:      -7.9      1.810      2.120
REMARK  Name = 
REMARK  4 active torsions:
REMARK  status: ('A' for Active; 'I' for Inactive)
REMARK    1  A    between atoms: C_2  and  O_3
REMARK    2  A    between atoms: C_2  and  C_4
REMARK    3  A    between atoms: C_15  and  C_16
REMARK    4  A    between atoms: C_19  and  O_20
REMARK                            x       y       z     vdW  Elec       q    Type
REMARK                         _______ _______ _______ _____ _____    ______ ____
ROOT
ATOM      1  C   UNL     1       4.181   4.583  18.250  0.00  0.00    +0.000 A 
ATOM      2  C   UNL     1       3.362   5.637  18.644  0.00  0.00    +0.000 A 
ATOM      3  C   UNL     1       3.339   6.760  17.851  0.00  0.00    +0.000 A 
ATOM      4  N   UNL     1       4.055   6.939  16.738  0.00  0.00    +0.000 NA
ATOM      5  C   UNL     1       4.833   5.925  16.345  0.00  0.00    +0.000 A 
ATOM      6  C   UNL     1       5.585   6.117  15.196  0.00  0.00    +0.000 A 
ATOM      7  C   UNL     1       6.431   5.131  14.695  0.00  0.00    +0.000 A 
ATOM      8  C   UNL     1       6.504   3.902  15.333  0.00  0.00    +0.000 A 
ATOM      9  C   UNL     1       5.746   3.673  16.479  0.00  0.00    +0.000 A 
ATOM     10  C   UNL     1       4.929   4.690  17.043  0.00  0.00    +0.000 A 
ATOM     11  C   UNL     1       2.433   7.764  18.401  0.00  0.00    +0.000 C 
ATOM     12  C   UNL     1       2.193   8.951  17.824  0.00  0.00    +0.000 C 
ATOM     13  C   UNL     1       1.860   7.191  19.673  0.00  0.00    +0.000 C 
ATOM     14  C   UNL     1       2.481   5.787  19.841  0.00  0.00    +0.000 C 
ENDROOT
BRANCH  12  15
ATOM     15  C   UNL     1       1.274   9.949  18.374  0.00  0.00    +0.000 A 
ATOM     16  C   UNL     1      -0.107   9.802  18.203  0.00  0.00    +0.000 A 
ATOM     17  C   UNL     1      -0.986  10.762  18.710  0.00  0.00    +0.000 A 
ATOM     18  C   UNL     1      -0.476  11.865  19.387  0.00  0.00    +0.000 A 
ATOM     19  C   UNL     1       0.892  12.011  19.584  0.00  0.00    +0.000 A 
ATOM     20  C   UNL     1       1.771  11.053  19.075  0.00  0.00    +0.000 A 
BRANCH  18  21
ATOM     21  O   UNL     1      -1.295  12.842  19.870  0.00  0.00    +0.000 OA
ATOM     22  H   UNL     1      -1.822  13.195  19.134  0.00  0.00    +0.000 HD
ENDBRANCH  18  21
ENDBRANCH  12  15
BRANCH   1  24
ATOM     23  O   UNL     1       5.175   3.153  19.869  0.00  0.00    +0.000 OA
ATOM     24  C   UNL     1       4.237   3.391  19.130  0.00  0.00    +0.000 C 
BRANCH  24  25
ATOM     25  O   UNL     1       3.192   2.549  18.972  0.00  0.00    +0.000 OA
ATOM     26  H   UNL     1       2.529   2.827  18.313  0.00  0.00    +0.000 HD
ENDBRANCH  24  25
ENDBRANCH   1  24
TORSDOF 4
ENDMDL
MODEL 8
REMARK VINA RESULT:      -7.8      1.923      7.875
REMARK  Name = 
REMARK  4 active torsions:
REMARK  status: ('A' for Active; 'I' for Inactive)
REMARK    1  A    between atoms: C_2  and  O_3
REMARK    2  A    between atoms: C_2  and  C_4
REMARK    3  A    between atoms: C_15  and  C_16
REMARK    4  A    between atoms: C_19  and  O_20
REMARK                            x       y       z     vdW  Elec       q    Type
REMARK                         _______ _______ _______ _____ _____    ______ ____
ROOT
ATOM      1  C   UNL     1       0.364   9.612  21.361  0.00  0.00    +0.000 A 
ATOM      2  C   UNL     1       1.128   8.616  20.761  0.00  0.00    +0.000 A 
ATOM      3  C   UNL     1       1.552   8.824  19.469  0.00  0.00    +0.000 A 
ATOM      4  N   UNL     1       1.275   9.899  18.726  0.00  0.00    +0.000 NA
ATOM      5  C   UNL     1       0.554  10.868  19.301  0.00  0.00    +0.000 A 
ATOM      6  C   UNL     1       0.257  11.977  18.524  0.00  0.00    +0.000 A 
ATOM      7  C   UNL     1      -0.488  13.045  19.017  0.00  0.00    +0.000 A 
ATOM      8  C   UNL     1      -0.919  13.028  20.336  0.00  0.00    +0.000 A 
ATOM      9  C   UNL     1      -0.621  11.936  21.146  0.00  0.00    +0.000 A 
ATOM     10  C   UNL     1       0.080  10.807  20.640  0.00  0.00    +0.000 A 
ATOM     11  C   UNL     1       2.339   7.692  18.993  0.00  0.00    +0.000 C 
ATOM     12  C   UNL     1       2.902   7.630  17.777  0.00  0.00    +0.000 C 
ATOM     13  C   UNL     1       2.380   6.682  20.112  0.00  0.00    +0.000 C 
ATOM     14  C   UNL     1       1.572   7.287  21.280  0.00  0.00    +0.000 C 
ENDROOT
BRANCH  12  15
ATOM     15  C   UNL     1       3.700   6.497  17.308  0.00  0.00    +0.000 A 
ATOM     16  C   UNL     1       4.880   6.718  16.589  0.00  0.00    +0.000 A 
ATOM     17  C   UNL     1       5.635   5.639  16.124  0.00  0.00    +0.000 A 
ATOM     18  C   UNL     1       5.204   4.342  16.383  0.00  0.00    +0.000 A 
ATOM     19  C   UNL     1       4.047   4.108  17.116  0.00  0.00    +0.000 A 
ATOM     20  C   UNL     1       3.290   5.186  17.579  0.00  0.00    +0.000 A 
BRANCH  18  21
ATOM     21  O   UNL     1       5.893   3.260  15.921  0.00  0.00    +0.000 OA
ATOM     22  H   UNL     1       5.515   2.460  16.321  0.00  0.00    +0.000 HD
ENDBRANCH  18  21
ENDBRANCH  12  15
BRANCH   1  24
ATOM     23  O   UNL     1       0.401   9.838  23.728  0.00  0.00    +0.000 OA
ATOM     24  C   UNL     1      -0.128   9.365  22.738  0.00  0.00    +0.000 C 
BRANCH  24  25
ATOM     25  O   UNL     1      -1.163   8.501  22.798  0.00  0.00    +0.000 OA
ATOM     26  H   UNL     1      -1.969   8.782  22.325  0.00  0.00    +0.000 HD
ENDBRANCH  24  25
ENDBRANCH   1  24
TORSDOF 4
ENDMDL
MODEL 9
REMARK VINA RESULT:      -7.8      1.529      1.896
REMARK  Name = 
REMARK  4 active torsions:
REMARK  status: ('A' for Active; 'I' for Inactive)
REMARK    1  A    between atoms: C_2  and  O_3
REMARK    2  A    between atoms: C_2  and  C_4
REMARK    3  A    between atoms: C_15  and  C_16
REMARK    4  A    between atoms: C_19  and  O_20
REMARK                            x       y       z     vdW  Elec       q    Type
REMARK                         _______ _______ _______ _____ _____    ______ ____
ROOT
ATOM      1  C   UNL     1       4.120   4.455  18.173  0.00  0.00    +0.000 A 
ATOM      2  C   UNL     1       3.372   5.535  18.631  0.00  0.00    +0.000 A 
ATOM      3  C   UNL     1       3.382   6.686  17.879  0.00  0.00    +0.000 A 
ATOM      4  N   UNL     1       4.070   6.868  16.748  0.00  0.00    +0.000 NA
ATOM      5  C   UNL     1       4.780   5.829  16.294  0.00  0.00    +0.000 A 
ATOM      6  C   UNL     1       5.503   6.023  15.127  0.00  0.00    +0.000 A 
ATOM      7  C   UNL     1       6.279   5.014  14.563  0.00  0.00    +0.000 A 
ATOM      8  C   UNL     1       6.307   3.760  15.156  0.00  0.00    +0.000 A 
ATOM      9  C   UNL     1       5.576   3.529  16.319  0.00  0.00    +0.000 A 
ATOM     10  C   UNL     1       4.833   4.567  16.946  0.00  0.00    +0.000 A 
ATOM     11  C   UNL     1       2.550   7.715  18.493  0.00  0.00    +0.000 C 
ATOM     12  C   UNL     1       2.354   8.933  17.967  0.00  0.00    +0.000 C 
ATOM     13  C   UNL     1       1.989   7.127  19.764  0.00  0.00    +0.000 C 
ATOM     14  C   UNL     1       2.539   5.688  19.862  0.00  0.00    +0.000 C 
ENDROOT
BRANCH  12  15
ATOM     15  C   UNL     1       1.509   9.957  18.581  0.00  0.00    +0.000 A 
ATOM     16  C   UNL     1       1.875  11.306  18.511  0.00  0.00    +0.000 A 
ATOM     17  C   UNL     1       1.080  12.285  19.112  0.00  0.00    +0.000 A 
ATOM     18  C   UNL     1      -0.080  11.906  19.780  0.00  0.00    +0.000 A 
ATOM     19  C   UNL     1      -0.468  10.574  19.837  0.00  0.00    +0.000 A 
ATOM     20  C   UNL     1       0.328   9.595  19.239  0.00  0.00    +0.000 A 
BRANCH  18  21
ATOM     21  O   UNL     1      -0.868  12.825  20.408  0.00  0.00    +0.000 OA
ATOM     22  H   UNL     1      -1.757  12.786  20.019  0.00  0.00    +0.000 HD
ENDBRANCH  18  21
ENDBRANCH  12  15
BRANCH   1  24
ATOM     23  O   UNL     1       3.190   2.476  19.108  0.00  0.00    +0.000 OA
ATOM     24  C   UNL     1       4.141   3.230  19.009  0.00  0.00    +0.000 C 
BRANCH  24  25
ATOM     25  O   UNL     1       5.280   3.075  19.717  0.00  0.00    +0.000 OA
ATOM     26  H   UNL     1       6.013   3.668  19.463  0.00  0.00    +0.000 HD
ENDBRANCH  24  25
ENDBRANCH   1  24
TORSDOF 4
ENDMDL
