MODEL 1
REMARK VINA RESULT:      -8.3      0.000      0.000
REMARK  Name = 
REMARK  7 active torsions:
REMARK  status: ('A' for Active; 'I' for Inactive)
REMARK    1  A    between atoms: C_1  and  C_2
REMARK    2  A    between atoms: C_5  and  C_6
REMARK    3  A    between atoms: C_8  and  C_9
REMARK    4  A    between atoms: C_16  and  C_18
REMARK    5  A    between atoms: C_18  and  S_19
REMARK    6  A    between atoms: S_19  and  C_20
REMARK    7  A    between atoms: C_27  and  C_28
REMARK                            x       y       z     vdW  Elec       q    Type
REMARK                         _______ _______ _______ _____ _____    ______ ____
ROOT
ATOM      1  C   UNL     1      -0.958  12.672  19.217  0.00  0.00    +0.000 C 
ATOM      2  C   UNL     1      -0.202  13.970  18.968  0.00  0.00    +0.000 C 
ATOM      3  C   UNL     1       1.197  13.448  18.795  0.00  0.00    +0.000 C 
ATOM      4  N   UNL     1       1.335  12.159  18.926  0.00  0.00    +0.000 NA
ATOM      5  N   UNL     1       0.091  11.652  19.222  0.00  0.00    +0.000 N 
ATOM      6  C   UNL     1      -0.150  10.284  19.337  0.00  0.00    +0.000 C 
ATOM      7  O   UNL     1      -1.284   9.831  19.502  0.00  0.00    +0.000 OA
ENDROOT
BRANCH   1  12
ATOM      8  C   UNL     1      -4.091  12.648  24.132  0.00  0.00    +0.000 C 
ATOM      9  C   UNL     1      -3.294  12.712  22.868  0.00  0.00    +0.000 A 
ATOM     10  C   UNL     1      -3.926  12.747  21.615  0.00  0.00    +0.000 A 
ATOM     11  C   UNL     1      -3.169  12.756  20.442  0.00  0.00    +0.000 A 
ATOM     12  C   UNL     1      -1.766  12.720  20.498  0.00  0.00    +0.000 A 
ATOM     13  C   UNL     1      -1.141  12.715  21.753  0.00  0.00    +0.000 A 
ATOM     14  C   UNL     1      -1.900  12.706  22.926  0.00  0.00    +0.000 A 
ENDBRANCH   1  12
BRANCH   3  15
ATOM     15  C   UNL     1       2.323  14.307  18.504  0.00  0.00    +0.000 A 
ATOM     16  C   UNL     1       3.611  13.936  18.165  0.00  0.00    +0.000 A 
ATOM     17  C   UNL     1       4.472  15.056  17.969  0.00  0.00    +0.000 A 
ATOM     18  C   UNL     1       3.815  16.250  18.166  0.00  0.00    +0.000 A 
ATOM     19  S   UNL     1       2.173  16.014  18.571  0.00  0.00    +0.000 S 
ENDBRANCH   3  15
BRANCH   6  20
ATOM     20  C   UNL     1       1.096   9.410  19.207  0.00  0.00    +0.000 C 
BRANCH  20  21
ATOM     21  S   UNL     1       1.456   8.424  20.697  0.00  0.00    +0.000 S 
BRANCH  21  22
ATOM     22  C   UNL     1       2.178   7.018  19.942  0.00  0.00    +0.000 A 
ATOM     23  N   UNL     1       1.872   5.855  20.386  0.00  0.00    +0.000 NA
ATOM     24  C   UNL     1       2.370   4.757  19.751  0.00  0.00    +0.000 A 
ATOM     25  O   UNL     1       2.136   3.635  20.197  0.00  0.00    +0.000 OA
ATOM     26  N   UNL     1       3.125   4.943  18.608  0.00  0.00    +0.000 N 
ATOM     27  C   UNL     1       3.541   3.862  17.844  0.00  0.00    +0.000 A 
ATOM     28  C   UNL     1       4.308   4.023  16.758  0.00  0.00    +0.000 A 
ATOM     29  C   UNL     1       4.767   5.344  16.384  0.00  0.00    +0.000 A 
ATOM     30  C   UNL     1       5.665   5.470  15.190  0.00  0.00    +0.000 C 
ATOM     31  C   UNL     1       4.380   6.407  17.105  0.00  0.00    +0.000 A 
ATOM     32  C   UNL     1       3.475   6.229  18.278  0.00  0.00    +0.000 A 
ATOM     33  N   UNL     1       3.058   7.256  18.931  0.00  0.00    +0.000 NA
ENDBRANCH  21  22
ENDBRANCH  20  21
ENDBRANCH   6  20
TORSDOF 5
ENDMDL
MODEL 2
REMARK VINA RESULT:      -8.2      1.358      2.557
REMARK  Name = 
REMARK  7 active torsions:
REMARK  status: ('A' for Active; 'I' for Inactive)
REMARK    1  A    between atoms: C_1  and  C_2
REMARK    2  A    between atoms: C_5  and  C_6
REMARK    3  A    between atoms: C_8  and  C_9
REMARK    4  A    between atoms: C_16  and  C_18
REMARK    5  A    between atoms: C_18  and  S_19
REMARK    6  A    between atoms: S_19  and  C_20
REMARK    7  A    between atoms: C_27  and  C_28
REMARK                            x       y       z     vdW  Elec       q    Type
REMARK                         _______ _______ _______ _____ _____    ______ ____
ROOT
ATOM      1  C   UNL     1      -0.798  12.516  19.364  0.00  0.00    +0.000 C 
ATOM      2  C   UNL     1      -0.173  13.877  19.086  0.00  0.00    +0.000 C 
ATOM      3  C   UNL     1       1.278  13.497  18.969  0.00  0.00    +0.000 C 
ATOM      4  N   UNL     1       1.543  12.235  19.152  0.00  0.00    +0.000 NA
ATOM      5  N   UNL     1       0.351  11.612  19.434  0.00  0.00    +0.000 N 
ATOM      6  C   UNL     1       0.248  10.231  19.593  0.00  0.00    +0.000 C 
ATOM      7  O   UNL     1      -0.837   9.668  19.745  0.00  0.00    +0.000 OA
ENDROOT
BRANCH   1  12
ATOM      8  C   UNL     1      -4.010  12.758  24.222  0.00  0.00    +0.000 C 
ATOM      9  C   UNL     1      -3.185  12.638  22.979  0.00  0.00    +0.000 A 
ATOM     10  C   UNL     1      -1.792  12.483  23.048  0.00  0.00    +0.000 A 
ATOM     11  C   UNL     1      -1.029  12.422  21.880  0.00  0.00    +0.000 A 
ATOM     12  C   UNL     1      -1.644  12.525  20.620  0.00  0.00    +0.000 A 
ATOM     13  C   UNL     1      -3.039  12.650  20.559  0.00  0.00    +0.000 A 
ATOM     14  C   UNL     1      -3.800  12.710  21.729  0.00  0.00    +0.000 A 
ENDBRANCH   1  12
BRANCH   3  15
ATOM     15  C   UNL     1       2.317  14.459  18.676  0.00  0.00    +0.000 A 
ATOM     16  C   UNL     1       3.605  14.212  18.239  0.00  0.00    +0.000 A 
ATOM     17  C   UNL     1       4.367  15.406  18.073  0.00  0.00    +0.000 A 
ATOM     18  C   UNL     1       3.638  16.529  18.390  0.00  0.00    +0.000 A 
ATOM     19  S   UNL     1       2.047  16.140  18.870  0.00  0.00    +0.000 S 
ENDBRANCH   3  15
BRANCH   6  20
ATOM     20  C   UNL     1       1.581   9.488  19.528  0.00  0.00    +0.000 C 
BRANCH  20  21
ATOM     21  S   UNL     1       2.090   9.046  17.834  0.00  0.00    +0.000 S 
BRANCH  21  22
ATOM     22  C   UNL     1       2.690   7.427  18.129  0.00  0.00    +0.000 A 
ATOM     23  N   UNL     1       3.748   7.042  17.517  0.00  0.00    +0.000 NA
ATOM     24  C   UNL     1       4.261   5.812  17.804  0.00  0.00    +0.000 A 
ATOM     25  O   UNL     1       5.242   5.400  17.186  0.00  0.00    +0.000 OA
ATOM     26  N   UNL     1       3.660   5.062  18.797  0.00  0.00    +0.000 N 
ATOM     27  C   UNL     1       4.219   3.867  19.226  0.00  0.00    +0.000 A 
ATOM     28  C   UNL     1       3.626   3.108  20.156  0.00  0.00    +0.000 A 
ATOM     29  C   UNL     1       2.346   3.501  20.704  0.00  0.00    +0.000 A 
ATOM     30  C   UNL     1       1.696   2.595  21.707  0.00  0.00    +0.000 C 
ATOM     31  C   UNL     1       1.782   4.652  20.308  0.00  0.00    +0.000 A 
ATOM     32  C   UNL     1       2.476   5.525  19.315  0.00  0.00    +0.000 A 
ATOM     33  N   UNL     1       1.962   6.656  18.982  0.00  0.00    +0.000 NA
ENDBRANCH  21  22
ENDBRANCH  20  21
ENDBRANCH   6  20
TORSDOF 5
ENDMDL
MODEL 3
REMARK VINA RESULT:      -8.2      2.482      4.165
REMARK  Name = 
REMARK  7 active torsions:
REMARK  status: ('A' for Active; 'I' for Inactive)
REMARK    1  A    between atoms: C_1  and  C_2
REMARK    2  A    between atoms: C_5  and  C_6
REMARK    3  A    between atoms: C_8  and  C_9
REMARK    4  A    between atoms: C_16  and  C_18
REMARK    5  A    between atoms: C_18  and  S_19
REMARK    6  A    between atoms: S_19  and  C_20
REMARK    7  A    between atoms: C_27  and  C_28
REMARK                            x       y       z     vdW  Elec       q    Type
REMARK                         _______ _______ _______ _____ _____    ______ ____
ROOT
ATOM      1  C   UNL     1      -1.075  12.020  20.569  0.00  0.00    +0.000 C 
ATOM      2  C   UNL     1      -2.091  12.205  19.449  0.00  0.00    +0.000 C 
ATOM      3  C   UNL     1      -1.768  11.020  18.582  0.00  0.00    +0.000 C 
ATOM      4  N   UNL     1      -0.785  10.273  18.997  0.00  0.00    +0.000 NA
ATOM      5  N   UNL     1      -0.307  10.847  20.152  0.00  0.00    +0.000 N 
ATOM      6  C   UNL     1       0.693  10.255  20.922  0.00  0.00    +0.000 C 
ATOM      7  O   UNL     1       1.047  10.721  22.006  0.00  0.00    +0.000 OA
ENDROOT
BRANCH   1  12
ATOM      8  C   UNL     1       2.331  16.664  21.468  0.00  0.00    +0.000 C 
ATOM      9  C   UNL     1       1.413  15.507  21.227  0.00  0.00    +0.000 A 
ATOM     10  C   UNL     1       0.576  15.025  22.246  0.00  0.00    +0.000 A 
ATOM     11  C   UNL     1      -0.240  13.914  22.022  0.00  0.00    +0.000 A 
ATOM     12  C   UNL     1      -0.229  13.259  20.779  0.00  0.00    +0.000 A 
ATOM     13  C   UNL     1       0.588  13.765  19.757  0.00  0.00    +0.000 A 
ATOM     14  C   UNL     1       1.403  14.877  19.983  0.00  0.00    +0.000 A 
ENDBRANCH   1  12
BRANCH   3  15
ATOM     15  C   UNL     1      -2.491  10.720  17.366  0.00  0.00    +0.000 A 
ATOM     16  C   UNL     1      -2.114   9.873  16.340  0.00  0.00    +0.000 A 
ATOM     17  C   UNL     1      -3.067   9.837  15.280  0.00  0.00    +0.000 A 
ATOM     18  C   UNL     1      -4.143  10.658  15.528  0.00  0.00    +0.000 A 
ATOM     19  S   UNL     1      -4.004  11.454  17.032  0.00  0.00    +0.000 S 
ENDBRANCH   3  15
BRANCH   6  20
ATOM     20  C   UNL     1       1.277   8.976  20.323  0.00  0.00    +0.000 C 
BRANCH  20  21
ATOM     21  S   UNL     1       0.911   7.480  21.297  0.00  0.00    +0.000 S 
BRANCH  21  22
ATOM     22  C   UNL     1       1.936   6.334  20.457  0.00  0.00    +0.000 A 
ATOM     23  N   UNL     1       1.979   5.124  20.876  0.00  0.00    +0.000 NA
ATOM     24  C   UNL     1       2.715   4.213  20.178  0.00  0.00    +0.000 A 
ATOM     25  O   UNL     1       2.816   3.060  20.596  0.00  0.00    +0.000 OA
ATOM     26  N   UNL     1       3.324   4.618  19.006  0.00  0.00    +0.000 N 
ATOM     27  C   UNL     1       3.969   3.704  18.184  0.00  0.00    +0.000 A 
ATOM     28  C   UNL     1       4.600   4.087  17.067  0.00  0.00    +0.000 A 
ATOM     29  C   UNL     1       4.667   5.489  16.716  0.00  0.00    +0.000 A 
ATOM     30  C   UNL     1       5.427   5.876  15.483  0.00  0.00    +0.000 C 
ATOM     31  C   UNL     1       4.053   6.395  17.493  0.00  0.00    +0.000 A 
ATOM     32  C   UNL     1       3.298   5.957  18.704  0.00  0.00    +0.000 A 
ATOM     33  N   UNL     1       2.660   6.820  19.412  0.00  0.00    +0.000 NA
ENDBRANCH  21  22
ENDBRANCH  20  21
ENDBRANCH   6  20
TORSDOF 5
ENDMDL
MODEL 4
REMARK VINA RESULT:      -8.1      3.156      4.449
REMARK  Name = 
REMARK  7 active torsions:
REMARK  status: ('A' for Active; 'I' for Inactive)
REMARK    1  A    between atoms: C_1  and  C_2
REMARK    2  A    between atoms: C_5  and  C_6
REMARK    3  A    between atoms: C_8  and  C_9
REMARK    4  A    between atoms: C_16  and  C_18
REMARK    5  A    between atoms: C_18  and  S_19
REMARK    6  A    between atoms: S_19  and  C_20
REMARK    7  A    between atoms: C_27  and  C_28
REMARK                            x       y       z     vdW  Elec       q    Type
REMARK                         _______ _______ _______ _____ _____    ______ ____
ROOT
ATOM      1  C   UNL     1      -2.611  12.550  21.032  0.00  0.00    +0.000 C 
ATOM      2  C   UNL     1      -3.415  12.384  19.749  0.00  0.00    +0.000 C 
ATOM      3  C   UNL     1      -2.496  11.495  18.958  0.00  0.00    +0.000 C 
ATOM      4  N   UNL     1      -1.374  11.185  19.545  0.00  0.00    +0.000 NA
ATOM      5  N   UNL     1      -1.371  11.821  20.763  0.00  0.00    +0.000 N 
ATOM      6  C   UNL     1      -0.357  11.635  21.701  0.00  0.00    +0.000 C 
ATOM      7  O   UNL     1      -0.409  12.127  22.829  0.00  0.00    +0.000 OA
ENDROOT
BRANCH   1  12
ATOM      8  C   UNL     1      -1.949  18.210  22.258  0.00  0.00    +0.000 C 
ATOM      9  C   UNL     1      -2.067  16.747  21.965  0.00  0.00    +0.000 A 
ATOM     10  C   UNL     1      -1.495  16.193  20.809  0.00  0.00    +0.000 A 
ATOM     11  C   UNL     1      -1.655  14.835  20.524  0.00  0.00    +0.000 A 
ATOM     12  C   UNL     1      -2.397  14.008  21.384  0.00  0.00    +0.000 A 
ATOM     13  C   UNL     1      -2.940  14.563  22.552  0.00  0.00    +0.000 A 
ATOM     14  C   UNL     1      -2.778  15.921  22.835  0.00  0.00    +0.000 A 
ENDBRANCH   1  12
BRANCH   3  15
ATOM     15  C   UNL     1      -2.821  11.013  17.635  0.00  0.00    +0.000 A 
ATOM     16  C   UNL     1      -2.076  10.170  16.830  0.00  0.00    +0.000 A 
ATOM     17  C   UNL     1      -2.698   9.922  15.571  0.00  0.00    +0.000 A 
ATOM     18  C   UNL     1      -3.898  10.584  15.450  0.00  0.00    +0.000 A 
ATOM     19  S   UNL     1      -4.271  11.485  16.853  0.00  0.00    +0.000 S 
ENDBRANCH   3  15
BRANCH   6  20
ATOM     20  C   UNL     1       0.791  10.748  21.221  0.00  0.00    +0.000 C 
BRANCH  20  21
ATOM     21  S   UNL     1       0.784   9.080  21.959  0.00  0.00    +0.000 S 
BRANCH  21  22
ATOM     22  C   UNL     1       1.440   8.170  20.614  0.00  0.00    +0.000 A 
ATOM     23  N   UNL     1       1.644   8.775  19.502  0.00  0.00    +0.000 NA
ATOM     24  C   UNL     1       2.227   8.089  18.479  0.00  0.00    +0.000 A 
ATOM     25  O   UNL     1       2.378   8.634  17.386  0.00  0.00    +0.000 OA
ATOM     26  N   UNL     1       2.641   6.790  18.707  0.00  0.00    +0.000 N 
ATOM     27  C   UNL     1       3.362   6.091  17.750  0.00  0.00    +0.000 A 
ATOM     28  C   UNL     1       3.733   4.819  17.939  0.00  0.00    +0.000 A 
ATOM     29  C   UNL     1       3.339   4.120  19.143  0.00  0.00    +0.000 A 
ATOM     30  C   UNL     1       3.734   2.682  19.290  0.00  0.00    +0.000 C 
ATOM     31  C   UNL     1       2.641   4.771  20.087  0.00  0.00    +0.000 A 
ATOM     32  C   UNL     1       2.283   6.208  19.898  0.00  0.00    +0.000 A 
ATOM     33  N   UNL     1       1.666   6.845  20.830  0.00  0.00    +0.000 NA
ENDBRANCH  21  22
ENDBRANCH  20  21
ENDBRANCH   6  20
TORSDOF 5
ENDMDL
MODEL 5
REMARK VINA RESULT:      -8.1      3.487      8.372
REMARK  Name = 
REMARK  7 active torsions:
REMARK  status: ('A' for Active; 'I' for Inactive)
REMARK    1  A    between atoms: C_1  and  C_2
REMARK    2  A    between atoms: C_5  and  C_6
REMARK    3  A    between atoms: C_8  and  C_9
REMARK    4  A    between atoms: C_16  and  C_18
REMARK    5  A    between atoms: C_18  and  S_19
REMARK    6  A    between atoms: S_19  and  C_20
REMARK    7  A    between atoms: C_27  and  C_28
REMARK                            x       y       z     vdW  Elec       q    Type
REMARK                         _______ _______ _______ _____ _____    ______ ____
ROOT
ATOM      1  C   UNL     1       0.284  10.615  18.471  0.00  0.00    +0.000 C 
ATOM      2  C   UNL     1      -1.100  10.539  19.102  0.00  0.00    +0.000 C 
ATOM      3  C   UNL     1      -1.118  11.822  19.887  0.00  0.00    +0.000 C 
ATOM      4  N   UNL     1      -0.030  12.535  19.820  0.00  0.00    +0.000 NA
ATOM      5  N   UNL     1       0.854  11.843  19.026  0.00  0.00    +0.000 N 
ATOM      6  C   UNL     1       2.095  12.362  18.661  0.00  0.00    +0.000 C 
ATOM      7  O   UNL     1       2.839  11.783  17.869  0.00  0.00    +0.000 OA
ENDROOT
BRANCH   1  12
ATOM      8  C   UNL     1       3.279   5.734  19.559  0.00  0.00    +0.000 C 
ATOM      9  C   UNL     1       2.555   7.018  19.299  0.00  0.00    +0.000 A 
ATOM     10  C   UNL     1       1.866   7.680  20.328  0.00  0.00    +0.000 A 
ATOM     11  C   UNL     1       1.153   8.851  20.060  0.00  0.00    +0.000 A 
ATOM     12  C   UNL     1       1.108   9.377  18.758  0.00  0.00    +0.000 A 
ATOM     13  C   UNL     1       1.824   8.726  17.742  0.00  0.00    +0.000 A 
ATOM     14  C   UNL     1       2.536   7.556  18.012  0.00  0.00    +0.000 A 
ENDBRANCH   1  12
BRANCH   3  15
ATOM     15  C   UNL     1      -2.258  12.244  20.669  0.00  0.00    +0.000 A 
ATOM     16  C   UNL     1      -3.520  12.584  20.217  0.00  0.00    +0.000 A 
ATOM     17  C   UNL     1      -4.394  12.977  21.274  0.00  0.00    +0.000 A 
ATOM     18  C   UNL     1      -3.773  12.926  22.501  0.00  0.00    +0.000 A 
ATOM     19  S   UNL     1      -2.155  12.398  22.373  0.00  0.00    +0.000 S 
ENDBRANCH   3  15
BRANCH   6  20
ATOM     20  C   UNL     1       2.426  13.712  19.296  0.00  0.00    +0.000 C 
BRANCH  20  21
ATOM     21  S   UNL     1       2.523  15.080  18.095  0.00  0.00    +0.000 S 
BRANCH  21  22
ATOM     22  C   UNL     1       4.214  15.500  18.277  0.00  0.00    +0.000 A 
ATOM     23  N   UNL     1       4.516  16.629  18.801  0.00  0.00    +0.000 NA
ATOM     24  C   UNL     1       5.829  16.924  19.014  0.00  0.00    +0.000 A 
ATOM     25  O   UNL     1       6.143  18.027  19.462  0.00  0.00    +0.000 OA
ATOM     26  N   UNL     1       6.777  15.961  18.725  0.00  0.00    +0.000 N 
ATOM     27  C   UNL     1       8.112  16.152  19.050  0.00  0.00    +0.000 A 
ATOM     28  C   UNL     1       9.048  15.247  18.738  0.00  0.00    +0.000 A 
ATOM     29  C   UNL     1       8.687  14.056  17.999  0.00  0.00    +0.000 A 
ATOM     30  C   UNL     1       9.776  13.095  17.628  0.00  0.00    +0.000 C 
ATOM     31  C   UNL     1       7.403  13.845  17.671  0.00  0.00    +0.000 A 
ATOM     32  C   UNL     1       6.354  14.828  18.075  0.00  0.00    +0.000 A 
ATOM     33  N   UNL     1       5.117  14.593  17.812  0.00  0.00    +0.000 NA
ENDBRANCH  21  22
ENDBRANCH  20  21
ENDBRANCH   6  20
TORSDOF 5
ENDMDL
MODEL 6
REMARK VINA RESULT:      -8.0      2.574      4.191
REMARK  Name = 
REMARK  7 active torsions:
REMARK  status: ('A' for Active; 'I' for Inactive)
REMARK    1  A    between atoms: C_1  and  C_2
REMARK    2  A    between atoms: C_5  and  C_6
REMARK    3  A    between atoms: C_8  and  C_9
REMARK    4  A    between atoms: C_16  and  C_18
REMARK    5  A    between atoms: C_18  and  S_19
REMARK    6  A    between atoms: S_19  and  C_20
REMARK    7  A    between atoms: C_27  and  C_28
REMARK                            x       y       z     vdW  Elec       q    Type
REMARK                         _______ _______ _______ _____ _____    ______ ____
ROOT
ATOM      1  C   UNL     1      -1.158  11.862  20.664  0.00  0.00    +0.000 C 
ATOM      2  C   UNL     1      -2.159  12.107  19.543  0.00  0.00    +0.000 C 
ATOM      3  C   UNL     1      -1.852  10.946  18.638  0.00  0.00    +0.000 C 
ATOM      4  N   UNL     1      -0.889  10.164  19.036  0.00  0.00    +0.000 NA
ATOM      5  N   UNL     1      -0.410  10.688  20.214  0.00  0.00    +0.000 N 
ATOM      6  C   UNL     1       0.570  10.049  20.972  0.00  0.00    +0.000 C 
ATOM      7  O   UNL     1       0.923  10.469  22.074  0.00  0.00    +0.000 OA
ENDROOT
BRANCH   1  12
ATOM      8  C   UNL     1       2.044  16.649  21.567  0.00  0.00    +0.000 C 
ATOM      9  C   UNL     1       1.268  15.388  21.349  0.00  0.00    +0.000 A 
ATOM     10  C   UNL     1       1.339  14.698  20.128  0.00  0.00    +0.000 A 
ATOM     11  C   UNL     1       0.572  13.550  19.920  0.00  0.00    +0.000 A 
ATOM     12  C   UNL     1      -0.288  13.075  20.925  0.00  0.00    +0.000 A 
ATOM     13  C   UNL     1      -0.331  13.752  22.152  0.00  0.00    +0.000 A 
ATOM     14  C   UNL     1       0.438  14.900  22.358  0.00  0.00    +0.000 A 
ENDBRANCH   1  12
BRANCH   3  15
ATOM     15  C   UNL     1      -2.569  10.703  17.406  0.00  0.00    +0.000 A 
ATOM     16  C   UNL     1      -2.178   9.922  16.334  0.00  0.00    +0.000 A 
ATOM     17  C   UNL     1      -3.130   9.930  15.273  0.00  0.00    +0.000 A 
ATOM     18  C   UNL     1      -4.220  10.718  15.565  0.00  0.00    +0.000 A 
ATOM     19  S   UNL     1      -4.094  11.429  17.112  0.00  0.00    +0.000 S 
ENDBRANCH   3  15
BRANCH   6  20
ATOM     20  C   UNL     1       1.133   8.779  20.334  0.00  0.00    +0.000 C 
BRANCH  20  21
ATOM     21  S   UNL     1       1.826   9.044  18.669  0.00  0.00    +0.000 S 
BRANCH  21  22
ATOM     22  C   UNL     1       2.746   7.562  18.504  0.00  0.00    +0.000 A 
ATOM     23  N   UNL     1       2.568   6.628  19.363  0.00  0.00    +0.000 NA
ATOM     24  C   UNL     1       3.224   5.445  19.193  0.00  0.00    +0.000 A 
ATOM     25  O   UNL     1       3.111   4.557  20.037  0.00  0.00    +0.000 OA
ATOM     26  N   UNL     1       3.997   5.278  18.060  0.00  0.00    +0.000 N 
ATOM     27  C   UNL     1       4.574   4.051  17.765  0.00  0.00    +0.000 A 
ATOM     28  C   UNL     1       5.361   3.884  16.694  0.00  0.00    +0.000 A 
ATOM     29  C   UNL     1       5.669   5.009  15.838  0.00  0.00    +0.000 A 
ATOM     30  C   UNL     1       6.593   4.786  14.679  0.00  0.00    +0.000 C 
ATOM     31  C   UNL     1       5.124   6.207  16.099  0.00  0.00    +0.000 A 
ATOM     32  C   UNL     1       4.199   6.374  17.259  0.00  0.00    +0.000 A 
ATOM     33  N   UNL     1       3.632   7.509  17.472  0.00  0.00    +0.000 NA
ENDBRANCH  21  22
ENDBRANCH  20  21
ENDBRANCH   6  20
TORSDOF 5
ENDMDL
MODEL 7
REMARK VINA RESULT:      -8.0      1.024      1.426
REMARK  Name = 
REMARK  7 active torsions:
REMARK  status: ('A' for Active; 'I' for Inactive)
REMARK    1  A    between atoms: C_1  and  C_2
REMARK    2  A    between atoms: C_5  and  C_6
REMARK    3  A    between atoms: C_8  and  C_9
REMARK    4  A    between atoms: C_16  and  C_18
REMARK    5  A    between atoms: C_18  and  S_19
REMARK    6  A    between atoms: S_19  and  C_20
REMARK    7  A    between atoms: C_27  and  C_28
REMARK                            x       y       z     vdW  Elec       q    Type
REMARK                         _______ _______ _______ _____ _____    ______ ____
ROOT
ATOM      1  C   UNL     1      -1.061  12.631  19.612  0.00  0.00    +0.000 C 
ATOM      2  C   UNL     1      -0.412  13.991  19.385  0.00  0.00    +0.000 C 
ATOM      3  C   UNL     1       1.027  13.588  19.221  0.00  0.00    +0.000 C 
ATOM      4  N   UNL     1       1.270  12.313  19.340  0.00  0.00    +0.000 NA
ATOM      5  N   UNL     1       0.070  11.702  19.617  0.00  0.00    +0.000 N 
ATOM      6  C   UNL     1      -0.059  10.318  19.714  0.00  0.00    +0.000 C 
ATOM      7  O   UNL     1      -1.153   9.770  19.862  0.00  0.00    +0.000 OA
ENDROOT
BRANCH   1  12
ATOM      8  C   UNL     1      -4.181  12.713  24.535  0.00  0.00    +0.000 C 
ATOM      9  C   UNL     1      -3.378  12.634  23.274  0.00  0.00    +0.000 A 
ATOM     10  C   UNL     1      -1.981  12.506  23.314  0.00  0.00    +0.000 A 
ATOM     11  C   UNL     1      -1.241  12.483  22.130  0.00  0.00    +0.000 A 
ATOM     12  C   UNL     1      -1.881  12.598  20.885  0.00  0.00    +0.000 A 
ATOM     13  C   UNL     1      -3.280  12.697  20.853  0.00  0.00    +0.000 A 
ATOM     14  C   UNL     1      -4.019  12.719  22.038  0.00  0.00    +0.000 A 
ENDBRANCH   1  12
BRANCH   3  15
ATOM     15  C   UNL     1       2.081  14.541  18.952  0.00  0.00    +0.000 A 
ATOM     16  C   UNL     1       3.232  14.349  18.211  0.00  0.00    +0.000 A 
ATOM     17  C   UNL     1       4.062  15.508  18.175  0.00  0.00    +0.000 A 
ATOM     18  C   UNL     1       3.520  16.551  18.890  0.00  0.00    +0.000 A 
ATOM     19  S   UNL     1       2.018  16.132  19.587  0.00  0.00    +0.000 S 
ENDBRANCH   3  15
BRANCH   6  20
ATOM     20  C   UNL     1       1.257   9.551  19.588  0.00  0.00    +0.000 C 
BRANCH  20  21
ATOM     21  S   UNL     1       1.815   9.338  17.865  0.00  0.00    +0.000 S 
BRANCH  21  22
ATOM     22  C   UNL     1       2.730   7.854  18.044  0.00  0.00    +0.000 A 
ATOM     23  N   UNL     1       2.510   7.114  19.067  0.00  0.00    +0.000 NA
ATOM     24  C   UNL     1       3.163   5.922  19.168  0.00  0.00    +0.000 A 
ATOM     25  O   UNL     1       3.010   5.225  20.170  0.00  0.00    +0.000 OA
ATOM     26  N   UNL     1       3.980   5.528  18.125  0.00  0.00    +0.000 N 
ATOM     27  C   UNL     1       4.560   4.268  18.110  0.00  0.00    +0.000 A 
ATOM     28  C   UNL     1       5.388   3.887  17.129  0.00  0.00    +0.000 A 
ATOM     29  C   UNL     1       5.740   4.815  16.076  0.00  0.00    +0.000 A 
ATOM     30  C   UNL     1       6.709   4.362  15.026  0.00  0.00    +0.000 C 
ATOM     31  C   UNL     1       5.194   6.041  16.065  0.00  0.00    +0.000 A 
ATOM     32  C   UNL     1       4.224   6.439  17.128  0.00  0.00    +0.000 A 
ATOM     33  N   UNL     1       3.657   7.593  17.081  0.00  0.00    +0.000 NA
ENDBRANCH  21  22
ENDBRANCH  20  21
ENDBRANCH   6  20
TORSDOF 5
ENDMDL
MODEL 8
REMARK VINA RESULT:      -8.0      1.429      2.448
REMARK  Name = 
REMARK  7 active torsions:
REMARK  status: ('A' for Active; 'I' for Inactive)
REMARK    1  A    between atoms: C_1  and  C_2
REMARK    2  A    between atoms: C_5  and  C_6
REMARK    3  A    between atoms: C_8  and  C_9
REMARK    4  A    between atoms: C_16  and  C_18
REMARK    5  A    between atoms: C_18  and  S_19
REMARK    6  A    between atoms: S_19  and  C_20
REMARK    7  A    between atoms: C_27  and  C_28
REMARK                            x       y       z     vdW  Elec       q    Type
REMARK                         _______ _______ _______ _____ _____    ______ ____
ROOT
ATOM      1  C   UNL     1      -0.664  12.721  19.409  0.00  0.00    +0.000 C 
ATOM      2  C   UNL     1       0.115  14.007  19.167  0.00  0.00    +0.000 C 
ATOM      3  C   UNL     1       1.519  13.471  19.096  0.00  0.00    +0.000 C 
ATOM      4  N   UNL     1       1.639  12.186  19.275  0.00  0.00    +0.000 NA
ATOM      5  N   UNL     1       0.376  11.696  19.510  0.00  0.00    +0.000 N 
ATOM      6  C   UNL     1       0.118  10.334  19.651  0.00  0.00    +0.000 C 
ATOM      7  O   UNL     1      -1.027   9.892  19.760  0.00  0.00    +0.000 OA
ENDROOT
BRANCH   1  12
ATOM      8  C   UNL     1      -4.097  12.868  24.117  0.00  0.00    +0.000 C 
ATOM      9  C   UNL     1      -3.220  12.887  22.905  0.00  0.00    +0.000 A 
ATOM     10  C   UNL     1      -3.772  12.928  21.615  0.00  0.00    +0.000 A 
ATOM     11  C   UNL     1      -2.943  12.896  20.491  0.00  0.00    +0.000 A 
ATOM     12  C   UNL     1      -1.548  12.813  20.636  0.00  0.00    +0.000 A 
ATOM     13  C   UNL     1      -1.003  12.803  21.928  0.00  0.00    +0.000 A 
ATOM     14  C   UNL     1      -1.834  12.836  23.051  0.00  0.00    +0.000 A 
ENDBRANCH   1  12
BRANCH   3  15
ATOM     15  C   UNL     1       2.667  14.316  18.849  0.00  0.00    +0.000 A 
ATOM     16  C   UNL     1       3.153  14.754  17.631  0.00  0.00    +0.000 A 
ATOM     17  C   UNL     1       4.323  15.558  17.765  0.00  0.00    +0.000 A 
ATOM     18  C   UNL     1       4.696  15.709  19.081  0.00  0.00    +0.000 A 
ATOM     19  S   UNL     1       3.633  14.895  20.141  0.00  0.00    +0.000 S 
ENDBRANCH   3  15
BRANCH   6  20
ATOM     20  C   UNL     1       1.363   9.449  19.625  0.00  0.00    +0.000 C 
BRANCH  20  21
ATOM     21  S   UNL     1       2.013   9.152  17.947  0.00  0.00    +0.000 S 
BRANCH  21  22
ATOM     22  C   UNL     1       2.588   7.510  18.150  0.00  0.00    +0.000 A 
ATOM     23  N   UNL     1       3.574   7.110  17.437  0.00  0.00    +0.000 NA
ATOM     24  C   UNL     1       4.073   5.860  17.648  0.00  0.00    +0.000 A 
ATOM     25  O   UNL     1       4.981   5.436  16.934  0.00  0.00    +0.000 OA
ATOM     26  N   UNL     1       3.542   5.103  18.674  0.00  0.00    +0.000 N 
ATOM     27  C   UNL     1       4.100   3.882  19.024  0.00  0.00    +0.000 A 
ATOM     28  C   UNL     1       3.571   3.117  19.988  0.00  0.00    +0.000 A 
ATOM     29  C   UNL     1       2.359   3.532  20.659  0.00  0.00    +0.000 A 
ATOM     30  C   UNL     1       1.775   2.621  21.697  0.00  0.00    +0.000 C 
ATOM     31  C   UNL     1       1.796   4.709  20.341  0.00  0.00    +0.000 A 
ATOM     32  C   UNL     1       2.424   5.586  19.309  0.00  0.00    +0.000 A 
ATOM     33  N   UNL     1       1.917   6.739  19.049  0.00  0.00    +0.000 NA
ENDBRANCH  21  22
ENDBRANCH  20  21
ENDBRANCH   6  20
TORSDOF 5
ENDMDL
MODEL 9
REMARK VINA RESULT:      -8.0      2.406      4.684
REMARK  Name = 
REMARK  7 active torsions:
REMARK  status: ('A' for Active; 'I' for Inactive)
REMARK    1  A    between atoms: C_1  and  C_2
REMARK    2  A    between atoms: C_5  and  C_6
REMARK    3  A    between atoms: C_8  and  C_9
REMARK    4  A    between atoms: C_16  and  C_18
REMARK    5  A    between atoms: C_18  and  S_19
REMARK    6  A    between atoms: S_19  and  C_20
REMARK    7  A    between atoms: C_27  and  C_28
REMARK                            x       y       z     vdW  Elec       q    Type
REMARK                         _______ _______ _______ _____ _____    ______ ____
ROOT
ATOM      1  C   UNL     1      -0.816  12.908  20.888  0.00  0.00    +0.000 C 
ATOM      2  C   UNL     1      -2.178  13.278  20.316  0.00  0.00    +0.000 C 
ATOM      3  C   UNL     1      -2.459  12.071  19.464  0.00  0.00    +0.000 C 
ATOM      4  N   UNL     1      -1.523  11.164  19.451  0.00  0.00    +0.000 NA
ATOM      5  N   UNL     1      -0.503  11.630  20.247  0.00  0.00    +0.000 N 
ATOM      6  C   UNL     1       0.627  10.868  20.536  0.00  0.00    +0.000 C 
ATOM      7  O   UNL     1       1.489  11.250  21.329  0.00  0.00    +0.000 OA
ENDROOT
BRANCH   1  12
ATOM      8  C   UNL     1       3.320  16.907  19.950  0.00  0.00    +0.000 C 
ATOM      9  C   UNL     1       2.220  15.923  20.197  0.00  0.00    +0.000 A 
ATOM     10  C   UNL     1       1.821  15.598  21.503  0.00  0.00    +0.000 A 
ATOM     11  C   UNL     1       0.826  14.642  21.720  0.00  0.00    +0.000 A 
ATOM     12  C   UNL     1       0.219  13.985  20.636  0.00  0.00    +0.000 A 
ATOM     13  C   UNL     1       0.603  14.336  19.334  0.00  0.00    +0.000 A 
ATOM     14  C   UNL     1       1.597  15.294  19.119  0.00  0.00    +0.000 A 
ENDBRANCH   1  12
BRANCH   3  15
ATOM     15  C   UNL     1      -3.679  11.916  18.705  0.00  0.00    +0.000 A 
ATOM     16  C   UNL     1      -3.826  11.418  17.423  0.00  0.00    +0.000 A 
ATOM     17  C   UNL     1      -5.181  11.432  16.981  0.00  0.00    +0.000 A 
ATOM     18  C   UNL     1      -6.029  11.943  17.936  0.00  0.00    +0.000 A 
ATOM     19  S   UNL     1      -5.193  12.387  19.357  0.00  0.00    +0.000 S 
ENDBRANCH   3  15
BRANCH   6  20
ATOM     20  C   UNL     1       0.680   9.520  19.818  0.00  0.00    +0.000 C 
BRANCH  20  21
ATOM     21  S   UNL     1       1.687   9.542  18.298  0.00  0.00    +0.000 S 
BRANCH  21  22
ATOM     22  C   UNL     1       2.483   7.989  18.462  0.00  0.00    +0.000 A 
ATOM     23  N   UNL     1       2.181   7.244  19.459  0.00  0.00    +0.000 NA
ATOM     24  C   UNL     1       2.740   6.004  19.546  0.00  0.00    +0.000 A 
ATOM     25  O   UNL     1       2.508   5.297  20.526  0.00  0.00    +0.000 OA
ATOM     26  N   UNL     1       3.552   5.574  18.515  0.00  0.00    +0.000 N 
ATOM     27  C   UNL     1       4.036   4.274  18.482  0.00  0.00    +0.000 A 
ATOM     28  C   UNL     1       4.859   3.855  17.512  0.00  0.00    +0.000 A 
ATOM     29  C   UNL     1       5.307   4.778  16.492  0.00  0.00    +0.000 A 
ATOM     30  C   UNL     1       6.267   4.277  15.455  0.00  0.00    +0.000 C 
ATOM     31  C   UNL     1       4.855   6.042  16.499  0.00  0.00    +0.000 A 
ATOM     32  C   UNL     1       3.890   6.487  17.547  0.00  0.00    +0.000 A 
ATOM     33  N   UNL     1       3.413   7.681  17.516  0.00  0.00    +0.000 NA
ENDBRANCH  21  22
ENDBRANCH  20  21
ENDBRANCH   6  20
TORSDOF 5
ENDMDL
