MODEL 1
REMARK VINA RESULT:      -8.0      0.000      0.000
REMARK  Name = 
REMARK  9 active torsions:
REMARK  status: ('A' for Active; 'I' for Inactive)
REMARK    1  A    between atoms: C_1  and  C_2
REMARK    2  A    between atoms: C_4  and  C_5
REMARK    3  A    between atoms: N_6  and  C_7
REMARK    4  A    between atoms: C_7  and  C_8
REMARK    5  A    between atoms: N_15  and  C_16
REMARK    6  A    between atoms: C_16  and  C_17
REMARK    7  A    between atoms: N_25  and  C_26
REMARK    8  A    between atoms: C_26  and  C_27
REMARK    9  A    between atoms: C_32  and  C_33
REMARK                            x       y       z     vdW  Elec       q    Type
REMARK                         _______ _______ _______ _____ _____    ______ ____
ROOT
ATOM      1  C   UNL     1       3.956   5.907  17.372  0.00  0.00    +0.000 A 
ATOM      2  N   UNL     1       4.688   6.973  17.123  0.00  0.00    +0.000 NA
ATOM      3  N   UNL     1       3.989   8.072  17.531  0.00  0.00    +0.000 NA
ATOM      4  C   UNL     1       2.861   7.687  18.094  0.00  0.00    +0.000 A 
ATOM      5  N   UNL     1       1.874   8.496  18.567  0.00  0.00    +0.000 N 
ATOM      6  C   UNL     1       1.120   8.224  19.788  0.00  0.00    +0.000 C 
ATOM      7  C   UNL     1       1.023   9.426  20.751  0.00  0.00    +0.000 C 
ATOM      8  N   UNL     1       0.679  10.717  20.126  0.00  0.00    +0.000 NA
ATOM      9  C   UNL     1       1.642  10.937  19.018  0.00  0.00    +0.000 C 
ATOM     10  C   UNL     1       1.689   9.820  17.957  0.00  0.00    +0.000 C 
ATOM     11  N   UNL     1       2.801   6.302  18.028  0.00  0.00    +0.000 N 
ENDROOT
BRANCH   1  12
ATOM     12  C   UNL     1       4.358   4.513  17.048  0.00  0.00    +0.000 C 
BRANCH  12  18
ATOM     13  C   UNL     1       6.159   3.723  12.632  0.00  0.00    +0.000 C 
ATOM     14  C   UNL     1       6.161   4.065  14.074  0.00  0.00    +0.000 A 
ATOM     15  C   UNL     1       7.278   4.234  14.919  0.00  0.00    +0.000 A 
ATOM     16  C   UNL     1       6.757   4.475  16.173  0.00  0.00    +0.000 A 
ATOM     17  C   UNL     1       7.452   4.694  17.465  0.00  0.00    +0.000 C 
ATOM     18  N   UNL     1       5.390   4.461  16.013  0.00  0.00    +0.000 N 
ATOM     19  N   UNL     1       5.008   4.218  14.738  0.00  0.00    +0.000 NA
ENDBRANCH  12  18
ENDBRANCH   1  12
BRANCH   8  20
ATOM     20  C   UNL     1      -0.726  10.713  19.688  0.00  0.00    +0.000 C 
BRANCH  20  21
ATOM     21  C   UNL     1      -1.621  11.647  20.471  0.00  0.00    +0.000 A 
ATOM     22  C   UNL     1      -2.645  12.356  19.826  0.00  0.00    +0.000 A 
ATOM     23  C   UNL     1      -3.484  13.207  20.548  0.00  0.00    +0.000 A 
ATOM     24  C   UNL     1      -3.313  13.345  21.923  0.00  0.00    +0.000 A 
ATOM     25  C   UNL     1      -2.297  12.648  22.576  0.00  0.00    +0.000 A 
ATOM     26  C   UNL     1      -1.455  11.802  21.854  0.00  0.00    +0.000 A 
ENDBRANCH  20  21
ENDBRANCH   8  20
BRANCH  11  27
ATOM     27  C   UNL     1       1.658   5.448  18.350  0.00  0.00    +0.000 C 
BRANCH  27  28
ATOM     28  C   UNL     1       1.898   4.475  19.500  0.00  0.00    +0.000 A 
ATOM     29  C   UNL     1       2.207   4.951  20.790  0.00  0.00    +0.000 A 
ATOM     30  C   UNL     1       2.349   4.082  21.874  0.00  0.00    +0.000 A 
ATOM     31  C   UNL     1       2.202   2.713  21.692  0.00  0.00    +0.000 A 
ATOM     32  C   UNL     1       1.938   2.211  20.422  0.00  0.00    +0.000 A 
ATOM     33  C   UNL     1       1.797   3.070  19.315  0.00  0.00    +0.000 A 
ATOM     34  C   UNL     1       1.520   2.441  17.973  0.00  0.00    +0.000 C 
ENDBRANCH  27  28
ENDBRANCH  11  27
TORSDOF 6
ENDMDL
MODEL 2
REMARK VINA RESULT:      -8.0      0.912      1.599
REMARK  Name = 
REMARK  9 active torsions:
REMARK  status: ('A' for Active; 'I' for Inactive)
REMARK    1  A    between atoms: C_1  and  C_2
REMARK    2  A    between atoms: C_4  and  C_5
REMARK    3  A    between atoms: N_6  and  C_7
REMARK    4  A    between atoms: C_7  and  C_8
REMARK    5  A    between atoms: N_15  and  C_16
REMARK    6  A    between atoms: C_16  and  C_17
REMARK    7  A    between atoms: N_25  and  C_26
REMARK    8  A    between atoms: C_26  and  C_27
REMARK    9  A    between atoms: C_32  and  C_33
REMARK                            x       y       z     vdW  Elec       q    Type
REMARK                         _______ _______ _______ _____ _____    ______ ____
ROOT
ATOM      1  C   UNL     1       3.778   6.453  18.049  0.00  0.00    +0.000 A 
ATOM      2  N   UNL     1       3.982   7.405  17.163  0.00  0.00    +0.000 NA
ATOM      3  N   UNL     1       3.134   8.437  17.445  0.00  0.00    +0.000 NA
ATOM      4  C   UNL     1       2.457   8.156  18.541  0.00  0.00    +0.000 A 
ATOM      5  N   UNL     1       1.473   8.912  19.100  0.00  0.00    +0.000 N 
ATOM      6  C   UNL     1       1.307   9.086  20.541  0.00  0.00    +0.000 C 
ATOM      7  C   UNL     1       1.139  10.554  20.985  0.00  0.00    +0.000 C 
ATOM      8  N   UNL     1       0.195  11.358  20.186  0.00  0.00    +0.000 NA
ATOM      9  C   UNL     1       0.601  11.224  18.764  0.00  0.00    +0.000 C 
ATOM     10  C   UNL     1       0.664   9.779  18.232  0.00  0.00    +0.000 C 
ATOM     11  N   UNL     1       2.846   6.896  18.974  0.00  0.00    +0.000 N 
ENDROOT
BRANCH   1  12
ATOM     12  C   UNL     1       4.492   5.149  18.067  0.00  0.00    +0.000 C 
BRANCH  12  18
ATOM     13  C   UNL     1       6.122   3.816  13.716  0.00  0.00    +0.000 C 
ATOM     14  C   UNL     1       6.163   4.398  15.077  0.00  0.00    +0.000 A 
ATOM     15  C   UNL     1       7.298   4.834  15.795  0.00  0.00    +0.000 A 
ATOM     16  C   UNL     1       6.823   5.228  17.028  0.00  0.00    +0.000 A 
ATOM     17  C   UNL     1       7.558   5.743  18.208  0.00  0.00    +0.000 C 
ATOM     18  N   UNL     1       5.462   5.035  16.977  0.00  0.00    +0.000 N 
ATOM     19  N   UNL     1       5.041   4.535  15.793  0.00  0.00    +0.000 NA
ENDBRANCH  12  18
ENDBRANCH   1  12
BRANCH   8  20
ATOM     20  C   UNL     1      -1.188  10.924  20.443  0.00  0.00    +0.000 C 
BRANCH  20  21
ATOM     21  C   UNL     1      -2.007  11.911  21.246  0.00  0.00    +0.000 A 
ATOM     22  C   UNL     1      -2.784  12.882  20.598  0.00  0.00    +0.000 A 
ATOM     23  C   UNL     1      -3.554  13.784  21.335  0.00  0.00    +0.000 A 
ATOM     24  C   UNL     1      -3.561  13.712  22.726  0.00  0.00    +0.000 A 
ATOM     25  C   UNL     1      -2.790  12.753  23.383  0.00  0.00    +0.000 A 
ATOM     26  C   UNL     1      -2.017  11.856  22.646  0.00  0.00    +0.000 A 
ENDBRANCH  20  21
ENDBRANCH   8  20
BRANCH  11  27
ATOM     27  C   UNL     1       2.233   6.094  20.032  0.00  0.00    +0.000 C 
BRANCH  27  28
ATOM     28  C   UNL     1       1.804   4.695  19.599  0.00  0.00    +0.000 A 
ATOM     29  C   UNL     1       1.339   4.460  18.290  0.00  0.00    +0.000 A 
ATOM     30  C   UNL     1       1.021   3.174  17.849  0.00  0.00    +0.000 A 
ATOM     31  C   UNL     1       1.142   2.093  18.712  0.00  0.00    +0.000 A 
ATOM     32  C   UNL     1       1.559   2.300  20.023  0.00  0.00    +0.000 A 
ATOM     33  C   UNL     1       1.879   3.590  20.488  0.00  0.00    +0.000 A 
ATOM     34  C   UNL     1       2.314   3.726  21.925  0.00  0.00    +0.000 C 
ENDBRANCH  27  28
ENDBRANCH  11  27
TORSDOF 6
ENDMDL
MODEL 3
REMARK VINA RESULT:      -7.3      2.894      9.545
REMARK  Name = 
REMARK  9 active torsions:
REMARK  status: ('A' for Active; 'I' for Inactive)
REMARK    1  A    between atoms: C_1  and  C_2
REMARK    2  A    between atoms: C_4  and  C_5
REMARK    3  A    between atoms: N_6  and  C_7
REMARK    4  A    between atoms: C_7  and  C_8
REMARK    5  A    between atoms: N_15  and  C_16
REMARK    6  A    between atoms: C_16  and  C_17
REMARK    7  A    between atoms: N_25  and  C_26
REMARK    8  A    between atoms: C_26  and  C_27
REMARK    9  A    between atoms: C_32  and  C_33
REMARK                            x       y       z     vdW  Elec       q    Type
REMARK                         _______ _______ _______ _____ _____    ______ ____
ROOT
ATOM      1  C   UNL     1       0.051  12.774  20.435  0.00  0.00    +0.000 A 
ATOM      2  N   UNL     1       0.670  12.384  21.530  0.00  0.00    +0.000 NA
ATOM      3  N   UNL     1       1.084  11.096  21.349  0.00  0.00    +0.000 NA
ATOM      4  C   UNL     1       0.786  10.712  20.123  0.00  0.00    +0.000 A 
ATOM      5  N   UNL     1       0.984   9.474  19.593  0.00  0.00    +0.000 N 
ATOM      6  C   UNL     1       1.421   9.244  18.218  0.00  0.00    +0.000 C 
ATOM      7  C   UNL     1       2.599   8.258  18.087  0.00  0.00    +0.000 C 
ATOM      8  N   UNL     1       2.487   7.019  18.880  0.00  0.00    +0.000 NA
ATOM      9  C   UNL     1       2.219   7.422  20.284  0.00  0.00    +0.000 C 
ATOM     10  C   UNL     1       0.976   8.309  20.488  0.00  0.00    +0.000 C 
ATOM     11  N   UNL     1       0.132  11.761  19.492  0.00  0.00    +0.000 N 
ENDROOT
BRANCH   1  12
ATOM     12  C   UNL     1      -0.569  14.112  20.246  0.00  0.00    +0.000 C 
BRANCH  12  18
ATOM     13  C   UNL     1       3.489  15.638  18.108  0.00  0.00    +0.000 C 
ATOM     14  C   UNL     1       2.073  15.665  18.543  0.00  0.00    +0.000 A 
ATOM     15  C   UNL     1       1.163  16.740  18.449  0.00  0.00    +0.000 A 
ATOM     16  C   UNL     1       0.004  16.291  19.045  0.00  0.00    +0.000 A 
ATOM     17  C   UNL     1      -1.281  16.996  19.273  0.00  0.00    +0.000 C 
ATOM     18  N   UNL     1       0.265  14.997  19.434  0.00  0.00    +0.000 N 
ATOM     19  N   UNL     1       1.521  14.596  19.130  0.00  0.00    +0.000 NA
ENDBRANCH  12  18
ENDBRANCH   1  12
BRANCH   8  20
ATOM     20  C   UNL     1       1.446   6.145  18.314  0.00  0.00    +0.000 C 
BRANCH  20  21
ATOM     21  C   UNL     1       1.691   4.669  18.535  0.00  0.00    +0.000 A 
ATOM     22  C   UNL     1       1.226   4.038  19.698  0.00  0.00    +0.000 A 
ATOM     23  C   UNL     1       1.436   2.672  19.898  0.00  0.00    +0.000 A 
ATOM     24  C   UNL     1       2.102   1.925  18.930  0.00  0.00    +0.000 A 
ATOM     25  C   UNL     1       2.573   2.541  17.770  0.00  0.00    +0.000 A 
ATOM     26  C   UNL     1       2.368   3.906  17.573  0.00  0.00    +0.000 A 
ENDBRANCH  20  21
ENDBRANCH   8  20
BRANCH  11  27
ATOM     27  C   UNL     1      -0.550  11.731  18.199  0.00  0.00    +0.000 C 
BRANCH  27  28
ATOM     28  C   UNL     1      -2.051  11.474  18.280  0.00  0.00    +0.000 A 
ATOM     29  C   UNL     1      -2.857  12.208  19.173  0.00  0.00    +0.000 A 
ATOM     30  C   UNL     1      -4.244  12.047  19.204  0.00  0.00    +0.000 A 
ATOM     31  C   UNL     1      -4.858  11.136  18.355  0.00  0.00    +0.000 A 
ATOM     32  C   UNL     1      -4.084  10.368  17.492  0.00  0.00    +0.000 A 
ATOM     33  C   UNL     1      -2.683  10.510  17.450  0.00  0.00    +0.000 A 
ATOM     34  C   UNL     1      -1.920   9.632  16.492  0.00  0.00    +0.000 C 
ENDBRANCH  27  28
ENDBRANCH  11  27
TORSDOF 6
ENDMDL
MODEL 4
REMARK VINA RESULT:      -7.3      0.876      1.813
REMARK  Name = 
REMARK  9 active torsions:
REMARK  status: ('A' for Active; 'I' for Inactive)
REMARK    1  A    between atoms: C_1  and  C_2
REMARK    2  A    between atoms: C_4  and  C_5
REMARK    3  A    between atoms: N_6  and  C_7
REMARK    4  A    between atoms: C_7  and  C_8
REMARK    5  A    between atoms: N_15  and  C_16
REMARK    6  A    between atoms: C_16  and  C_17
REMARK    7  A    between atoms: N_25  and  C_26
REMARK    8  A    between atoms: C_26  and  C_27
REMARK    9  A    between atoms: C_32  and  C_33
REMARK                            x       y       z     vdW  Elec       q    Type
REMARK                         _______ _______ _______ _____ _____    ______ ____
ROOT
ATOM      1  C   UNL     1       3.599   6.328  17.499  0.00  0.00    +0.000 A 
ATOM      2  N   UNL     1       4.286   7.417  17.219  0.00  0.00    +0.000 NA
ATOM      3  N   UNL     1       3.591   8.491  17.695  0.00  0.00    +0.000 NA
ATOM      4  C   UNL     1       2.515   8.068  18.328  0.00  0.00    +0.000 A 
ATOM      5  N   UNL     1       1.544   8.844  18.882  0.00  0.00    +0.000 N 
ATOM      6  C   UNL     1       0.884   8.533  20.148  0.00  0.00    +0.000 C 
ATOM      7  C   UNL     1       0.825   9.715  21.137  0.00  0.00    +0.000 C 
ATOM      8  N   UNL     1       0.407  11.008  20.562  0.00  0.00    +0.000 NA
ATOM      9  C   UNL     1       1.286  11.270  19.394  0.00  0.00    +0.000 C 
ATOM     10  C   UNL     1       1.286  10.173  18.312  0.00  0.00    +0.000 C 
ATOM     11  N   UNL     1       2.483   6.683  18.240  0.00  0.00    +0.000 N 
ENDROOT
BRANCH   1  12
ATOM     12  C   UNL     1       4.012   4.950  17.123  0.00  0.00    +0.000 C 
BRANCH  12  18
ATOM     13  C   UNL     1       8.288   5.295  19.349  0.00  0.00    +0.000 C 
ATOM     14  C   UNL     1       7.319   4.939  18.287  0.00  0.00    +0.000 A 
ATOM     15  C   UNL     1       7.599   4.449  16.993  0.00  0.00    +0.000 A 
ATOM     16  C   UNL     1       6.374   4.337  16.371  0.00  0.00    +0.000 A 
ATOM     17  C   UNL     1       6.046   3.908  14.990  0.00  0.00    +0.000 C 
ATOM     18  N   UNL     1       5.446   4.733  17.307  0.00  0.00    +0.000 N 
ATOM     19  N   UNL     1       6.005   5.098  18.484  0.00  0.00    +0.000 NA
ENDBRANCH  12  18
ENDBRANCH   1  12
BRANCH   8  20
ATOM     20  C   UNL     1      -1.024  10.976  20.221  0.00  0.00    +0.000 C 
BRANCH  20  21
ATOM     21  C   UNL     1      -1.886  11.868  21.087  0.00  0.00    +0.000 A 
ATOM     22  C   UNL     1      -2.869  12.684  20.507  0.00  0.00    +0.000 A 
ATOM     23  C   UNL     1      -3.677  13.498  21.303  0.00  0.00    +0.000 A 
ATOM     24  C   UNL     1      -3.517  13.491  22.687  0.00  0.00    +0.000 A 
ATOM     25  C   UNL     1      -2.540  12.687  23.275  0.00  0.00    +0.000 A 
ATOM     26  C   UNL     1      -1.729  11.879  22.479  0.00  0.00    +0.000 A 
ENDBRANCH  20  21
ENDBRANCH   8  20
BRANCH  11  27
ATOM     27  C   UNL     1       1.387   5.795  18.625  0.00  0.00    +0.000 C 
BRANCH  27  28
ATOM     28  C   UNL     1       1.765   4.726  19.646  0.00  0.00    +0.000 A 
ATOM     29  C   UNL     1       2.238   5.089  20.922  0.00  0.00    +0.000 A 
ATOM     30  C   UNL     1       2.511   4.128  21.899  0.00  0.00    +0.000 A 
ATOM     31  C   UNL     1       2.333   2.780  21.618  0.00  0.00    +0.000 A 
ATOM     32  C   UNL     1       1.907   2.390  20.353  0.00  0.00    +0.000 A 
ATOM     33  C   UNL     1       1.633   3.343  19.352  0.00  0.00    +0.000 A 
ATOM     34  C   UNL     1       1.183   2.833  18.006  0.00  0.00    +0.000 C 
ENDBRANCH  27  28
ENDBRANCH  11  27
TORSDOF 6
ENDMDL
MODEL 5
REMARK VINA RESULT:      -7.3      1.556      2.482
REMARK  Name = 
REMARK  9 active torsions:
REMARK  status: ('A' for Active; 'I' for Inactive)
REMARK    1  A    between atoms: C_1  and  C_2
REMARK    2  A    between atoms: C_4  and  C_5
REMARK    3  A    between atoms: N_6  and  C_7
REMARK    4  A    between atoms: C_7  and  C_8
REMARK    5  A    between atoms: N_15  and  C_16
REMARK    6  A    between atoms: C_16  and  C_17
REMARK    7  A    between atoms: N_25  and  C_26
REMARK    8  A    between atoms: C_26  and  C_27
REMARK    9  A    between atoms: C_32  and  C_33
REMARK                            x       y       z     vdW  Elec       q    Type
REMARK                         _______ _______ _______ _____ _____    ______ ____
ROOT
ATOM      1  C   UNL     1       4.058   6.480  18.254  0.00  0.00    +0.000 A 
ATOM      2  N   UNL     1       4.241   7.382  17.312  0.00  0.00    +0.000 NA
ATOM      3  N   UNL     1       3.236   8.301  17.404  0.00  0.00    +0.000 NA
ATOM      4  C   UNL     1       2.474   8.011  18.440  0.00  0.00    +0.000 A 
ATOM      5  N   UNL     1       1.339   8.660  18.816  0.00  0.00    +0.000 N 
ATOM      6  C   UNL     1       0.977   8.917  20.208  0.00  0.00    +0.000 C 
ATOM      7  C   UNL     1       0.564  10.375  20.495  0.00  0.00    +0.000 C 
ATOM      8  N   UNL     1      -0.374  10.975  19.527  0.00  0.00    +0.000 NA
ATOM      9  C   UNL     1       0.216  10.792  18.177  0.00  0.00    +0.000 C 
ATOM     10  C   UNL     1       0.533   9.335  17.789  0.00  0.00    +0.000 C 
ATOM     11  N   UNL     1       2.971   6.855  19.026  0.00  0.00    +0.000 N 
ENDROOT
BRANCH   1  12
ATOM     12  C   UNL     1       4.931   5.296  18.469  0.00  0.00    +0.000 C 
BRANCH  12  18
ATOM     13  C   UNL     1       6.199   3.865  14.029  0.00  0.00    +0.000 C 
ATOM     14  C   UNL     1       6.373   4.388  15.404  0.00  0.00    +0.000 A 
ATOM     15  C   UNL     1       7.583   4.615  16.094  0.00  0.00    +0.000 A 
ATOM     16  C   UNL     1       7.213   5.039  17.353  0.00  0.00    +0.000 A 
ATOM     17  C   UNL     1       8.055   5.391  18.522  0.00  0.00    +0.000 C 
ATOM     18  N   UNL     1       5.837   5.065  17.344  0.00  0.00    +0.000 N 
ATOM     19  N   UNL     1       5.308   4.677  16.161  0.00  0.00    +0.000 NA
ENDBRANCH  12  18
ENDBRANCH   1  12
BRANCH   8  20
ATOM     20  C   UNL     1      -1.708  10.370  19.669  0.00  0.00    +0.000 C 
BRANCH  20  21
ATOM     21  C   UNL     1      -2.688  10.774  18.590  0.00  0.00    +0.000 A 
ATOM     22  C   UNL     1      -3.607  11.808  18.817  0.00  0.00    +0.000 A 
ATOM     23  C   UNL     1      -4.503  12.195  17.818  0.00  0.00    +0.000 A 
ATOM     24  C   UNL     1      -4.476  11.558  16.579  0.00  0.00    +0.000 A 
ATOM     25  C   UNL     1      -3.568  10.525  16.342  0.00  0.00    +0.000 A 
ATOM     26  C   UNL     1      -2.678  10.135  17.342  0.00  0.00    +0.000 A 
ENDBRANCH  20  21
ENDBRANCH   8  20
BRANCH  11  27
ATOM     27  C   UNL     1       2.345   6.057  20.079  0.00  0.00    +0.000 C 
BRANCH  27  28
ATOM     28  C   UNL     1       1.904   4.663  19.642  0.00  0.00    +0.000 A 
ATOM     29  C   UNL     1       1.453   4.434  18.326  0.00  0.00    +0.000 A 
ATOM     30  C   UNL     1       1.124   3.151  17.882  0.00  0.00    +0.000 A 
ATOM     31  C   UNL     1       1.222   2.069  18.745  0.00  0.00    +0.000 A 
ATOM     32  C   UNL     1       1.625   2.271  20.061  0.00  0.00    +0.000 A 
ATOM     33  C   UNL     1       1.955   3.557  20.531  0.00  0.00    +0.000 A 
ATOM     34  C   UNL     1       2.374   3.688  21.974  0.00  0.00    +0.000 C 
ENDBRANCH  27  28
ENDBRANCH  11  27
TORSDOF 6
ENDMDL
MODEL 6
REMARK VINA RESULT:      -7.2      1.638      2.614
REMARK  Name = 
REMARK  9 active torsions:
REMARK  status: ('A' for Active; 'I' for Inactive)
REMARK    1  A    between atoms: C_1  and  C_2
REMARK    2  A    between atoms: C_4  and  C_5
REMARK    3  A    between atoms: N_6  and  C_7
REMARK    4  A    between atoms: C_7  and  C_8
REMARK    5  A    between atoms: N_15  and  C_16
REMARK    6  A    between atoms: C_16  and  C_17
REMARK    7  A    between atoms: N_25  and  C_26
REMARK    8  A    between atoms: C_26  and  C_27
REMARK    9  A    between atoms: C_32  and  C_33
REMARK                            x       y       z     vdW  Elec       q    Type
REMARK                         _______ _______ _______ _____ _____    ______ ____
ROOT
ATOM      1  C   UNL     1       4.410   6.509  18.150  0.00  0.00    +0.000 A 
ATOM      2  N   UNL     1       4.547   7.397  17.188  0.00  0.00    +0.000 NA
ATOM      3  N   UNL     1       3.510   8.280  17.274  0.00  0.00    +0.000 NA
ATOM      4  C   UNL     1       2.772   7.983  18.326  0.00  0.00    +0.000 A 
ATOM      5  N   UNL     1       1.618   8.597  18.705  0.00  0.00    +0.000 N 
ATOM      6  C   UNL     1       1.265   8.869  20.096  0.00  0.00    +0.000 C 
ATOM      7  C   UNL     1       0.801  10.316  20.358  0.00  0.00    +0.000 C 
ATOM      8  N   UNL     1      -0.171  10.860  19.392  0.00  0.00    +0.000 NA
ATOM      9  C   UNL     1       0.408  10.672  18.037  0.00  0.00    +0.000 C 
ATOM     10  C   UNL     1       0.775   9.220  17.675  0.00  0.00    +0.000 C 
ATOM     11  N   UNL     1       3.320   6.859  18.930  0.00  0.00    +0.000 N 
ENDROOT
BRANCH   1  12
ATOM     12  C   UNL     1       5.330   5.363  18.378  0.00  0.00    +0.000 C 
BRANCH  12  18
ATOM     13  C   UNL     1       7.399   5.026  14.022  0.00  0.00    +0.000 C 
ATOM     14  C   UNL     1       6.603   4.607  15.199  0.00  0.00    +0.000 A 
ATOM     15  C   UNL     1       5.784   3.464  15.324  0.00  0.00    +0.000 A 
ATOM     16  C   UNL     1       5.211   3.559  16.575  0.00  0.00    +0.000 A 
ATOM     17  C   UNL     1       4.236   2.663  17.242  0.00  0.00    +0.000 C 
ATOM     18  N   UNL     1       5.721   4.711  17.128  0.00  0.00    +0.000 N 
ATOM     19  N   UNL     1       6.576   5.361  16.305  0.00  0.00    +0.000 NA
ENDBRANCH  12  18
ENDBRANCH   1  12
BRANCH   8  20
ATOM     20  C   UNL     1      -1.480  10.209  19.564  0.00  0.00    +0.000 C 
BRANCH  20  21
ATOM     21  C   UNL     1      -2.499  10.582  18.510  0.00  0.00    +0.000 A 
ATOM     22  C   UNL     1      -2.601   9.837  17.326  0.00  0.00    +0.000 A 
ATOM     23  C   UNL     1      -3.552  10.168  16.358  0.00  0.00    +0.000 A 
ATOM     24  C   UNL     1      -4.416  11.239  16.574  0.00  0.00    +0.000 A 
ATOM     25  C   UNL     1      -4.323  11.989  17.747  0.00  0.00    +0.000 A 
ATOM     26  C   UNL     1      -3.369  11.663  18.710  0.00  0.00    +0.000 A 
ENDBRANCH  20  21
ENDBRANCH   8  20
BRANCH  11  27
ATOM     27  C   UNL     1       2.738   6.060  20.007  0.00  0.00    +0.000 C 
BRANCH  27  28
ATOM     28  C   UNL     1       2.024   4.794  19.543  0.00  0.00    +0.000 A 
ATOM     29  C   UNL     1       1.517   4.696  18.232  0.00  0.00    +0.000 A 
ATOM     30  C   UNL     1       0.934   3.517  17.762  0.00  0.00    +0.000 A 
ATOM     31  C   UNL     1       0.828   2.412  18.596  0.00  0.00    +0.000 A 
ATOM     32  C   UNL     1       1.282   2.493  19.908  0.00  0.00    +0.000 A 
ATOM     33  C   UNL     1       1.867   3.675  20.404  0.00  0.00    +0.000 A 
ATOM     34  C   UNL     1       2.324   3.679  21.840  0.00  0.00    +0.000 C 
ENDBRANCH  27  28
ENDBRANCH  11  27
TORSDOF 6
ENDMDL
MODEL 7
REMARK VINA RESULT:      -7.2      1.637      2.747
REMARK  Name = 
REMARK  9 active torsions:
REMARK  status: ('A' for Active; 'I' for Inactive)
REMARK    1  A    between atoms: C_1  and  C_2
REMARK    2  A    between atoms: C_4  and  C_5
REMARK    3  A    between atoms: N_6  and  C_7
REMARK    4  A    between atoms: C_7  and  C_8
REMARK    5  A    between atoms: N_15  and  C_16
REMARK    6  A    between atoms: C_16  and  C_17
REMARK    7  A    between atoms: N_25  and  C_26
REMARK    8  A    between atoms: C_26  and  C_27
REMARK    9  A    between atoms: C_32  and  C_33
REMARK                            x       y       z     vdW  Elec       q    Type
REMARK                         _______ _______ _______ _____ _____    ______ ____
ROOT
ATOM      1  C   UNL     1       3.201   6.310  18.254  0.00  0.00    +0.000 A 
ATOM      2  N   UNL     1       3.421   7.368  17.500  0.00  0.00    +0.000 NA
ATOM      3  N   UNL     1       2.758   8.426  18.050  0.00  0.00    +0.000 NA
ATOM      4  C   UNL     1       2.187   8.046  19.176  0.00  0.00    +0.000 A 
ATOM      5  N   UNL     1       1.388   8.804  19.975  0.00  0.00    +0.000 N 
ATOM      6  C   UNL     1       1.421   8.754  21.434  0.00  0.00    +0.000 C 
ATOM      7  C   UNL     1       1.505  10.137  22.112  0.00  0.00    +0.000 C 
ATOM      8  N   UNL     1       0.586  11.163  21.583  0.00  0.00    +0.000 NA
ATOM      9  C   UNL     1       0.796  11.222  20.114  0.00  0.00    +0.000 C 
ATOM     10  C   UNL     1       0.601   9.887  19.369  0.00  0.00    +0.000 C 
ATOM     11  N   UNL     1       2.455   6.696  19.357  0.00  0.00    +0.000 N 
ENDROOT
BRANCH   1  12
ATOM     12  C   UNL     1       3.732   4.950  17.976  0.00  0.00    +0.000 C 
BRANCH  12  18
ATOM     13  C   UNL     1       8.196   5.838  19.606  0.00  0.00    +0.000 C 
ATOM     14  C   UNL     1       7.143   5.364  18.678  0.00  0.00    +0.000 A 
ATOM     15  C   UNL     1       7.302   4.925  17.346  0.00  0.00    +0.000 A 
ATOM     16  C   UNL     1       6.027   4.657  16.894  0.00  0.00    +0.000 A 
ATOM     17  C   UNL     1       5.569   4.199  15.560  0.00  0.00    +0.000 C 
ATOM     18  N   UNL     1       5.195   4.922  17.958  0.00  0.00    +0.000 N 
ATOM     19  N   UNL     1       5.860   5.349  19.057  0.00  0.00    +0.000 NA
ENDBRANCH  12  18
ENDBRANCH   1  12
BRANCH   8  20
ATOM     20  C   UNL     1      -0.801  10.850  21.964  0.00  0.00    +0.000 C 
BRANCH  20  21
ATOM     21  C   UNL     1      -1.500  11.958  22.720  0.00  0.00    +0.000 A 
ATOM     22  C   UNL     1      -0.895  13.217  22.854  0.00  0.00    +0.000 A 
ATOM     23  C   UNL     1      -1.544  14.248  23.537  0.00  0.00    +0.000 A 
ATOM     24  C   UNL     1      -2.808  14.030  24.080  0.00  0.00    +0.000 A 
ATOM     25  C   UNL     1      -3.418  12.782  23.957  0.00  0.00    +0.000 A 
ATOM     26  C   UNL     1      -2.768  11.751  23.280  0.00  0.00    +0.000 A 
ENDBRANCH  20  21
ENDBRANCH   8  20
BRANCH  11  27
ATOM     27  C   UNL     1       1.873   5.804  20.359  0.00  0.00    +0.000 C 
BRANCH  27  28
ATOM     28  C   UNL     1       1.545   4.404  19.847  0.00  0.00    +0.000 A 
ATOM     29  C   UNL     1       1.000   4.221  18.560  0.00  0.00    +0.000 A 
ATOM     30  C   UNL     1       0.768   2.945  18.042  0.00  0.00    +0.000 A 
ATOM     31  C   UNL     1       1.061   1.821  18.802  0.00  0.00    +0.000 A 
ATOM     32  C   UNL     1       1.561   1.972  20.091  0.00  0.00    +0.000 A 
ATOM     33  C   UNL     1       1.795   3.250  20.635  0.00  0.00    +0.000 A 
ATOM     34  C   UNL     1       2.330   3.323  22.043  0.00  0.00    +0.000 C 
ENDBRANCH  27  28
ENDBRANCH  11  27
TORSDOF 6
ENDMDL
MODEL 8
REMARK VINA RESULT:      -7.1      0.579      1.290
REMARK  Name = 
REMARK  9 active torsions:
REMARK  status: ('A' for Active; 'I' for Inactive)
REMARK    1  A    between atoms: C_1  and  C_2
REMARK    2  A    between atoms: C_4  and  C_5
REMARK    3  A    between atoms: N_6  and  C_7
REMARK    4  A    between atoms: C_7  and  C_8
REMARK    5  A    between atoms: N_15  and  C_16
REMARK    6  A    between atoms: C_16  and  C_17
REMARK    7  A    between atoms: N_25  and  C_26
REMARK    8  A    between atoms: C_26  and  C_27
REMARK    9  A    between atoms: C_32  and  C_33
REMARK                            x       y       z     vdW  Elec       q    Type
REMARK                         _______ _______ _______ _____ _____    ______ ____
ROOT
ATOM      1  C   UNL     1       3.965   5.983  17.475  0.00  0.00    +0.000 A 
ATOM      2  N   UNL     1       4.785   7.011  17.384  0.00  0.00    +0.000 NA
ATOM      3  N   UNL     1       4.082   8.141  17.687  0.00  0.00    +0.000 NA
ATOM      4  C   UNL     1       2.853   7.811  18.033  0.00  0.00    +0.000 A 
ATOM      5  N   UNL     1       1.842   8.668  18.341  0.00  0.00    +0.000 N 
ATOM      6  C   UNL     1       0.870   8.422  19.403  0.00  0.00    +0.000 C 
ATOM      7  C   UNL     1       0.665   9.614  20.361  0.00  0.00    +0.000 C 
ATOM      8  N   UNL     1       0.505  10.931  19.715  0.00  0.00    +0.000 NA
ATOM      9  C   UNL     1       1.661  11.112  18.800  0.00  0.00    +0.000 C 
ATOM     10  C   UNL     1       1.838  10.008  17.739  0.00  0.00    +0.000 C 
ATOM     11  N   UNL     1       2.734   6.433  17.925  0.00  0.00    +0.000 N 
ENDROOT
BRANCH   1  12
ATOM     12  C   UNL     1       4.346   4.573  17.196  0.00  0.00    +0.000 C 
BRANCH  12  18
ATOM     13  C   UNL     1       6.043   3.650  12.765  0.00  0.00    +0.000 C 
ATOM     14  C   UNL     1       6.080   4.016  14.200  0.00  0.00    +0.000 A 
ATOM     15  C   UNL     1       7.217   4.165  15.023  0.00  0.00    +0.000 A 
ATOM     16  C   UNL     1       6.726   4.445  16.280  0.00  0.00    +0.000 A 
ATOM     17  C   UNL     1       7.450   4.665  17.556  0.00  0.00    +0.000 C 
ATOM     18  N   UNL     1       5.357   4.471  16.144  0.00  0.00    +0.000 N 
ATOM     19  N   UNL     1       4.945   4.218  14.880  0.00  0.00    +0.000 NA
ENDBRANCH  12  18
ENDBRANCH   1  12
BRANCH   8  20
ATOM     20  C   UNL     1      -0.797  11.010  19.034  0.00  0.00    +0.000 C 
BRANCH  20  21
ATOM     21  C   UNL     1      -1.844  11.797  19.792  0.00  0.00    +0.000 A 
ATOM     22  C   UNL     1      -3.115  12.004  19.237  0.00  0.00    +0.000 A 
ATOM     23  C   UNL     1      -4.090  12.716  19.940  0.00  0.00    +0.000 A 
ATOM     24  C   UNL     1      -3.803  13.215  21.208  0.00  0.00    +0.000 A 
ATOM     25  C   UNL     1      -2.541  13.019  21.770  0.00  0.00    +0.000 A 
ATOM     26  C   UNL     1      -1.566  12.313  21.065  0.00  0.00    +0.000 A 
ENDBRANCH  20  21
ENDBRANCH   8  20
BRANCH  11  27
ATOM     27  C   UNL     1       1.509   5.639  18.020  0.00  0.00    +0.000 C 
BRANCH  27  28
ATOM     28  C   UNL     1       1.592   4.459  18.983  0.00  0.00    +0.000 A 
ATOM     29  C   UNL     1       1.530   3.136  18.503  0.00  0.00    +0.000 A 
ATOM     30  C   UNL     1       1.686   2.042  19.357  0.00  0.00    +0.000 A 
ATOM     31  C   UNL     1       1.891   2.243  20.716  0.00  0.00    +0.000 A 
ATOM     32  C   UNL     1       1.914   3.538  21.224  0.00  0.00    +0.000 A 
ATOM     33  C   UNL     1       1.753   4.654  20.381  0.00  0.00    +0.000 A 
ATOM     34  C   UNL     1       1.783   6.020  21.017  0.00  0.00    +0.000 C 
ENDBRANCH  27  28
ENDBRANCH  11  27
TORSDOF 6
ENDMDL
MODEL 9
REMARK VINA RESULT:      -7.1      6.252     10.533
REMARK  Name = 
REMARK  9 active torsions:
REMARK  status: ('A' for Active; 'I' for Inactive)
REMARK    1  A    between atoms: C_1  and  C_2
REMARK    2  A    between atoms: C_4  and  C_5
REMARK    3  A    between atoms: N_6  and  C_7
REMARK    4  A    between atoms: C_7  and  C_8
REMARK    5  A    between atoms: N_15  and  C_16
REMARK    6  A    between atoms: C_16  and  C_17
REMARK    7  A    between atoms: N_25  and  C_26
REMARK    8  A    between atoms: C_26  and  C_27
REMARK    9  A    between atoms: C_32  and  C_33
REMARK                            x       y       z     vdW  Elec       q    Type
REMARK                         _______ _______ _______ _____ _____    ______ ____
ROOT
ATOM      1  C   UNL     1       0.485  14.503  21.607  0.00  0.00    +0.000 A 
ATOM      2  N   UNL     1       1.297  14.780  22.607  0.00  0.00    +0.000 NA
ATOM      3  N   UNL     1       2.549  14.969  22.097  0.00  0.00    +0.000 NA
ATOM      4  C   UNL     1       2.501  14.881  20.782  0.00  0.00    +0.000 A 
ATOM      5  N   UNL     1       3.558  14.950  19.928  0.00  0.00    +0.000 N 
ATOM      6  C   UNL     1       3.509  15.628  18.634  0.00  0.00    +0.000 C 
ATOM      7  C   UNL     1       4.684  16.595  18.383  0.00  0.00    +0.000 C 
ATOM      8  N   UNL     1       6.023  16.075  18.721  0.00  0.00    +0.000 NA
ATOM      9  C   UNL     1       5.961  15.587  20.122  0.00  0.00    +0.000 C 
ATOM     10  C   UNL     1       4.882  14.522  20.400  0.00  0.00    +0.000 C 
ATOM     11  N   UNL     1       1.192  14.596  20.419  0.00  0.00    +0.000 N 
ENDROOT
BRANCH   1  12
ATOM     12  C   UNL     1      -0.965  14.208  21.754  0.00  0.00    +0.000 C 
BRANCH  12  18
ATOM     13  C   UNL     1      -0.223   9.536  22.751  0.00  0.00    +0.000 C 
ATOM     14  C   UNL     1      -0.881  10.863  22.802  0.00  0.00    +0.000 A 
ATOM     15  C   UNL     1      -2.123  11.187  23.388  0.00  0.00    +0.000 A 
ATOM     16  C   UNL     1      -2.320  12.524  23.114  0.00  0.00    +0.000 A 
ATOM     17  C   UNL     1      -3.466  13.404  23.449  0.00  0.00    +0.000 C 
ATOM     18  N   UNL     1      -1.203  12.926  22.417  0.00  0.00    +0.000 N 
ATOM     19  N   UNL     1      -0.312  11.927  22.223  0.00  0.00    +0.000 NA
ENDBRANCH  12  18
ENDBRANCH   1  12
BRANCH   8  20
ATOM     20  C   UNL     1       6.424  15.038  17.757  0.00  0.00    +0.000 C 
BRANCH  20  21
ATOM     21  C   UNL     1       7.891  14.673  17.817  0.00  0.00    +0.000 A 
ATOM     22  C   UNL     1       8.874  15.673  17.775  0.00  0.00    +0.000 A 
ATOM     23  C   UNL     1      10.228  15.341  17.847  0.00  0.00    +0.000 A 
ATOM     24  C   UNL     1      10.609  14.007  17.974  0.00  0.00    +0.000 A 
ATOM     25  C   UNL     1       9.641  13.003  18.013  0.00  0.00    +0.000 A 
ATOM     26  C   UNL     1       8.289  13.334  17.936  0.00  0.00    +0.000 A 
ENDBRANCH  20  21
ENDBRANCH   8  20
BRANCH  11  27
ATOM     27  C   UNL     1       0.702  14.223  19.093  0.00  0.00    +0.000 C 
BRANCH  27  28
ATOM     28  C   UNL     1       0.802  12.734  18.775  0.00  0.00    +0.000 A 
ATOM     29  C   UNL     1       2.056  12.131  18.554  0.00  0.00    +0.000 A 
ATOM     30  C   UNL     1       2.177  10.756  18.342  0.00  0.00    +0.000 A 
ATOM     31  C   UNL     1       1.045   9.951  18.331  0.00  0.00    +0.000 A 
ATOM     32  C   UNL     1      -0.210  10.525  18.505  0.00  0.00    +0.000 A 
ATOM     33  C   UNL     1      -0.354  11.911  18.713  0.00  0.00    +0.000 A 
ATOM     34  C   UNL     1      -1.751  12.450  18.884  0.00  0.00    +0.000 C 
ENDBRANCH  27  28
ENDBRANCH  11  27
TORSDOF 6
ENDMDL
