MODEL 1
REMARK VINA RESULT:      -8.7      0.000      0.000
REMARK  Name = 
REMARK  5 active torsions:
REMARK  status: ('A' for Active; 'I' for Inactive)
REMARK    1  A    between atoms: C_2  and  C_3
REMARK    2  A    between atoms: C_3  and  O_4
REMARK    3  A    between atoms: O_4  and  C_5
REMARK    4  A    between atoms: N_12  and  N_13
REMARK    5  A    between atoms: C_14  and  C_16
REMARK                            x       y       z     vdW  Elec       q    Type
REMARK                         _______ _______ _______ _____ _____    ______ ____
ROOT
ATOM      1  N   UNL     1       3.761   6.694  17.570  0.00  0.00    +0.000 N 
ATOM      2  C   UNL     1       3.124   6.713  18.795  0.00  0.00    +0.000 C 
ATOM      3  O   UNL     1       3.352   5.884  19.671  0.00  0.00    +0.000 OA
ATOM      4  H   UNL     1       3.709   7.439  16.876  0.00  0.00    +0.000 HD
ENDROOT
BRANCH   2   5
ATOM      5  C   UNL     1       2.150   7.809  19.032  0.00  0.00    +0.000 A 
ATOM      6  C   UNL     1       1.846   8.666  17.962  0.00  0.00    +0.000 A 
ATOM      7  C   UNL     1       0.952   9.723  18.140  0.00  0.00    +0.000 A 
ATOM      8  C   UNL     1       0.388   9.938  19.401  0.00  0.00    +0.000 A 
ATOM      9  C   UNL     1      -0.539  11.070  19.632  0.00  0.00    +0.000 A 
ATOM     10  O   UNL     1      -0.900  11.796  18.714  0.00  0.00    +0.000 OA
ATOM     11  N   UNL     1      -0.937  11.217  20.940  0.00  0.00    +0.000 N 
ATOM     12  C   UNL     1      -0.553  10.361  21.943  0.00  0.00    +0.000 A 
ATOM     13  N   UNL     1       0.211   9.336  21.786  0.00  0.00    +0.000 NA
ATOM     14  C   UNL     1       0.707   9.111  20.488  0.00  0.00    +0.000 A 
ATOM     15  C   UNL     1       1.582   8.037  20.292  0.00  0.00    +0.000 A 
ATOM     16  C   UNL     1      -1.141  10.795  23.246  0.00  0.00    +0.000 C 
ATOM     17  C   UNL     1      -1.942  12.047  22.902  0.00  0.00    +0.000 C 
ATOM     18  C   UNL     1      -1.804  12.263  21.403  0.00  0.00    +0.000 C 
ENDBRANCH   2   5
BRANCH   1  21
ATOM     19  O   UNL     1       6.359   7.273  17.039  0.00  0.00    +0.000 OA
ATOM     20  C   UNL     1       6.012   6.090  17.033  0.00  0.00    +0.000 C 
ATOM     21  N   UNL     1       4.730   5.703  17.357  0.00  0.00    +0.000 N 
ATOM     22  H   UNL     1       4.393   4.742  17.310  0.00  0.00    +0.000 HD
BRANCH  20  23
ATOM     23  C   UNL     1       6.949   4.951  16.629  0.00  0.00    +0.000 C 
BRANCH  23  24
ATOM     24  O   UNL     1       7.688   5.287  15.465  0.00  0.00    +0.000 OA
BRANCH  24  25
ATOM     25  C   UNL     1       7.241   4.825  14.252  0.00  0.00    +0.000 A 
ATOM     26  C   UNL     1       6.189   3.900  14.375  0.00  0.00    +0.000 A 
ATOM     27  C   UNL     1       5.633   3.271  13.257  0.00  0.00    +0.000 A 
ATOM     28  C   UNL     1       6.122   3.552  11.989  0.00  0.00    +0.000 A 
ATOM     29  C   UNL     1       7.172   4.456  11.847  0.00  0.00    +0.000 A 
ATOM     30  C   UNL     1       7.741   5.087  12.965  0.00  0.00    +0.000 A 
ATOM     31 CL   UNL     1       9.103   6.087  12.611  0.00  0.00    +0.000 Cl
ENDBRANCH  24  25
ENDBRANCH  23  24
ENDBRANCH  20  23
ENDBRANCH   1  21
TORSDOF 5
ENDMDL
MODEL 2
REMARK VINA RESULT:      -8.5      1.278      1.974
REMARK  Name = 
REMARK  5 active torsions:
REMARK  status: ('A' for Active; 'I' for Inactive)
REMARK    1  A    between atoms: C_2  and  C_3
REMARK    2  A    between atoms: C_3  and  O_4
REMARK    3  A    between atoms: O_4  and  C_5
REMARK    4  A    between atoms: N_12  and  N_13
REMARK    5  A    between atoms: C_14  and  C_16
REMARK                            x       y       z     vdW  Elec       q    Type
REMARK                         _______ _______ _______ _____ _____    ______ ____
ROOT
ATOM      1  N   UNL     1       4.254   6.982  17.783  0.00  0.00    +0.000 N 
ATOM      2  C   UNL     1       2.977   6.612  18.161  0.00  0.00    +0.000 C 
ATOM      3  O   UNL     1       2.488   5.528  17.858  0.00  0.00    +0.000 OA
ATOM      4  H   UNL     1       4.748   7.803  18.132  0.00  0.00    +0.000 HD
ENDROOT
BRANCH   2   5
ATOM      5  C   UNL     1       2.210   7.581  18.984  0.00  0.00    +0.000 A 
ATOM      6  C   UNL     1       1.933   7.242  20.318  0.00  0.00    +0.000 A 
ATOM      7  C   UNL     1       1.199   8.111  21.126  0.00  0.00    +0.000 A 
ATOM      8  C   UNL     1       0.715   9.305  20.585  0.00  0.00    +0.000 A 
ATOM      9  C   UNL     1      -0.096  10.234  21.406  0.00  0.00    +0.000 A 
ATOM     10  O   UNL     1      -0.296  10.025  22.596  0.00  0.00    +0.000 OA
ATOM     11  N   UNL     1      -0.586  11.318  20.716  0.00  0.00    +0.000 N 
ATOM     12  C   UNL     1      -0.310  11.553  19.392  0.00  0.00    +0.000 A 
ATOM     13  N   UNL     1       0.428  10.804  18.647  0.00  0.00    +0.000 NA
ATOM     14  C   UNL     1       0.954   9.643  19.245  0.00  0.00    +0.000 A 
ATOM     15  C   UNL     1       1.716   8.779  18.452  0.00  0.00    +0.000 A 
ATOM     16  C   UNL     1      -0.996  12.799  18.934  0.00  0.00    +0.000 C 
ATOM     17  C   UNL     1      -1.740  13.298  20.169  0.00  0.00    +0.000 C 
ATOM     18  C   UNL     1      -1.424  12.329  21.297  0.00  0.00    +0.000 C 
ENDBRANCH   2   5
BRANCH   1  21
ATOM     19  O   UNL     1       6.504   5.838  18.779  0.00  0.00    +0.000 OA
ATOM     20  C   UNL     1       6.176   5.568  17.622  0.00  0.00    +0.000 C 
ATOM     21  N   UNL     1       5.013   6.051  17.061  0.00  0.00    +0.000 N 
ATOM     22  H   UNL     1       4.737   5.894  16.093  0.00  0.00    +0.000 HD
BRANCH  20  23
ATOM     23  C   UNL     1       7.036   4.712  16.692  0.00  0.00    +0.000 C 
BRANCH  23  24
ATOM     24  O   UNL     1       7.387   5.430  15.518  0.00  0.00    +0.000 OA
BRANCH  24  25
ATOM     25  C   UNL     1       7.053   4.893  14.300  0.00  0.00    +0.000 A 
ATOM     26  C   UNL     1       5.996   3.970  14.383  0.00  0.00    +0.000 A 
ATOM     27  C   UNL     1       5.545   3.270  13.258  0.00  0.00    +0.000 A 
ATOM     28  C   UNL     1       6.149   3.477  12.026  0.00  0.00    +0.000 A 
ATOM     29  C   UNL     1       7.207   4.377  11.926  0.00  0.00    +0.000 A 
ATOM     30  C   UNL     1       7.670   5.079  13.051  0.00  0.00    +0.000 A 
ATOM     31 CL   UNL     1       9.058   6.064  12.763  0.00  0.00    +0.000 Cl
ENDBRANCH  24  25
ENDBRANCH  23  24
ENDBRANCH  20  23
ENDBRANCH   1  21
TORSDOF 5
ENDMDL
MODEL 3
REMARK VINA RESULT:      -8.5      2.285      2.955
REMARK  Name = 
REMARK  5 active torsions:
REMARK  status: ('A' for Active; 'I' for Inactive)
REMARK    1  A    between atoms: C_2  and  C_3
REMARK    2  A    between atoms: C_3  and  O_4
REMARK    3  A    between atoms: O_4  and  C_5
REMARK    4  A    between atoms: N_12  and  N_13
REMARK    5  A    between atoms: C_14  and  C_16
REMARK                            x       y       z     vdW  Elec       q    Type
REMARK                         _______ _______ _______ _____ _____    ______ ____
ROOT
ATOM      1  N   UNL     1       2.619   6.684  20.065  0.00  0.00    +0.000 N 
ATOM      2  C   UNL     1       2.499   7.621  19.057  0.00  0.00    +0.000 C 
ATOM      3  O   UNL     1       3.208   7.607  18.055  0.00  0.00    +0.000 OA
ATOM      4  H   UNL     1       1.962   6.572  20.836  0.00  0.00    +0.000 HD
ENDROOT
BRANCH   2   5
ATOM      5  C   UNL     1       1.443   8.653  19.217  0.00  0.00    +0.000 A 
ATOM      6  C   UNL     1       0.948   9.278  18.062  0.00  0.00    +0.000 A 
ATOM      7  C   UNL     1      -0.030  10.268  18.163  0.00  0.00    +0.000 A 
ATOM      8  C   UNL     1      -0.489  10.651  19.426  0.00  0.00    +0.000 A 
ATOM      9  C   UNL     1      -1.504  11.721  19.570  0.00  0.00    +0.000 A 
ATOM     10  O   UNL     1      -2.026  12.240  18.592  0.00  0.00    +0.000 OA
ATOM     11  N   UNL     1      -1.786  12.061  20.872  0.00  0.00    +0.000 N 
ATOM     12  C   UNL     1      -1.219  11.432  21.953  0.00  0.00    +0.000 A 
ATOM     13  N   UNL     1      -0.370  10.465  21.882  0.00  0.00    +0.000 NA
ATOM     14  C   UNL     1       0.018  10.059  20.592  0.00  0.00    +0.000 A 
ATOM     15  C   UNL     1       0.979   9.048  20.478  0.00  0.00    +0.000 A 
ATOM     16  C   UNL     1      -1.721  12.035  23.224  0.00  0.00    +0.000 C 
ATOM     17  C   UNL     1      -2.679  13.133  22.771  0.00  0.00    +0.000 C 
ATOM     18  C   UNL     1      -2.709  13.093  21.251  0.00  0.00    +0.000 C 
ENDBRANCH   2   5
BRANCH   1  21
ATOM     19  O   UNL     1       2.035   4.319  18.868  0.00  0.00    +0.000 OA
ATOM     20  C   UNL     1       3.167   4.474  19.332  0.00  0.00    +0.000 C 
ATOM     21  N   UNL     1       3.569   5.666  19.896  0.00  0.00    +0.000 N 
ATOM     22  H   UNL     1       4.475   5.814  20.337  0.00  0.00    +0.000 HD
BRANCH  20  23
ATOM     23  C   UNL     1       4.213   3.359  19.364  0.00  0.00    +0.000 C 
BRANCH  23  24
ATOM     24  O   UNL     1       5.518   3.879  19.160  0.00  0.00    +0.000 OA
BRANCH  24  25
ATOM     25  C   UNL     1       5.820   4.422  17.936  0.00  0.00    +0.000 A 
ATOM     26  C   UNL     1       5.128   3.804  16.879  0.00  0.00    +0.000 A 
ATOM     27  C   UNL     1       5.341   4.176  15.548  0.00  0.00    +0.000 A 
ATOM     28  C   UNL     1       6.257   5.174  15.245  0.00  0.00    +0.000 A 
ATOM     29  C   UNL     1       6.962   5.789  16.277  0.00  0.00    +0.000 A 
ATOM     30  C   UNL     1       6.760   5.417  17.616  0.00  0.00    +0.000 A 
ATOM     31 CL   UNL     1       7.800   6.204  18.747  0.00  0.00    +0.000 Cl
ENDBRANCH  24  25
ENDBRANCH  23  24
ENDBRANCH  20  23
ENDBRANCH   1  21
TORSDOF 5
ENDMDL
MODEL 4
REMARK VINA RESULT:      -8.4      2.791      3.547
REMARK  Name = 
REMARK  5 active torsions:
REMARK  status: ('A' for Active; 'I' for Inactive)
REMARK    1  A    between atoms: C_2  and  C_3
REMARK    2  A    between atoms: C_3  and  O_4
REMARK    3  A    between atoms: O_4  and  C_5
REMARK    4  A    between atoms: N_12  and  N_13
REMARK    5  A    between atoms: C_14  and  C_16
REMARK                            x       y       z     vdW  Elec       q    Type
REMARK                         _______ _______ _______ _____ _____    ______ ____
ROOT
ATOM      1  N   UNL     1       2.441   7.056  19.924  0.00  0.00    +0.000 N 
ATOM      2  C   UNL     1       2.267   8.038  18.968  0.00  0.00    +0.000 C 
ATOM      3  O   UNL     1       2.980   8.125  17.973  0.00  0.00    +0.000 OA
ATOM      4  H   UNL     1       1.788   6.860  20.682  0.00  0.00    +0.000 HD
ENDROOT
BRANCH   2   5
ATOM      5  C   UNL     1       1.148   8.992  19.178  0.00  0.00    +0.000 A 
ATOM      6  C   UNL     1       0.466   9.470  18.047  0.00  0.00    +0.000 A 
ATOM      7  C   UNL     1      -0.580  10.382  18.191  0.00  0.00    +0.000 A 
ATOM      8  C   UNL     1      -0.921  10.839  19.467  0.00  0.00    +0.000 A 
ATOM      9  C   UNL     1      -2.004  11.832  19.652  0.00  0.00    +0.000 A 
ATOM     10  O   UNL     1      -2.682  12.218  18.708  0.00  0.00    +0.000 OA
ATOM     11  N   UNL     1      -2.161  12.262  20.948  0.00  0.00    +0.000 N 
ATOM     12  C   UNL     1      -1.417  11.780  21.996  0.00  0.00    +0.000 A 
ATOM     13  N   UNL     1      -0.497  10.883  21.897  0.00  0.00    +0.000 NA
ATOM     14  C   UNL     1      -0.228  10.396  20.604  0.00  0.00    +0.000 A 
ATOM     15  C   UNL     1       0.800   9.460  20.451  0.00  0.00    +0.000 A 
ATOM     16  C   UNL     1      -1.818  12.452  23.269  0.00  0.00    +0.000 C 
ATOM     17  C   UNL     1      -2.919  13.424  22.853  0.00  0.00    +0.000 C 
ATOM     18  C   UNL     1      -3.124  13.247  21.357  0.00  0.00    +0.000 C 
ENDBRANCH   2   5
BRANCH   1  21
ATOM     19  O   UNL     1       1.967   4.637  18.787  0.00  0.00    +0.000 OA
ATOM     20  C   UNL     1       3.109   4.883  19.179  0.00  0.00    +0.000 C 
ATOM     21  N   UNL     1       3.453   6.110  19.706  0.00  0.00    +0.000 N 
ATOM     22  H   UNL     1       4.370   6.331  20.089  0.00  0.00    +0.000 HD
BRANCH  20  23
ATOM     23  C   UNL     1       4.237   3.851  19.157  0.00  0.00    +0.000 C 
BRANCH  23  24
ATOM     24  O   UNL     1       5.045   4.003  18.000  0.00  0.00    +0.000 OA
BRANCH  24  25
ATOM     25  C   UNL     1       5.982   5.006  17.985  0.00  0.00    +0.000 A 
ATOM     26  C   UNL     1       6.864   4.944  19.078  0.00  0.00    +0.000 A 
ATOM     27  C   UNL     1       7.856   5.911  19.275  0.00  0.00    +0.000 A 
ATOM     28  C   UNL     1       7.982   6.965  18.381  0.00  0.00    +0.000 A 
ATOM     29  C   UNL     1       7.109   7.052  17.299  0.00  0.00    +0.000 A 
ATOM     30  C   UNL     1       6.106   6.090  17.098  0.00  0.00    +0.000 A 
ATOM     31 CL   UNL     1       5.048   6.419  15.774  0.00  0.00    +0.000 Cl
ENDBRANCH  24  25
ENDBRANCH  23  24
ENDBRANCH  20  23
ENDBRANCH   1  21
TORSDOF 5
ENDMDL
MODEL 5
REMARK VINA RESULT:      -8.3      2.725      3.841
REMARK  Name = 
REMARK  5 active torsions:
REMARK  status: ('A' for Active; 'I' for Inactive)
REMARK    1  A    between atoms: C_2  and  C_3
REMARK    2  A    between atoms: C_3  and  O_4
REMARK    3  A    between atoms: O_4  and  C_5
REMARK    4  A    between atoms: N_12  and  N_13
REMARK    5  A    between atoms: C_14  and  C_16
REMARK                            x       y       z     vdW  Elec       q    Type
REMARK                         _______ _______ _______ _____ _____    ______ ____
ROOT
ATOM      1  N   UNL     1       2.479   6.737  20.477  0.00  0.00    +0.000 N 
ATOM      2  C   UNL     1       1.973   7.764  19.703  0.00  0.00    +0.000 C 
ATOM      3  O   UNL     1       2.173   7.839  18.494  0.00  0.00    +0.000 OA
ATOM      4  H   UNL     1       2.219   6.559  21.446  0.00  0.00    +0.000 HD
ENDROOT
BRANCH   2   5
ATOM      5  C   UNL     1       1.141   8.782  20.393  0.00  0.00    +0.000 A 
ATOM      6  C   UNL     1       0.442   8.394  21.546  0.00  0.00    +0.000 A 
ATOM      7  C   UNL     1      -0.369   9.309  22.219  0.00  0.00    +0.000 A 
ATOM      8  C   UNL     1      -0.502  10.606  21.715  0.00  0.00    +0.000 A 
ATOM      9  C   UNL     1      -1.380  11.593  22.385  0.00  0.00    +0.000 A 
ATOM     10  O   UNL     1      -1.947  11.329  23.438  0.00  0.00    +0.000 OA
ATOM     11  N   UNL     1      -1.490  12.792  21.724  0.00  0.00    +0.000 N 
ATOM     12  C   UNL     1      -0.809  13.079  20.567  0.00  0.00    +0.000 A 
ATOM     13  N   UNL     1       0.003  12.275  19.971  0.00  0.00    +0.000 NA
ATOM     14  C   UNL     1       0.164  11.000  20.545  0.00  0.00    +0.000 A 
ATOM     15  C   UNL     1       0.997  10.083  19.895  0.00  0.00    +0.000 A 
ATOM     16  C   UNL     1      -1.149  14.454  20.093  0.00  0.00    +0.000 C 
ATOM     17  C   UNL     1      -2.146  14.975  21.124  0.00  0.00    +0.000 C 
ATOM     18  C   UNL     1      -2.313  13.883  22.169  0.00  0.00    +0.000 C 
ENDBRANCH   2   5
BRANCH   1  21
ATOM     19  O   UNL     1       1.998   4.093  20.854  0.00  0.00    +0.000 OA
ATOM     20  C   UNL     1       2.939   4.417  20.127  0.00  0.00    +0.000 C 
ATOM     21  N   UNL     1       3.212   5.734  19.827  0.00  0.00    +0.000 N 
ATOM     22  H   UNL     1       4.011   6.042  19.276  0.00  0.00    +0.000 HD
BRANCH  20  23
ATOM     23  C   UNL     1       3.911   3.402  19.523  0.00  0.00    +0.000 C 
BRANCH  23  24
ATOM     24  O   UNL     1       5.220   3.943  19.430  0.00  0.00    +0.000 OA
BRANCH  24  25
ATOM     25  C   UNL     1       5.649   4.410  18.213  0.00  0.00    +0.000 A 
ATOM     26  C   UNL     1       4.904   3.893  17.138  0.00  0.00    +0.000 A 
ATOM     27  C   UNL     1       5.221   4.202  15.811  0.00  0.00    +0.000 A 
ATOM     28  C   UNL     1       6.297   5.034  15.532  0.00  0.00    +0.000 A 
ATOM     29  C   UNL     1       7.055   5.546  16.582  0.00  0.00    +0.000 A 
ATOM     30  C   UNL     1       6.749   5.234  17.917  0.00  0.00    +0.000 A 
ATOM     31 CL   UNL     1       7.861   5.864  19.077  0.00  0.00    +0.000 Cl
ENDBRANCH  24  25
ENDBRANCH  23  24
ENDBRANCH  20  23
ENDBRANCH   1  21
TORSDOF 5
ENDMDL
MODEL 6
REMARK VINA RESULT:      -8.3      6.233      8.191
REMARK  Name = 
REMARK  5 active torsions:
REMARK  status: ('A' for Active; 'I' for Inactive)
REMARK    1  A    between atoms: C_2  and  C_3
REMARK    2  A    between atoms: C_3  and  O_4
REMARK    3  A    between atoms: O_4  and  C_5
REMARK    4  A    between atoms: N_12  and  N_13
REMARK    5  A    between atoms: C_14  and  C_16
REMARK                            x       y       z     vdW  Elec       q    Type
REMARK                         _______ _______ _______ _____ _____    ______ ____
ROOT
ATOM      1  N   UNL     1       7.086   8.198  17.017  0.00  0.00    +0.000 N 
ATOM      2  C   UNL     1       8.014   8.270  18.038  0.00  0.00    +0.000 C 
ATOM      3  O   UNL     1       8.418   7.275  18.633  0.00  0.00    +0.000 OA
ATOM      4  H   UNL     1       6.835   8.973  16.405  0.00  0.00    +0.000 HD
ENDROOT
BRANCH   2   5
ATOM      5  C   UNL     1       8.535   9.617  18.383  0.00  0.00    +0.000 A 
ATOM      6  C   UNL     1       9.511   9.711  19.387  0.00  0.00    +0.000 A 
ATOM      7  C   UNL     1      10.018  10.957  19.760  0.00  0.00    +0.000 A 
ATOM      8  C   UNL     1       9.521  12.110  19.147  0.00  0.00    +0.000 A 
ATOM      9  C   UNL     1      10.013  13.450  19.542  0.00  0.00    +0.000 A 
ATOM     10  O   UNL     1      10.921  13.582  20.353  0.00  0.00    +0.000 OA
ATOM     11  N   UNL     1       9.365  14.495  18.927  0.00  0.00    +0.000 N 
ATOM     12  C   UNL     1       8.380  14.319  17.987  0.00  0.00    +0.000 A 
ATOM     13  N   UNL     1       7.949  13.177  17.573  0.00  0.00    +0.000 NA
ATOM     14  C   UNL     1       8.522  12.035  18.165  0.00  0.00    +0.000 A 
ATOM     15  C   UNL     1       8.041  10.780  17.779  0.00  0.00    +0.000 A 
ATOM     16  C   UNL     1       7.870  15.643  17.519  0.00  0.00    +0.000 C 
ATOM     17  C   UNL     1       8.682  16.664  18.310  0.00  0.00    +0.000 C 
ATOM     18  C   UNL     1       9.650  15.879  19.182  0.00  0.00    +0.000 C 
ENDBRANCH   2   5
BRANCH   1  21
ATOM     19  O   UNL     1       4.548   7.348  17.469  0.00  0.00    +0.000 OA
ATOM     20  C   UNL     1       5.347   6.557  16.963  0.00  0.00    +0.000 C 
ATOM     21  N   UNL     1       6.635   6.926  16.638  0.00  0.00    +0.000 N 
ATOM     22  H   UNL     1       7.337   6.287  16.269  0.00  0.00    +0.000 HD
BRANCH  20  23
ATOM     23  C   UNL     1       5.004   5.093  16.685  0.00  0.00    +0.000 C 
BRANCH  23  24
ATOM     24  O   UNL     1       4.943   4.346  17.891  0.00  0.00    +0.000 OA
BRANCH  24  25
ATOM     25  C   UNL     1       3.745   3.778  18.248  0.00  0.00    +0.000 A 
ATOM     26  C   UNL     1       2.649   4.362  17.589  0.00  0.00    +0.000 A 
ATOM     27  C   UNL     1       1.336   3.962  17.858  0.00  0.00    +0.000 A 
ATOM     28  C   UNL     1       1.092   2.970  18.799  0.00  0.00    +0.000 A 
ATOM     29  C   UNL     1       2.165   2.389  19.472  0.00  0.00    +0.000 A 
ATOM     30  C   UNL     1       3.486   2.790  19.213  0.00  0.00    +0.000 A 
ATOM     31 CL   UNL     1       4.674   2.043  20.218  0.00  0.00    +0.000 Cl
ENDBRANCH  24  25
ENDBRANCH  23  24
ENDBRANCH  20  23
ENDBRANCH   1  21
TORSDOF 5
ENDMDL
MODEL 7
REMARK VINA RESULT:      -8.2      1.059      1.383
REMARK  Name = 
REMARK  5 active torsions:
REMARK  status: ('A' for Active; 'I' for Inactive)
REMARK    1  A    between atoms: C_2  and  C_3
REMARK    2  A    between atoms: C_3  and  O_4
REMARK    3  A    between atoms: O_4  and  C_5
REMARK    4  A    between atoms: N_12  and  N_13
REMARK    5  A    between atoms: C_14  and  C_16
REMARK                            x       y       z     vdW  Elec       q    Type
REMARK                         _______ _______ _______ _____ _____    ______ ____
ROOT
ATOM      1  N   UNL     1       3.859   6.979  17.512  0.00  0.00    +0.000 N 
ATOM      2  C   UNL     1       3.174   6.931  18.711  0.00  0.00    +0.000 C 
ATOM      3  O   UNL     1       3.392   6.073  19.561  0.00  0.00    +0.000 OA
ATOM      4  H   UNL     1       3.814   7.751  16.847  0.00  0.00    +0.000 HD
ENDROOT
BRANCH   2   5
ATOM      5  C   UNL     1       2.160   7.989  18.951  0.00  0.00    +0.000 A 
ATOM      6  C   UNL     1       1.804   8.820  17.878  0.00  0.00    +0.000 A 
ATOM      7  C   UNL     1       0.871   9.842  18.058  0.00  0.00    +0.000 A 
ATOM      8  C   UNL     1       0.319  10.049  19.326  0.00  0.00    +0.000 A 
ATOM      9  C   UNL     1      -0.650  11.145  19.560  0.00  0.00    +0.000 A 
ATOM     10  O   UNL     1      -1.055  11.845  18.640  0.00  0.00    +0.000 OA
ATOM     11  N   UNL     1      -1.032  11.291  20.872  0.00  0.00    +0.000 N 
ATOM     12  C   UNL     1      -0.597  10.464  21.878  0.00  0.00    +0.000 A 
ATOM     13  N   UNL     1       0.206   9.468  21.720  0.00  0.00    +0.000 NA
ATOM     14  C   UNL     1       0.689   9.248  20.417  0.00  0.00    +0.000 A 
ATOM     15  C   UNL     1       1.604   8.209  20.218  0.00  0.00    +0.000 A 
ATOM     16  C   UNL     1      -1.181  10.888  23.186  0.00  0.00    +0.000 C 
ATOM     17  C   UNL     1      -2.038  12.103  22.842  0.00  0.00    +0.000 C 
ATOM     18  C   UNL     1      -1.933  12.307  21.339  0.00  0.00    +0.000 C 
ENDBRANCH   2   5
BRANCH   1  21
ATOM     19  O   UNL     1       6.464   7.649  17.146  0.00  0.00    +0.000 OA
ATOM     20  C   UNL     1       6.150   6.460  17.061  0.00  0.00    +0.000 C 
ATOM     21  N   UNL     1       4.864   6.025  17.299  0.00  0.00    +0.000 N 
ATOM     22  H   UNL     1       4.556   5.060  17.186  0.00  0.00    +0.000 HD
BRANCH  20  23
ATOM     23  C   UNL     1       7.136   5.366  16.649  0.00  0.00    +0.000 C 
BRANCH  23  24
ATOM     24  O   UNL     1       7.691   5.636  15.371  0.00  0.00    +0.000 OA
BRANCH  24  25
ATOM     25  C   UNL     1       7.248   4.903  14.298  0.00  0.00    +0.000 A 
ATOM     26  C   UNL     1       7.837   5.301  13.085  0.00  0.00    +0.000 A 
ATOM     27  C   UNL     1       7.475   4.714  11.868  0.00  0.00    +0.000 A 
ATOM     28  C   UNL     1       6.509   3.717  11.840  0.00  0.00    +0.000 A 
ATOM     29  C   UNL     1       5.905   3.318  13.030  0.00  0.00    +0.000 A 
ATOM     30  C   UNL     1       6.257   3.907  14.255  0.00  0.00    +0.000 A 
ATOM     31 CL   UNL     1       5.327   3.369  15.606  0.00  0.00    +0.000 Cl
ENDBRANCH  24  25
ENDBRANCH  23  24
ENDBRANCH  20  23
ENDBRANCH   1  21
TORSDOF 5
ENDMDL
MODEL 8
REMARK VINA RESULT:      -8.2      3.861     11.303
REMARK  Name = 
REMARK  5 active torsions:
REMARK  status: ('A' for Active; 'I' for Inactive)
REMARK    1  A    between atoms: C_2  and  C_3
REMARK    2  A    between atoms: C_3  and  O_4
REMARK    3  A    between atoms: O_4  and  C_5
REMARK    4  A    between atoms: N_12  and  N_13
REMARK    5  A    between atoms: C_14  and  C_16
REMARK                            x       y       z     vdW  Elec       q    Type
REMARK                         _______ _______ _______ _____ _____    ______ ____
ROOT
ATOM      1  N   UNL     1       0.194   9.293  20.905  0.00  0.00    +0.000 N 
ATOM      2  C   UNL     1       1.076   9.403  19.847  0.00  0.00    +0.000 C 
ATOM      3  O   UNL     1       1.286  10.467  19.272  0.00  0.00    +0.000 OA
ATOM      4  H   UNL     1       0.099   8.469  21.498  0.00  0.00    +0.000 HD
ENDROOT
BRANCH   2   5
ATOM      5  C   UNL     1       1.794   8.170  19.436  0.00  0.00    +0.000 A 
ATOM      6  C   UNL     1       1.731   7.053  20.284  0.00  0.00    +0.000 A 
ATOM      7  C   UNL     1       2.405   5.878  19.952  0.00  0.00    +0.000 A 
ATOM      8  C   UNL     1       3.169   5.834  18.782  0.00  0.00    +0.000 A 
ATOM      9  C   UNL     1       3.923   4.613  18.415  0.00  0.00    +0.000 A 
ATOM     10  O   UNL     1       3.836   3.587  19.078  0.00  0.00    +0.000 OA
ATOM     11  N   UNL     1       4.706   4.748  17.294  0.00  0.00    +0.000 N 
ATOM     12  C   UNL     1       4.752   5.896  16.542  0.00  0.00    +0.000 A 
ATOM     13  N   UNL     1       4.080   6.967  16.789  0.00  0.00    +0.000 NA
ATOM     14  C   UNL     1       3.269   6.952  17.940  0.00  0.00    +0.000 A 
ATOM     15  C   UNL     1       2.566   8.116  18.268  0.00  0.00    +0.000 A 
ATOM     16  C   UNL     1       5.701   5.730  15.400  0.00  0.00    +0.000 C 
ATOM     17  C   UNL     1       6.239   4.310  15.558  0.00  0.00    +0.000 C 
ATOM     18  C   UNL     1       5.550   3.709  16.773  0.00  0.00    +0.000 C 
ENDBRANCH   2   5
BRANCH   1  21
ATOM     19  O   UNL     1       0.143  10.041  23.513  0.00  0.00    +0.000 OA
ATOM     20  C   UNL     1      -0.471  10.730  22.696  0.00  0.00    +0.000 C 
ATOM     21  N   UNL     1      -0.442  10.462  21.345  0.00  0.00    +0.000 N 
ATOM     22  H   UNL     1      -0.979  10.975  20.648  0.00  0.00    +0.000 HD
BRANCH  20  23
ATOM     23  C   UNL     1      -1.347  11.916  23.101  0.00  0.00    +0.000 C 
BRANCH  23  24
ATOM     24  O   UNL     1      -2.288  12.226  22.084  0.00  0.00    +0.000 OA
BRANCH  24  25
ATOM     25  C   UNL     1      -3.579  12.509  22.453  0.00  0.00    +0.000 A 
ATOM     26  C   UNL     1      -3.768  12.473  23.846  0.00  0.00    +0.000 A 
ATOM     27  C   UNL     1      -5.028  12.678  24.419  0.00  0.00    +0.000 A 
ATOM     28  C   UNL     1      -6.127  12.918  23.608  0.00  0.00    +0.000 A 
ATOM     29  C   UNL     1      -5.963  12.944  22.225  0.00  0.00    +0.000 A 
ATOM     30  C   UNL     1      -4.704  12.733  21.640  0.00  0.00    +0.000 A 
ATOM     31 CL   UNL     1      -4.709  12.689  19.914  0.00  0.00    +0.000 Cl
ENDBRANCH  24  25
ENDBRANCH  23  24
ENDBRANCH  20  23
ENDBRANCH   1  21
TORSDOF 5
ENDMDL
MODEL 9
REMARK VINA RESULT:      -8.1      6.154      8.968
REMARK  Name = 
REMARK  5 active torsions:
REMARK  status: ('A' for Active; 'I' for Inactive)
REMARK    1  A    between atoms: C_2  and  C_3
REMARK    2  A    between atoms: C_3  and  O_4
REMARK    3  A    between atoms: O_4  and  C_5
REMARK    4  A    between atoms: N_12  and  N_13
REMARK    5  A    between atoms: C_14  and  C_16
REMARK                            x       y       z     vdW  Elec       q    Type
REMARK                         _______ _______ _______ _____ _____    ______ ____
ROOT
ATOM      1  N   UNL     1       7.405   8.823  18.061  0.00  0.00    +0.000 N 
ATOM      2  C   UNL     1       7.506   7.601  17.425  0.00  0.00    +0.000 C 
ATOM      3  O   UNL     1       8.251   7.415  16.468  0.00  0.00    +0.000 OA
ATOM      4  H   UNL     1       6.914   8.981  18.940  0.00  0.00    +0.000 HD
ENDROOT
BRANCH   2   5
ATOM      5  C   UNL     1       6.684   6.489  17.966  0.00  0.00    +0.000 A 
ATOM      6  C   UNL     1       7.330   5.494  18.718  0.00  0.00    +0.000 A 
ATOM      7  C   UNL     1       6.604   4.419  19.232  0.00  0.00    +0.000 A 
ATOM      8  C   UNL     1       5.236   4.325  18.963  0.00  0.00    +0.000 A 
ATOM      9  C   UNL     1       4.442   3.179  19.465  0.00  0.00    +0.000 A 
ATOM     10  O   UNL     1       4.940   2.329  20.193  0.00  0.00    +0.000 OA
ATOM     11  N   UNL     1       3.135   3.168  19.041  0.00  0.00    +0.000 N 
ATOM     12  C   UNL     1       2.589   4.157  18.261  0.00  0.00    +0.000 A 
ATOM     13  N   UNL     1       3.221   5.197  17.839  0.00  0.00    +0.000 NA
ATOM     14  C   UNL     1       4.582   5.292  18.186  0.00  0.00    +0.000 A 
ATOM     15  C   UNL     1       5.314   6.382  17.700  0.00  0.00    +0.000 A 
ATOM     16  C   UNL     1       1.158   3.851  17.963  0.00  0.00    +0.000 C 
ATOM     17  C   UNL     1       0.899   2.523  18.671  0.00  0.00    +0.000 C 
ATOM     18  C   UNL     1       2.191   2.138  19.373  0.00  0.00    +0.000 C 
ENDBRANCH   2   5
BRANCH   1  21
ATOM     19  O   UNL     1       9.305   9.988  19.611  0.00  0.00    +0.000 OA
ATOM     20  C   UNL     1       9.119  10.438  18.478  0.00  0.00    +0.000 C 
ATOM     21  N   UNL     1       8.223   9.864  17.601  0.00  0.00    +0.000 N 
ATOM     22  H   UNL     1       8.005  10.239  16.679  0.00  0.00    +0.000 HD
BRANCH  20  23
ATOM     23  C   UNL     1       9.828  11.686  17.952  0.00  0.00    +0.000 C 
BRANCH  23  24
ATOM     24  O   UNL     1       9.128  12.864  18.324  0.00  0.00    +0.000 OA
BRANCH  24  25
ATOM     25  C   UNL     1       9.614  14.075  17.896  0.00  0.00    +0.000 A 
ATOM     26  C   UNL     1      10.921  13.988  17.384  0.00  0.00    +0.000 A 
ATOM     27  C   UNL     1      11.614  15.122  16.949  0.00  0.00    +0.000 A 
ATOM     28  C   UNL     1      11.013  16.371  17.022  0.00  0.00    +0.000 A 
ATOM     29  C   UNL     1       9.724  16.480  17.539  0.00  0.00    +0.000 A 
ATOM     30  C   UNL     1       9.024  15.347  17.985  0.00  0.00    +0.000 A 
ATOM     31 CL   UNL     1       7.487  15.685  18.696  0.00  0.00    +0.000 Cl
ENDBRANCH  24  25
ENDBRANCH  23  24
ENDBRANCH  20  23
ENDBRANCH   1  21
TORSDOF 5
ENDMDL
