MODEL 1
REMARK VINA RESULT:      -7.8      0.000      0.000
REMARK  Name = 
REMARK  4 active torsions:
REMARK  status: ('A' for Active; 'I' for Inactive)
REMARK    1  A    between atoms: C_4  and  C_5
REMARK    2  A    between atoms: C_11  and  C_12
REMARK    3  A    between atoms: C_12  and  O_13
REMARK    4  A    between atoms: N_15  and  C_16
REMARK                            x       y       z     vdW  Elec       q    Type
REMARK                         _______ _______ _______ _____ _____    ______ ____
ROOT
ATOM      1  O   UNL     1       6.394   4.601  19.002  0.00  0.00    +0.000 OA
ATOM      2  S   UNL     1       6.719   4.663  17.594  0.00  0.00    +0.000 S 
ATOM      3  O   UNL     1       8.002   4.205  17.101  0.00  0.00    +0.000 OA
ATOM      4  C   UNL     1       5.438   3.963  16.540  0.00  0.00    +0.000 C 
ATOM      5  C   UNL     1       5.464   4.864  15.284  0.00  0.00    +0.000 C 
ATOM      6  C   UNL     1       5.764   6.307  15.730  0.00  0.00    +0.000 C 
ATOM      7  N   UNL     1       6.467   6.268  17.038  0.00  0.00    +0.000 NA
ENDROOT
BRANCH   4   8
ATOM      8  C   UNL     1       4.105   3.891  17.267  0.00  0.00    +0.000 A 
ATOM      9  C   UNL     1       3.316   5.021  17.538  0.00  0.00    +0.000 A 
ATOM     10  C   UNL     1       2.111   4.912  18.235  0.00  0.00    +0.000 A 
ATOM     11  C   UNL     1       1.667   3.670  18.674  0.00  0.00    +0.000 A 
ATOM     12  C   UNL     1       2.428   2.536  18.408  0.00  0.00    +0.000 A 
ATOM     13  C   UNL     1       3.632   2.642  17.707  0.00  0.00    +0.000 A 
ENDBRANCH   4   8
BRANCH   7  14
ATOM     14  C   UNL     1       7.624   7.161  17.154  0.00  0.00    +0.000 C 
ATOM     15  C   UNL     1       7.482   8.541  17.734  0.00  0.00    +0.000 C 
ATOM     16  C   UNL     1       8.197   7.473  18.506  0.00  0.00    +0.000 C 
ENDBRANCH   7  14
BRANCH   5  17
ATOM     17  C   UNL     1       6.526   4.409  14.272  0.00  0.00    +0.000 C 
BRANCH  17  18
ATOM     18  O   UNL     1       7.619   5.324  14.275  0.00  0.00    +0.000 OA
ATOM     19  H   UNL     1       8.076   5.251  15.131  0.00  0.00    +0.000 HD
ENDBRANCH  17  18
ENDBRANCH   5  17
TORSDOF 4
ENDMDL
MODEL 2
REMARK VINA RESULT:      -7.7      0.060      1.134
REMARK  Name = 
REMARK  4 active torsions:
REMARK  status: ('A' for Active; 'I' for Inactive)
REMARK    1  A    between atoms: C_4  and  C_5
REMARK    2  A    between atoms: C_11  and  C_12
REMARK    3  A    between atoms: C_12  and  O_13
REMARK    4  A    between atoms: N_15  and  C_16
REMARK                            x       y       z     vdW  Elec       q    Type
REMARK                         _______ _______ _______ _____ _____    ______ ____
ROOT
ATOM      1  O   UNL     1       6.432   4.564  18.998  0.00  0.00    +0.000 OA
ATOM      2  S   UNL     1       6.739   4.639  17.587  0.00  0.00    +0.000 S 
ATOM      3  O   UNL     1       8.020   4.195  17.074  0.00  0.00    +0.000 OA
ATOM      4  C   UNL     1       5.451   3.935  16.544  0.00  0.00    +0.000 C 
ATOM      5  C   UNL     1       5.454   4.845  15.293  0.00  0.00    +0.000 C 
ATOM      6  C   UNL     1       5.747   6.287  15.746  0.00  0.00    +0.000 C 
ATOM      7  N   UNL     1       6.466   6.246  17.045  0.00  0.00    +0.000 NA
ENDROOT
BRANCH   4   8
ATOM      8  C   UNL     1       4.128   3.846  17.286  0.00  0.00    +0.000 A 
ATOM      9  C   UNL     1       3.605   2.640  17.782  0.00  0.00    +0.000 A 
ATOM     10  C   UNL     1       2.371   2.599  18.433  0.00  0.00    +0.000 A 
ATOM     11  C   UNL     1       1.632   3.764  18.603  0.00  0.00    +0.000 A 
ATOM     12  C   UNL     1       2.134   4.971  18.128  0.00  0.00    +0.000 A 
ATOM     13  C   UNL     1       3.371   5.016  17.480  0.00  0.00    +0.000 A 
ENDBRANCH   4   8
BRANCH   7  14
ATOM     14  C   UNL     1       7.617   7.148  17.153  0.00  0.00    +0.000 C 
ATOM     15  C   UNL     1       7.468   8.528  17.729  0.00  0.00    +0.000 C 
ATOM     16  C   UNL     1       8.194   7.468  18.501  0.00  0.00    +0.000 C 
ENDBRANCH   7  14
BRANCH   5  17
ATOM     17  C   UNL     1       6.507   4.406  14.265  0.00  0.00    +0.000 C 
BRANCH  17  18
ATOM     18  O   UNL     1       7.588   5.335  14.255  0.00  0.00    +0.000 OA
ATOM     19  H   UNL     1       8.374   4.892  14.619  0.00  0.00    +0.000 HD
ENDBRANCH  17  18
ENDBRANCH   5  17
TORSDOF 4
ENDMDL
MODEL 3
REMARK VINA RESULT:      -6.7      3.133      5.661
REMARK  Name = 
REMARK  4 active torsions:
REMARK  status: ('A' for Active; 'I' for Inactive)
REMARK    1  A    between atoms: C_4  and  C_5
REMARK    2  A    between atoms: C_11  and  C_12
REMARK    3  A    between atoms: C_12  and  O_13
REMARK    4  A    between atoms: N_15  and  C_16
REMARK                            x       y       z     vdW  Elec       q    Type
REMARK                         _______ _______ _______ _____ _____    ______ ____
ROOT
ATOM      1  O   UNL     1       3.064   6.844  18.947  0.00  0.00    +0.000 OA
ATOM      2  S   UNL     1       2.860   5.452  18.611  0.00  0.00    +0.000 S 
ATOM      3  O   UNL     1       1.639   5.007  17.971  0.00  0.00    +0.000 OA
ATOM      4  C   UNL     1       4.248   4.729  17.720  0.00  0.00    +0.000 C 
ATOM      5  C   UNL     1       4.304   3.276  18.246  0.00  0.00    +0.000 C 
ATOM      6  C   UNL     1       3.925   3.288  19.739  0.00  0.00    +0.000 C 
ATOM      7  N   UNL     1       3.113   4.499  20.018  0.00  0.00    +0.000 NA
ENDROOT
BRANCH   4   8
ATOM      8  C   UNL     1       5.514   5.546  17.915  0.00  0.00    +0.000 A 
ATOM      9  C   UNL     1       5.844   6.655  17.117  0.00  0.00    +0.000 A 
ATOM     10  C   UNL     1       7.033   7.359  17.312  0.00  0.00    +0.000 A 
ATOM     11  C   UNL     1       7.919   6.972  18.311  0.00  0.00    +0.000 A 
ATOM     12  C   UNL     1       7.609   5.883  19.119  0.00  0.00    +0.000 A 
ATOM     13  C   UNL     1       6.417   5.179  18.929  0.00  0.00    +0.000 A 
ENDBRANCH   4   8
BRANCH   7  14
ATOM     14  C   UNL     1       1.924   4.280  20.848  0.00  0.00    +0.000 C 
ATOM     15  C   UNL     1       0.907   3.234  20.484  0.00  0.00    +0.000 C 
ATOM     16  C   UNL     1       1.803   3.029  21.668  0.00  0.00    +0.000 C 
ENDBRANCH   7  14
BRANCH   5  17
ATOM     17  C   UNL     1       3.348   2.350  17.481  0.00  0.00    +0.000 C 
BRANCH  17  18
ATOM     18  O   UNL     1       2.703   1.463  18.391  0.00  0.00    +0.000 OA
ATOM     19  H   UNL     1       3.128   0.590  18.320  0.00  0.00    +0.000 HD
ENDBRANCH  17  18
ENDBRANCH   5  17
TORSDOF 4
ENDMDL
MODEL 4
REMARK VINA RESULT:      -6.6      3.093      5.748
REMARK  Name = 
REMARK  4 active torsions:
REMARK  status: ('A' for Active; 'I' for Inactive)
REMARK    1  A    between atoms: C_4  and  C_5
REMARK    2  A    between atoms: C_11  and  C_12
REMARK    3  A    between atoms: C_12  and  O_13
REMARK    4  A    between atoms: N_15  and  C_16
REMARK                            x       y       z     vdW  Elec       q    Type
REMARK                         _______ _______ _______ _____ _____    ______ ____
ROOT
ATOM      1  O   UNL     1       3.094   6.729  18.894  0.00  0.00    +0.000 OA
ATOM      2  S   UNL     1       2.877   5.335  18.578  0.00  0.00    +0.000 S 
ATOM      3  O   UNL     1       1.660   4.895  17.926  0.00  0.00    +0.000 OA
ATOM      4  C   UNL     1       4.269   4.578  17.723  0.00  0.00    +0.000 C 
ATOM      5  C   UNL     1       4.298   3.134  18.275  0.00  0.00    +0.000 C 
ATOM      6  C   UNL     1       3.894   3.177  19.761  0.00  0.00    +0.000 C 
ATOM      7  N   UNL     1       3.094   4.404  20.005  0.00  0.00    +0.000 NA
ENDROOT
BRANCH   4   8
ATOM      8  C   UNL     1       5.543   5.381  17.924  0.00  0.00    +0.000 A 
ATOM      9  C   UNL     1       6.471   5.107  18.943  0.00  0.00    +0.000 A 
ATOM     10  C   UNL     1       7.615   5.890  19.110  0.00  0.00    +0.000 A 
ATOM     11  C   UNL     1       7.857   6.963  18.261  0.00  0.00    +0.000 A 
ATOM     12  C   UNL     1       6.957   7.248  17.240  0.00  0.00    +0.000 A 
ATOM     13  C   UNL     1       5.814   6.464  17.067  0.00  0.00    +0.000 A 
ENDBRANCH   4   8
BRANCH   7  14
ATOM     14  C   UNL     1       1.889   4.215  20.820  0.00  0.00    +0.000 C 
ATOM     15  C   UNL     1       0.865   3.177  20.457  0.00  0.00    +0.000 C 
ATOM     16  C   UNL     1       1.739   2.980  21.659  0.00  0.00    +0.000 C 
ENDBRANCH   7  14
BRANCH   5  17
ATOM     17  C   UNL     1       3.341   2.207  17.510  0.00  0.00    +0.000 C 
BRANCH  17  18
ATOM     18  O   UNL     1       2.383   1.654  18.409  0.00  0.00    +0.000 OA
ATOM     19  H   UNL     1       2.384   2.188  19.223  0.00  0.00    +0.000 HD
ENDBRANCH  17  18
ENDBRANCH   5  17
TORSDOF 4
ENDMDL
MODEL 5
REMARK VINA RESULT:      -6.6      2.504      4.009
REMARK  Name = 
REMARK  4 active torsions:
REMARK  status: ('A' for Active; 'I' for Inactive)
REMARK    1  A    between atoms: C_4  and  C_5
REMARK    2  A    between atoms: C_11  and  C_12
REMARK    3  A    between atoms: C_12  and  O_13
REMARK    4  A    between atoms: N_15  and  C_16
REMARK                            x       y       z     vdW  Elec       q    Type
REMARK                         _______ _______ _______ _____ _____    ______ ____
ROOT
ATOM      1  O   UNL     1       5.457   5.768  19.625  0.00  0.00    +0.000 OA
ATOM      2  S   UNL     1       4.866   4.552  19.111  0.00  0.00    +0.000 S 
ATOM      3  O   UNL     1       5.284   3.252  19.596  0.00  0.00    +0.000 OA
ATOM      4  C   UNL     1       3.066   4.588  19.105  0.00  0.00    +0.000 C 
ATOM      5  C   UNL     1       2.687   3.805  17.827  0.00  0.00    +0.000 C 
ATOM      6  C   UNL     1       3.733   4.118  16.741  0.00  0.00    +0.000 C 
ATOM      7  N   UNL     1       4.990   4.557  17.398  0.00  0.00    +0.000 NA
ENDROOT
BRANCH   4   8
ATOM      8  C   UNL     1       2.542   6.014  19.178  0.00  0.00    +0.000 A 
ATOM      9  C   UNL     1       2.560   6.896  18.085  0.00  0.00    +0.000 A 
ATOM     10  C   UNL     1       2.096   8.207  18.205  0.00  0.00    +0.000 A 
ATOM     11  C   UNL     1       1.603   8.665  19.421  0.00  0.00    +0.000 A 
ATOM     12  C   UNL     1       1.567   7.807  20.515  0.00  0.00    +0.000 A 
ATOM     13  C   UNL     1       2.027   6.493  20.396  0.00  0.00    +0.000 A 
ENDBRANCH   4   8
BRANCH   7  14
ATOM     14  C   UNL     1       6.219   3.967  16.857  0.00  0.00    +0.000 C 
ATOM     15  C   UNL     1       7.036   4.691  15.824  0.00  0.00    +0.000 C 
ATOM     16  C   UNL     1       7.553   4.548  17.224  0.00  0.00    +0.000 C 
ENDBRANCH   7  14
BRANCH   5  17
ATOM     17  C   UNL     1       2.641   2.290  18.074  0.00  0.00    +0.000 C 
BRANCH  17  18
ATOM     18  O   UNL     1       3.883   1.702  17.694  0.00  0.00    +0.000 OA
ATOM     19  H   UNL     1       3.801   1.378  16.780  0.00  0.00    +0.000 HD
ENDBRANCH  17  18
ENDBRANCH   5  17
TORSDOF 4
ENDMDL
MODEL 6
REMARK VINA RESULT:      -6.6      2.371      4.248
REMARK  Name = 
REMARK  4 active torsions:
REMARK  status: ('A' for Active; 'I' for Inactive)
REMARK    1  A    between atoms: C_4  and  C_5
REMARK    2  A    between atoms: C_11  and  C_12
REMARK    3  A    between atoms: C_12  and  O_13
REMARK    4  A    between atoms: N_15  and  C_16
REMARK                            x       y       z     vdW  Elec       q    Type
REMARK                         _______ _______ _______ _____ _____    ______ ____
ROOT
ATOM      1  O   UNL     1       5.805   6.564  17.925  0.00  0.00    +0.000 OA
ATOM      2  S   UNL     1       5.356   5.220  18.213  0.00  0.00    +0.000 S 
ATOM      3  O   UNL     1       6.244   4.246  18.814  0.00  0.00    +0.000 OA
ATOM      4  C   UNL     1       3.794   5.173  19.108  0.00  0.00    +0.000 C 
ATOM      5  C   UNL     1       3.082   3.925  18.538  0.00  0.00    +0.000 C 
ATOM      6  C   UNL     1       3.420   3.819  17.039  0.00  0.00    +0.000 C 
ATOM      7  N   UNL     1       4.693   4.539  16.782  0.00  0.00    +0.000 NA
ENDROOT
BRANCH   4   8
ATOM      8  C   UNL     1       3.036   6.482  18.965  0.00  0.00    +0.000 A 
ATOM      9  C   UNL     1       3.079   7.272  17.804  0.00  0.00    +0.000 A 
ATOM     10  C   UNL     1       2.390   8.483  17.726  0.00  0.00    +0.000 A 
ATOM     11  C   UNL     1       1.641   8.932  18.808  0.00  0.00    +0.000 A 
ATOM     12  C   UNL     1       1.577   8.163  19.965  0.00  0.00    +0.000 A 
ATOM     13  C   UNL     1       2.262   6.947  20.044  0.00  0.00    +0.000 A 
ENDBRANCH   4   8
BRANCH   7  14
ATOM     14  C   UNL     1       5.649   3.836  15.921  0.00  0.00    +0.000 C 
ATOM     15  C   UNL     1       5.778   4.180  14.464  0.00  0.00    +0.000 C 
ATOM     16  C   UNL     1       6.872   4.548  15.421  0.00  0.00    +0.000 C 
ENDBRANCH   7  14
BRANCH   5  17
ATOM     17  C   UNL     1       3.516   2.637  19.254  0.00  0.00    +0.000 C 
BRANCH  17  18
ATOM     18  O   UNL     1       4.289   1.830  18.369  0.00  0.00    +0.000 OA
ATOM     19  H   UNL     1       3.963   1.971  17.463  0.00  0.00    +0.000 HD
ENDBRANCH  17  18
ENDBRANCH   5  17
TORSDOF 4
ENDMDL
MODEL 7
REMARK VINA RESULT:      -6.5      2.599      4.480
REMARK  Name = 
REMARK  4 active torsions:
REMARK  status: ('A' for Active; 'I' for Inactive)
REMARK    1  A    between atoms: C_4  and  C_5
REMARK    2  A    between atoms: C_11  and  C_12
REMARK    3  A    between atoms: C_12  and  O_13
REMARK    4  A    between atoms: N_15  and  C_16
REMARK                            x       y       z     vdW  Elec       q    Type
REMARK                         _______ _______ _______ _____ _____    ______ ____
ROOT
ATOM      1  O   UNL     1       5.384   5.823  19.109  0.00  0.00    +0.000 OA
ATOM      2  S   UNL     1       4.661   4.583  18.931  0.00  0.00    +0.000 S 
ATOM      3  O   UNL     1       5.176   3.334  19.453  0.00  0.00    +0.000 OA
ATOM      4  C   UNL     1       2.925   4.704  19.395  0.00  0.00    +0.000 C 
ATOM      5  C   UNL     1       2.208   3.790  18.375  0.00  0.00    +0.000 C 
ATOM      6  C   UNL     1       2.930   3.919  17.021  0.00  0.00    +0.000 C 
ATOM      7  N   UNL     1       4.323   4.374  17.260  0.00  0.00    +0.000 NA
ENDROOT
BRANCH   4   8
ATOM      8  C   UNL     1       2.460   6.151  19.418  0.00  0.00    +0.000 A 
ATOM      9  C   UNL     1       1.939   6.772  20.566  0.00  0.00    +0.000 A 
ATOM     10  C   UNL     1       1.495   8.095  20.535  0.00  0.00    +0.000 A 
ATOM     11  C   UNL     1       1.564   8.827  19.356  0.00  0.00    +0.000 A 
ATOM     12  C   UNL     1       2.085   8.236  18.209  0.00  0.00    +0.000 A 
ATOM     13  C   UNL     1       2.534   6.913  18.239  0.00  0.00    +0.000 A 
ENDBRANCH   4   8
BRANCH   7  14
ATOM     14  C   UNL     1       5.354   3.665  16.496  0.00  0.00    +0.000 C 
ATOM     15  C   UNL     1       5.757   4.128  15.124  0.00  0.00    +0.000 C 
ATOM     16  C   UNL     1       6.696   4.301  16.279  0.00  0.00    +0.000 C 
ENDBRANCH   7  14
BRANCH   5  17
ATOM     17  C   UNL     1       2.211   2.320  18.820  0.00  0.00    +0.000 C 
BRANCH  17  18
ATOM     18  O   UNL     1       3.046   1.555  17.954  0.00  0.00    +0.000 OA
ATOM     19  H   UNL     1       3.972   1.697  18.218  0.00  0.00    +0.000 HD
ENDBRANCH  17  18
ENDBRANCH   5  17
TORSDOF 4
ENDMDL
MODEL 8
REMARK VINA RESULT:      -6.2      3.345      5.587
REMARK  Name = 
REMARK  4 active torsions:
REMARK  status: ('A' for Active; 'I' for Inactive)
REMARK    1  A    between atoms: C_4  and  C_5
REMARK    2  A    between atoms: C_11  and  C_12
REMARK    3  A    between atoms: C_12  and  O_13
REMARK    4  A    between atoms: N_15  and  C_16
REMARK                            x       y       z     vdW  Elec       q    Type
REMARK                         _______ _______ _______ _____ _____    ______ ____
ROOT
ATOM      1  O   UNL     1       1.209   4.985  17.585  0.00  0.00    +0.000 OA
ATOM      2  S   UNL     1       2.605   4.684  17.814  0.00  0.00    +0.000 S 
ATOM      3  O   UNL     1       3.335   3.799  16.928  0.00  0.00    +0.000 OA
ATOM      4  C   UNL     1       3.610   6.153  18.082  0.00  0.00    +0.000 C 
ATOM      5  C   UNL     1       4.655   5.698  19.127  0.00  0.00    +0.000 C 
ATOM      6  C   UNL     1       3.969   4.720  20.100  0.00  0.00    +0.000 C 
ATOM      7  N   UNL     1       2.793   4.116  19.424  0.00  0.00    +0.000 NA
ENDROOT
BRANCH   4   8
ATOM      8  C   UNL     1       2.753   7.342  18.487  0.00  0.00    +0.000 A 
ATOM      9  C   UNL     1       2.177   7.474  19.761  0.00  0.00    +0.000 A 
ATOM     10  C   UNL     1       1.371   8.568  20.081  0.00  0.00    +0.000 A 
ATOM     11  C   UNL     1       1.127   9.556  19.135  0.00  0.00    +0.000 A 
ATOM     12  C   UNL     1       1.695   9.451  17.869  0.00  0.00    +0.000 A 
ATOM     13  C   UNL     1       2.505   8.359  17.548  0.00  0.00    +0.000 A 
ENDBRANCH   4   8
BRANCH   7  14
ATOM     14  C   UNL     1       2.645   2.667  19.599  0.00  0.00    +0.000 C 
ATOM     15  C   UNL     1       1.675   2.104  20.599  0.00  0.00    +0.000 C 
ATOM     16  C   UNL     1       1.395   1.980  19.131  0.00  0.00    +0.000 C 
ENDBRANCH   7  14
BRANCH   5  17
ATOM     17  C   UNL     1       5.861   5.009  18.472  0.00  0.00    +0.000 C 
BRANCH  17  18
ATOM     18  O   UNL     1       5.846   3.616  18.778  0.00  0.00    +0.000 OA
ATOM     19  H   UNL     1       5.024   3.235  18.423  0.00  0.00    +0.000 HD
ENDBRANCH  17  18
ENDBRANCH   5  17
TORSDOF 4
ENDMDL
MODEL 9
REMARK VINA RESULT:      -6.1      3.327      5.491
REMARK  Name = 
REMARK  4 active torsions:
REMARK  status: ('A' for Active; 'I' for Inactive)
REMARK    1  A    between atoms: C_4  and  C_5
REMARK    2  A    between atoms: C_11  and  C_12
REMARK    3  A    between atoms: C_12  and  O_13
REMARK    4  A    between atoms: N_15  and  C_16
REMARK                            x       y       z     vdW  Elec       q    Type
REMARK                         _______ _______ _______ _____ _____    ______ ____
ROOT
ATOM      1  O   UNL     1       1.188   4.891  17.636  0.00  0.00    +0.000 OA
ATOM      2  S   UNL     1       2.598   4.632  17.822  0.00  0.00    +0.000 S 
ATOM      3  O   UNL     1       3.318   3.736  16.940  0.00  0.00    +0.000 OA
ATOM      4  C   UNL     1       3.575   6.133  18.007  0.00  0.00    +0.000 C 
ATOM      5  C   UNL     1       4.667   5.737  19.027  0.00  0.00    +0.000 C 
ATOM      6  C   UNL     1       4.041   4.776  20.055  0.00  0.00    +0.000 C 
ATOM      7  N   UNL     1       2.858   4.121  19.442  0.00  0.00    +0.000 NA
ENDROOT
BRANCH   4   8
ATOM      8  C   UNL     1       2.703   7.313  18.404  0.00  0.00    +0.000 A 
ATOM      9  C   UNL     1       2.368   8.352  17.521  0.00  0.00    +0.000 A 
ATOM     10  C   UNL     1       1.588   9.433  17.937  0.00  0.00    +0.000 A 
ATOM     11  C   UNL     1       1.125   9.497  19.245  0.00  0.00    +0.000 A 
ATOM     12  C   UNL     1       1.437   8.475  20.136  0.00  0.00    +0.000 A 
ATOM     13  C   UNL     1       2.213   7.390  19.721  0.00  0.00    +0.000 A 
ENDBRANCH   4   8
BRANCH   7  14
ATOM     14  C   UNL     1       2.753   2.676  19.668  0.00  0.00    +0.000 C 
ATOM     15  C   UNL     1       1.815   2.121  20.704  0.00  0.00    +0.000 C 
ATOM     16  C   UNL     1       1.515   1.940  19.246  0.00  0.00    +0.000 C 
ENDBRANCH   7  14
BRANCH   5  17
ATOM     17  C   UNL     1       5.866   5.057  18.351  0.00  0.00    +0.000 C 
BRANCH  17  18
ATOM     18  O   UNL     1       5.912   3.681  18.722  0.00  0.00    +0.000 OA
ATOM     19  H   UNL     1       6.845   3.407  18.767  0.00  0.00    +0.000 HD
ENDBRANCH  17  18
ENDBRANCH   5  17
TORSDOF 4
ENDMDL
