MODEL 1
REMARK VINA RESULT:      -7.4      0.000      0.000
REMARK  Name = 
REMARK  4 active torsions:
REMARK  status: ('A' for Active; 'I' for Inactive)
REMARK    1  A    between atoms: C_1  and  C_2
REMARK    2  A    between atoms: C_6  and  N_7
REMARK    3  A    between atoms: C_9  and  C_10
REMARK    4  A    between atoms: C_10  and  O_12
REMARK                            x       y       z     vdW  Elec       q    Type
REMARK                         _______ _______ _______ _____ _____    ______ ____
ROOT
ATOM      1  N   UNL     1       3.492   3.529  18.411  0.00  0.00    +0.000 N 
ATOM      2  C   UNL     1       2.454   4.474  18.758  0.00  0.00    +0.000 C 
ATOM      3  C   UNL     1       1.566   3.733  19.743  0.00  0.00    +0.000 C 
ATOM      4  C   UNL     1       1.736   2.275  19.352  0.00  0.00    +0.000 C 
ATOM      5  C   UNL     1       3.107   2.224  18.724  0.00  0.00    +0.000 C 
ATOM      6  O   UNL     1       3.677   1.166  18.500  0.00  0.00    +0.000 OA
ENDROOT
BRANCH   1  12
ATOM      7  C   UNL     1       6.109   4.060  14.215  0.00  0.00    +0.000 C 
ATOM      8  C   UNL     1       6.011   4.190  15.707  0.00  0.00    +0.000 A 
ATOM      9  C   UNL     1       7.082   4.681  16.456  0.00  0.00    +0.000 A 
ATOM     10  C   UNL     1       6.967   4.801  17.837  0.00  0.00    +0.000 A 
ATOM     11  C   UNL     1       5.785   4.423  18.481  0.00  0.00    +0.000 A 
ATOM     12  C   UNL     1       4.695   3.918  17.761  0.00  0.00    +0.000 A 
ATOM     13  C   UNL     1       4.826   3.817  16.366  0.00  0.00    +0.000 A 
ENDBRANCH   1  12
BRANCH   3  14
ATOM     14  C   UNL     1       1.981   3.976  21.180  0.00  0.00    +0.000 C 
ATOM     15  O   UNL     1       1.979   3.133  22.062  0.00  0.00    +0.000 OA
BRANCH  14  16
ATOM     16  O   UNL     1       2.424   5.235  21.401  0.00  0.00    +0.000 OA
ATOM     17  H   UNL     1       2.087   5.667  22.209  0.00  0.00    +0.000 HD
ENDBRANCH  14  16
ENDBRANCH   3  14
TORSDOF 3
ENDMDL
MODEL 2
REMARK VINA RESULT:      -7.3      0.521      1.823
REMARK  Name = 
REMARK  4 active torsions:
REMARK  status: ('A' for Active; 'I' for Inactive)
REMARK    1  A    between atoms: C_1  and  C_2
REMARK    2  A    between atoms: C_6  and  N_7
REMARK    3  A    between atoms: C_9  and  C_10
REMARK    4  A    between atoms: C_10  and  O_12
REMARK                            x       y       z     vdW  Elec       q    Type
REMARK                         _______ _______ _______ _____ _____    ______ ____
ROOT
ATOM      1  N   UNL     1       3.454   3.485  18.477  0.00  0.00    +0.000 N 
ATOM      2  C   UNL     1       2.365   4.365  18.838  0.00  0.00    +0.000 C 
ATOM      3  C   UNL     1       1.469   3.529  19.736  0.00  0.00    +0.000 C 
ATOM      4  C   UNL     1       1.713   2.108  19.261  0.00  0.00    +0.000 C 
ATOM      5  C   UNL     1       3.109   2.149  18.689  0.00  0.00    +0.000 C 
ATOM      6  O   UNL     1       3.729   1.130  18.422  0.00  0.00    +0.000 OA
ENDROOT
BRANCH   1  12
ATOM      7  C   UNL     1       7.846   5.754  19.027  0.00  0.00    +0.000 C 
ATOM      8  C   UNL     1       6.837   5.077  18.145  0.00  0.00    +0.000 A 
ATOM      9  C   UNL     1       7.074   4.916  16.779  0.00  0.00    +0.000 A 
ATOM     10  C   UNL     1       6.129   4.279  15.981  0.00  0.00    +0.000 A 
ATOM     11  C   UNL     1       4.937   3.808  16.539  0.00  0.00    +0.000 A 
ATOM     12  C   UNL     1       4.665   3.961  17.904  0.00  0.00    +0.000 A 
ATOM     13  C   UNL     1       5.637   4.594  18.696  0.00  0.00    +0.000 A 
ENDBRANCH   1  12
BRANCH   3  14
ATOM     14  C   UNL     1       1.816   3.693  21.202  0.00  0.00    +0.000 C 
ATOM     15  O   UNL     1       1.656   2.841  22.060  0.00  0.00    +0.000 OA
BRANCH  14  16
ATOM     16  O   UNL     1       2.393   4.884  21.483  0.00  0.00    +0.000 OA
ATOM     17  H   UNL     1       2.776   4.969  22.377  0.00  0.00    +0.000 HD
ENDBRANCH  14  16
ENDBRANCH   3  14
TORSDOF 3
ENDMDL
MODEL 3
REMARK VINA RESULT:      -7.3      0.710      1.077
REMARK  Name = 
REMARK  4 active torsions:
REMARK  status: ('A' for Active; 'I' for Inactive)
REMARK    1  A    between atoms: C_1  and  C_2
REMARK    2  A    between atoms: C_6  and  N_7
REMARK    3  A    between atoms: C_9  and  C_10
REMARK    4  A    between atoms: C_10  and  O_12
REMARK                            x       y       z     vdW  Elec       q    Type
REMARK                         _______ _______ _______ _____ _____    ______ ____
ROOT
ATOM      1  N   UNL     1       3.336   3.465  18.002  0.00  0.00    +0.000 N 
ATOM      2  C   UNL     1       2.177   4.330  18.008  0.00  0.00    +0.000 C 
ATOM      3  C   UNL     1       1.142   3.588  18.836  0.00  0.00    +0.000 C 
ATOM      4  C   UNL     1       1.508   2.127  18.641  0.00  0.00    +0.000 C 
ATOM      5  C   UNL     1       2.988   2.158  18.347  0.00  0.00    +0.000 C 
ATOM      6  O   UNL     1       3.672   1.145  18.364  0.00  0.00    +0.000 OA
ENDROOT
BRANCH   1  12
ATOM      7  C   UNL     1       6.631   4.354  14.384  0.00  0.00    +0.000 C 
ATOM      8  C   UNL     1       6.271   4.363  15.841  0.00  0.00    +0.000 A 
ATOM      9  C   UNL     1       7.185   4.800  16.802  0.00  0.00    +0.000 A 
ATOM     10  C   UNL     1       6.828   4.807  18.146  0.00  0.00    +0.000 A 
ATOM     11  C   UNL     1       5.561   4.368  18.542  0.00  0.00    +0.000 A 
ATOM     12  C   UNL     1       4.625   3.915  17.605  0.00  0.00    +0.000 A 
ATOM     13  C   UNL     1       4.999   3.928  16.251  0.00  0.00    +0.000 A 
ENDBRANCH   1  12
BRANCH   3  14
ATOM     14  C   UNL     1       1.189   3.983  20.298  0.00  0.00    +0.000 C 
ATOM     15  O   UNL     1       1.486   5.090  20.717  0.00  0.00    +0.000 OA
BRANCH  14  16
ATOM     16  O   UNL     1       0.807   2.988  21.131  0.00  0.00    +0.000 OA
ATOM     17  H   UNL     1       0.348   2.236  20.711  0.00  0.00    +0.000 HD
ENDBRANCH  14  16
ENDBRANCH   3  14
TORSDOF 3
ENDMDL
MODEL 4
REMARK VINA RESULT:      -7.3      0.866      2.128
REMARK  Name = 
REMARK  4 active torsions:
REMARK  status: ('A' for Active; 'I' for Inactive)
REMARK    1  A    between atoms: C_1  and  C_2
REMARK    2  A    between atoms: C_6  and  N_7
REMARK    3  A    between atoms: C_9  and  C_10
REMARK    4  A    between atoms: C_10  and  O_12
REMARK                            x       y       z     vdW  Elec       q    Type
REMARK                         _______ _______ _______ _____ _____    ______ ____
ROOT
ATOM      1  N   UNL     1       3.382   3.521  17.987  0.00  0.00    +0.000 N 
ATOM      2  C   UNL     1       2.222   4.383  17.967  0.00  0.00    +0.000 C 
ATOM      3  C   UNL     1       1.167   3.635  18.765  0.00  0.00    +0.000 C 
ATOM      4  C   UNL     1       1.542   2.176  18.575  0.00  0.00    +0.000 C 
ATOM      5  C   UNL     1       3.029   2.211  18.318  0.00  0.00    +0.000 C 
ATOM      6  O   UNL     1       3.715   1.200  18.349  0.00  0.00    +0.000 OA
ENDROOT
BRANCH   1  12
ATOM      7  C   UNL     1       7.672   5.684  19.274  0.00  0.00    +0.000 C 
ATOM      8  C   UNL     1       6.806   5.040  18.231  0.00  0.00    +0.000 A 
ATOM      9  C   UNL     1       7.258   4.890  16.919  0.00  0.00    +0.000 A 
ATOM     10  C   UNL     1       6.443   4.283  15.969  0.00  0.00    +0.000 A 
ATOM     11  C   UNL     1       5.167   3.832  16.320  0.00  0.00    +0.000 A 
ATOM     12  C   UNL     1       4.680   3.976  17.625  0.00  0.00    +0.000 A 
ATOM     13  C   UNL     1       5.523   4.578  18.573  0.00  0.00    +0.000 A 
ENDBRANCH   1  12
BRANCH   3  14
ATOM     14  C   UNL     1       1.177   4.024  20.230  0.00  0.00    +0.000 C 
ATOM     15  O   UNL     1       1.458   5.131  20.660  0.00  0.00    +0.000 OA
BRANCH  14  16
ATOM     16  O   UNL     1       0.778   3.025  21.049  0.00  0.00    +0.000 OA
ATOM     17  H   UNL     1       1.395   2.795  21.770  0.00  0.00    +0.000 HD
ENDBRANCH  14  16
ENDBRANCH   3  14
TORSDOF 3
ENDMDL
MODEL 5
REMARK VINA RESULT:      -7.2      1.161      1.269
REMARK  Name = 
REMARK  4 active torsions:
REMARK  status: ('A' for Active; 'I' for Inactive)
REMARK    1  A    between atoms: C_1  and  C_2
REMARK    2  A    between atoms: C_6  and  N_7
REMARK    3  A    between atoms: C_9  and  C_10
REMARK    4  A    between atoms: C_10  and  O_12
REMARK                            x       y       z     vdW  Elec       q    Type
REMARK                         _______ _______ _______ _____ _____    ______ ____
ROOT
ATOM      1  N   UNL     1       2.814   3.813  18.273  0.00  0.00    +0.000 N 
ATOM      2  C   UNL     1       1.667   4.413  18.916  0.00  0.00    +0.000 C 
ATOM      3  C   UNL     1       1.231   3.399  19.960  0.00  0.00    +0.000 C 
ATOM      4  C   UNL     1       1.682   2.071  19.379  0.00  0.00    +0.000 C 
ATOM      5  C   UNL     1       2.853   2.436  18.499  0.00  0.00    +0.000 C 
ATOM      6  O   UNL     1       3.613   1.590  18.051  0.00  0.00    +0.000 OA
ENDROOT
BRANCH   1  12
ATOM      7  C   UNL     1       6.161   3.922  14.595  0.00  0.00    +0.000 C 
ATOM      8  C   UNL     1       5.364   4.640  15.645  0.00  0.00    +0.000 A 
ATOM      9  C   UNL     1       5.497   6.017  15.828  0.00  0.00    +0.000 A 
ATOM     10  C   UNL     1       4.744   6.665  16.802  0.00  0.00    +0.000 A 
ATOM     11  C   UNL     1       3.860   5.940  17.606  0.00  0.00    +0.000 A 
ATOM     12  C   UNL     1       3.710   4.556  17.455  0.00  0.00    +0.000 A 
ATOM     13  C   UNL     1       4.469   3.923  16.457  0.00  0.00    +0.000 A 
ENDBRANCH   1  12
BRANCH   3  14
ATOM     14  C   UNL     1       1.867   3.660  21.311  0.00  0.00    +0.000 C 
ATOM     15  O   UNL     1       1.945   2.847  22.217  0.00  0.00    +0.000 OA
BRANCH  14  16
ATOM     16  O   UNL     1       2.412   4.894  21.414  0.00  0.00    +0.000 OA
ATOM     17  H   UNL     1       3.263   4.943  21.887  0.00  0.00    +0.000 HD
ENDBRANCH  14  16
ENDBRANCH   3  14
TORSDOF 3
ENDMDL
MODEL 6
REMARK VINA RESULT:      -7.1      2.818      5.501
REMARK  Name = 
REMARK  4 active torsions:
REMARK  status: ('A' for Active; 'I' for Inactive)
REMARK    1  A    between atoms: C_1  and  C_2
REMARK    2  A    between atoms: C_6  and  N_7
REMARK    3  A    between atoms: C_9  and  C_10
REMARK    4  A    between atoms: C_10  and  O_12
REMARK                            x       y       z     vdW  Elec       q    Type
REMARK                         _______ _______ _______ _____ _____    ______ ____
ROOT
ATOM      1  N   UNL     1       4.956   4.909  17.964  0.00  0.00    +0.000 N 
ATOM      2  C   UNL     1       6.306   4.451  17.730  0.00  0.00    +0.000 C 
ATOM      3  C   UNL     1       7.147   5.715  17.695  0.00  0.00    +0.000 C 
ATOM      4  C   UNL     1       6.175   6.778  17.215  0.00  0.00    +0.000 C 
ATOM      5  C   UNL     1       4.826   6.265  17.656  0.00  0.00    +0.000 C 
ATOM      6  O   UNL     1       3.830   6.973  17.645  0.00  0.00    +0.000 OA
ENDROOT
BRANCH   1  12
ATOM      7  C   UNL     1       2.048   3.113  21.578  0.00  0.00    +0.000 C 
ATOM      8  C   UNL     1       2.462   3.131  20.135  0.00  0.00    +0.000 A 
ATOM      9  C   UNL     1       1.839   2.303  19.200  0.00  0.00    +0.000 A 
ATOM     10  C   UNL     1       2.233   2.341  17.867  0.00  0.00    +0.000 A 
ATOM     11  C   UNL     1       3.258   3.200  17.459  0.00  0.00    +0.000 A 
ATOM     12  C   UNL     1       3.910   4.036  18.373  0.00  0.00    +0.000 A 
ATOM     13  C   UNL     1       3.489   3.993  19.712  0.00  0.00    +0.000 A 
ENDBRANCH   1  12
BRANCH   3  14
ATOM     14  C   UNL     1       7.719   6.058  19.056  0.00  0.00    +0.000 C 
ATOM     15  O   UNL     1       7.544   5.409  20.074  0.00  0.00    +0.000 OA
BRANCH  14  16
ATOM     16  O   UNL     1       8.517   7.151  19.039  0.00  0.00    +0.000 OA
ATOM     17  H   UNL     1       8.138   7.958  19.435  0.00  0.00    +0.000 HD
ENDBRANCH  14  16
ENDBRANCH   3  14
TORSDOF 3
ENDMDL
MODEL 7
REMARK VINA RESULT:      -7.1      1.859      2.206
REMARK  Name = 
REMARK  4 active torsions:
REMARK  status: ('A' for Active; 'I' for Inactive)
REMARK    1  A    between atoms: C_1  and  C_2
REMARK    2  A    between atoms: C_6  and  N_7
REMARK    3  A    between atoms: C_9  and  C_10
REMARK    4  A    between atoms: C_10  and  O_12
REMARK                            x       y       z     vdW  Elec       q    Type
REMARK                         _______ _______ _______ _____ _____    ______ ____
ROOT
ATOM      1  N   UNL     1       2.674   4.758  18.801  0.00  0.00    +0.000 N 
ATOM      2  C   UNL     1       2.794   5.068  20.208  0.00  0.00    +0.000 C 
ATOM      3  C   UNL     1       1.841   4.109  20.902  0.00  0.00    +0.000 C 
ATOM      4  C   UNL     1       0.777   3.841  19.852  0.00  0.00    +0.000 C 
ATOM      5  C   UNL     1       1.494   4.056  18.542  0.00  0.00    +0.000 C 
ATOM      6  O   UNL     1       1.013   3.703  17.475  0.00  0.00    +0.000 OA
ENDROOT
BRANCH   1  12
ATOM      7  C   UNL     1       5.982   3.701  15.240  0.00  0.00    +0.000 C 
ATOM      8  C   UNL     1       5.254   4.714  16.075  0.00  0.00    +0.000 A 
ATOM      9  C   UNL     1       5.495   6.080  15.915  0.00  0.00    +0.000 A 
ATOM     10  C   UNL     1       4.803   7.003  16.693  0.00  0.00    +0.000 A 
ATOM     11  C   UNL     1       3.874   6.568  17.643  0.00  0.00    +0.000 A 
ATOM     12  C   UNL     1       3.616   5.206  17.835  0.00  0.00    +0.000 A 
ATOM     13  C   UNL     1       4.314   4.290  17.030  0.00  0.00    +0.000 A 
ENDBRANCH   1  12
BRANCH   3  14
ATOM     14  C   UNL     1       2.531   2.831  21.335  0.00  0.00    +0.000 C 
ATOM     15  O   UNL     1       3.617   2.450  20.932  0.00  0.00    +0.000 OA
BRANCH  14  16
ATOM     16  O   UNL     1       1.845   2.150  22.281  0.00  0.00    +0.000 OA
ATOM     17  H   UNL     1       1.714   1.199  22.108  0.00  0.00    +0.000 HD
ENDBRANCH  14  16
ENDBRANCH   3  14
TORSDOF 3
ENDMDL
MODEL 8
REMARK VINA RESULT:      -7.0      1.484      2.413
REMARK  Name = 
REMARK  4 active torsions:
REMARK  status: ('A' for Active; 'I' for Inactive)
REMARK    1  A    between atoms: C_1  and  C_2
REMARK    2  A    between atoms: C_6  and  N_7
REMARK    3  A    between atoms: C_9  and  C_10
REMARK    4  A    between atoms: C_10  and  O_12
REMARK                            x       y       z     vdW  Elec       q    Type
REMARK                         _______ _______ _______ _____ _____    ______ ____
ROOT
ATOM      1  N   UNL     1       3.814   4.277  18.744  0.00  0.00    +0.000 N 
ATOM      2  C   UNL     1       3.635   3.206  19.698  0.00  0.00    +0.000 C 
ATOM      3  C   UNL     1       2.150   3.210  20.014  0.00  0.00    +0.000 C 
ATOM      4  C   UNL     1       1.740   4.655  19.790  0.00  0.00    +0.000 C 
ATOM      5  C   UNL     1       2.736   5.164  18.777  0.00  0.00    +0.000 C 
ATOM      6  O   UNL     1       2.574   6.221  18.186  0.00  0.00    +0.000 OA
ENDROOT
BRANCH   1  12
ATOM      7  C   UNL     1       6.067   3.966  14.320  0.00  0.00    +0.000 C 
ATOM      8  C   UNL     1       6.130   4.269  15.789  0.00  0.00    +0.000 A 
ATOM      9  C   UNL     1       7.324   4.676  16.386  0.00  0.00    +0.000 A 
ATOM     10  C   UNL     1       7.358   4.960  17.747  0.00  0.00    +0.000 A 
ATOM     11  C   UNL     1       6.203   4.830  18.524  0.00  0.00    +0.000 A 
ATOM     12  C   UNL     1       4.992   4.415  17.958  0.00  0.00    +0.000 A 
ATOM     13  C   UNL     1       4.974   4.146  16.579  0.00  0.00    +0.000 A 
ENDBRANCH   1  12
BRANCH   3  14
ATOM     14  C   UNL     1       1.372   2.266  19.119  0.00  0.00    +0.000 C 
ATOM     15  O   UNL     1       0.178   2.349  18.882  0.00  0.00    +0.000 OA
BRANCH  14  16
ATOM     16  O   UNL     1       2.148   1.324  18.537  0.00  0.00    +0.000 OA
ATOM     17  H   UNL     1       1.745   0.846  17.787  0.00  0.00    +0.000 HD
ENDBRANCH  14  16
ENDBRANCH   3  14
TORSDOF 3
ENDMDL
MODEL 9
REMARK VINA RESULT:      -7.0      3.015      5.518
REMARK  Name = 
REMARK  4 active torsions:
REMARK  status: ('A' for Active; 'I' for Inactive)
REMARK    1  A    between atoms: C_1  and  C_2
REMARK    2  A    between atoms: C_6  and  N_7
REMARK    3  A    between atoms: C_9  and  C_10
REMARK    4  A    between atoms: C_10  and  O_12
REMARK                            x       y       z     vdW  Elec       q    Type
REMARK                         _______ _______ _______ _____ _____    ______ ____
ROOT
ATOM      1  N   UNL     1       4.811   5.208  18.240  0.00  0.00    +0.000 N 
ATOM      2  C   UNL     1       5.994   4.396  18.409  0.00  0.00    +0.000 C 
ATOM      3  C   UNL     1       7.130   5.242  17.860  0.00  0.00    +0.000 C 
ATOM      4  C   UNL     1       6.452   6.117  16.820  0.00  0.00    +0.000 C 
ATOM      5  C   UNL     1       5.026   6.219  17.301  0.00  0.00    +0.000 C 
ATOM      6  O   UNL     1       4.243   7.035  16.838  0.00  0.00    +0.000 OA
ENDROOT
BRANCH   1  12
ATOM      7  C   UNL     1       0.811   2.299  18.772  0.00  0.00    +0.000 C 
ATOM      8  C   UNL     1       1.601   3.506  19.186  0.00  0.00    +0.000 A 
ATOM      9  C   UNL     1       1.144   4.346  20.203  0.00  0.00    +0.000 A 
ATOM     10  C   UNL     1       1.896   5.455  20.578  0.00  0.00    +0.000 A 
ATOM     11  C   UNL     1       3.103   5.739  19.932  0.00  0.00    +0.000 A 
ATOM     12  C   UNL     1       3.585   4.922  18.902  0.00  0.00    +0.000 A 
ATOM     13  C   UNL     1       2.819   3.799  18.548  0.00  0.00    +0.000 A 
ENDBRANCH   1  12
BRANCH   3  14
ATOM     14  C   UNL     1       7.796   6.074  18.937  0.00  0.00    +0.000 C 
ATOM     15  O   UNL     1       8.305   7.169  18.763  0.00  0.00    +0.000 OA
BRANCH  14  16
ATOM     16  O   UNL     1       7.729   5.508  20.164  0.00  0.00    +0.000 OA
ATOM     17  H   UNL     1       7.509   6.112  20.898  0.00  0.00    +0.000 HD
ENDBRANCH  14  16
ENDBRANCH   3  14
TORSDOF 3
ENDMDL
