MODEL 1
REMARK VINA RESULT:      -7.8      0.000      0.000
REMARK  Name = 
REMARK  6 active torsions:
REMARK  status: ('A' for Active; 'I' for Inactive)
REMARK    1  A    between atoms: C_1  and  C_2
REMARK    2  A    between atoms: C_4  and  C_5
REMARK    3  A    between atoms: C_13  and  C_14
REMARK    4  A    between atoms: N_16  and  C_17
REMARK    5  A    between atoms: N_20  and  C_21
REMARK    6  A    between atoms: C_21  and  C_22
REMARK                            x       y       z     vdW  Elec       q    Type
REMARK                         _______ _______ _______ _____ _____    ______ ____
ROOT
ATOM      1  C   UNL     1       2.030   6.447  20.211  0.00  0.00    +0.000 C 
ATOM      2  O   UNL     1       1.276   5.971  21.061  0.00  0.00    +0.000 OA
ATOM      3  N   UNL     1       2.096   7.819  20.023  0.00  0.00    +0.000 N 
ATOM      4  H   UNL     1       2.506   8.190  19.175  0.00  0.00    +0.000 HD
ENDROOT
BRANCH   1  10
ATOM      5  C   UNL     1       2.650   3.133  20.440  0.00  0.00    +0.000 C 
ATOM      6  C   UNL     1       3.100   4.184  19.500  0.00  0.00    +0.000 A 
ATOM      7  N   UNL     1       3.931   3.856  18.444  0.00  0.00    +0.000 N 
ATOM      8  C   UNL     1       4.276   4.966  17.710  0.00  0.00    +0.000 A 
ATOM      9  C   UNL     1       3.635   6.026  18.316  0.00  0.00    +0.000 A 
ATOM     10  C   UNL     1       2.859   5.552  19.425  0.00  0.00    +0.000 A 
ATOM     11  H   UNL     1       4.271   2.923  18.251  0.00  0.00    +0.000 HD
BRANCH   8  12
ATOM     12  C   UNL     1       5.167   4.935  16.550  0.00  0.00    +0.000 A 
ATOM     13  C   UNL     1       4.843   4.181  15.413  0.00  0.00    +0.000 A 
ATOM     14  C   UNL     1       5.703   4.154  14.312  0.00  0.00    +0.000 A 
ATOM     15  C   UNL     1       6.882   4.883  14.347  0.00  0.00    +0.000 A 
ATOM     16  F   UNL     1       7.707   4.851  13.292  0.00  0.00    +0.000 F 
ATOM     17  C   UNL     1       7.225   5.638  15.458  0.00  0.00    +0.000 A 
ATOM     18  C   UNL     1       6.365   5.666  16.559  0.00  0.00    +0.000 A 
ENDBRANCH   8  12
ENDBRANCH   1  10
BRANCH   3  19
ATOM     19  C   UNL     1       1.222   8.634  20.853  0.00  0.00    +0.000 C 
ATOM     20  C   UNL     1       1.700   8.983  22.251  0.00  0.00    +0.000 C 
ATOM     21  C   UNL     1       0.458   9.472  23.021  0.00  0.00    +0.000 C 
ATOM     22  N   UNL     1      -0.222  10.626  22.390  0.00  0.00    +0.000 NA
ATOM     23  C   UNL     1      -0.435  10.447  20.932  0.00  0.00    +0.000 C 
ATOM     24  C   UNL     1       0.787   9.927  20.176  0.00  0.00    +0.000 C 
BRANCH  22  25
ATOM     25  C   UNL     1      -1.540  10.842  23.044  0.00  0.00    +0.000 C 
BRANCH  25  26
ATOM     26  C   UNL     1      -1.968  12.296  23.177  0.00  0.00    +0.000 A 
ATOM     27  C   UNL     1      -3.319  12.638  23.341  0.00  0.00    +0.000 A 
ATOM     28  C   UNL     1      -3.701  13.977  23.485  0.00  0.00    +0.000 A 
ATOM     29  C   UNL     1      -2.739  14.988  23.501  0.00  0.00    +0.000 A 
ATOM     30  C   UNL     1      -1.395  14.664  23.340  0.00  0.00    +0.000 A 
ATOM     31  C   UNL     1      -1.017  13.328  23.157  0.00  0.00    +0.000 A 
ENDBRANCH  25  26
ENDBRANCH  22  25
ENDBRANCH   3  19
TORSDOF 5
ENDMDL
MODEL 2
REMARK VINA RESULT:      -7.8      3.552     11.277
REMARK  Name = 
REMARK  6 active torsions:
REMARK  status: ('A' for Active; 'I' for Inactive)
REMARK    1  A    between atoms: C_1  and  C_2
REMARK    2  A    between atoms: C_4  and  C_5
REMARK    3  A    between atoms: C_13  and  C_14
REMARK    4  A    between atoms: N_16  and  C_17
REMARK    5  A    between atoms: N_20  and  C_21
REMARK    6  A    between atoms: C_21  and  C_22
REMARK                            x       y       z     vdW  Elec       q    Type
REMARK                         _______ _______ _______ _____ _____    ______ ____
ROOT
ATOM      1  C   UNL     1       3.266   6.592  18.351  0.00  0.00    +0.000 C 
ATOM      2  O   UNL     1       2.998   7.071  17.248  0.00  0.00    +0.000 OA
ATOM      3  N   UNL     1       4.349   5.741  18.500  0.00  0.00    +0.000 N 
ATOM      4  H   UNL     1       4.419   5.155  19.323  0.00  0.00    +0.000 HD
ENDROOT
BRANCH   1  10
ATOM      5  C   UNL     1       2.127   4.794  20.975  0.00  0.00    +0.000 C 
ATOM      6  C   UNL     1       1.988   6.215  20.585  0.00  0.00    +0.000 A 
ATOM      7  N   UNL     1       1.285   7.088  21.397  0.00  0.00    +0.000 N 
ATOM      8  C   UNL     1       1.226   8.347  20.850  0.00  0.00    +0.000 A 
ATOM      9  C   UNL     1       1.921   8.270  19.662  0.00  0.00    +0.000 A 
ATOM     10  C   UNL     1       2.440   6.945  19.491  0.00  0.00    +0.000 A 
ATOM     11  H   UNL     1       0.841   6.828  22.268  0.00  0.00    +0.000 HD
BRANCH   8  12
ATOM     12  C   UNL     1       0.525   9.474  21.466  0.00  0.00    +0.000 A 
ATOM     13  C   UNL     1      -0.265   9.292  22.611  0.00  0.00    +0.000 A 
ATOM     14  C   UNL     1      -0.934  10.374  23.190  0.00  0.00    +0.000 A 
ATOM     15  C   UNL     1      -0.810  11.635  22.627  0.00  0.00    +0.000 A 
ATOM     16  F   UNL     1      -1.457  12.669  23.182  0.00  0.00    +0.000 F 
ATOM     17  C   UNL     1      -0.033  11.843  21.497  0.00  0.00    +0.000 A 
ATOM     18  C   UNL     1       0.637  10.762  20.919  0.00  0.00    +0.000 A 
ENDBRANCH   8  12
ENDBRANCH   1  10
BRANCH   3  19
ATOM     19  C   UNL     1       5.114   5.440  17.298  0.00  0.00    +0.000 C 
ATOM     20  C   UNL     1       6.623   5.586  17.366  0.00  0.00    +0.000 C 
ATOM     21  C   UNL     1       7.118   5.613  15.908  0.00  0.00    +0.000 C 
ATOM     22  N   UNL     1       6.737   4.417  15.123  0.00  0.00    +0.000 NA
ATOM     23  C   UNL     1       5.306   4.054  15.278  0.00  0.00    +0.000 C 
ATOM     24  C   UNL     1       4.807   4.064  16.723  0.00  0.00    +0.000 C 
BRANCH  22  25
ATOM     25  C   UNL     1       7.016   4.659  13.683  0.00  0.00    +0.000 C 
BRANCH  25  26
ATOM     26  C   UNL     1       6.309   3.720  12.717  0.00  0.00    +0.000 A 
ATOM     27  C   UNL     1       4.970   3.932  12.355  0.00  0.00    +0.000 A 
ATOM     28  C   UNL     1       4.335   3.075  11.449  0.00  0.00    +0.000 A 
ATOM     29  C   UNL     1       5.035   2.018  10.866  0.00  0.00    +0.000 A 
ATOM     30  C   UNL     1       6.364   1.796  11.215  0.00  0.00    +0.000 A 
ATOM     31  C   UNL     1       6.988   2.630  12.152  0.00  0.00    +0.000 A 
ENDBRANCH  25  26
ENDBRANCH  22  25
ENDBRANCH   3  19
TORSDOF 5
ENDMDL
MODEL 3
REMARK VINA RESULT:      -7.8      1.302      1.571
REMARK  Name = 
REMARK  6 active torsions:
REMARK  status: ('A' for Active; 'I' for Inactive)
REMARK    1  A    between atoms: C_1  and  C_2
REMARK    2  A    between atoms: C_4  and  C_5
REMARK    3  A    between atoms: C_13  and  C_14
REMARK    4  A    between atoms: N_16  and  C_17
REMARK    5  A    between atoms: N_20  and  C_21
REMARK    6  A    between atoms: C_21  and  C_22
REMARK                            x       y       z     vdW  Elec       q    Type
REMARK                         _______ _______ _______ _____ _____    ______ ____
ROOT
ATOM      1  C   UNL     1       1.589   8.037  20.012  0.00  0.00    +0.000 C 
ATOM      2  O   UNL     1       1.080   8.807  19.196  0.00  0.00    +0.000 OA
ATOM      3  N   UNL     1       1.376   8.215  21.370  0.00  0.00    +0.000 N 
ATOM      4  H   UNL     1       1.984   7.757  22.038  0.00  0.00    +0.000 HD
ENDROOT
BRANCH   1  10
ATOM      5  C   UNL     1       1.929   4.840  21.050  0.00  0.00    +0.000 C 
ATOM      6  C   UNL     1       2.527   5.611  19.938  0.00  0.00    +0.000 A 
ATOM      7  N   UNL     1       3.405   4.995  19.063  0.00  0.00    +0.000 N 
ATOM      8  C   UNL     1       3.888   5.880  18.128  0.00  0.00    +0.000 A 
ATOM      9  C   UNL     1       3.289   7.088  18.414  0.00  0.00    +0.000 A 
ATOM     10  C   UNL     1       2.400   6.935  19.529  0.00  0.00    +0.000 A 
ATOM     11  H   UNL     1       3.684   4.025  19.121  0.00  0.00    +0.000 HD
BRANCH   8  12
ATOM     12  C   UNL     1       4.856   5.524  17.090  0.00  0.00    +0.000 A 
ATOM     13  C   UNL     1       4.662   4.396  16.279  0.00  0.00    +0.000 A 
ATOM     14  C   UNL     1       5.594   4.062  15.294  0.00  0.00    +0.000 A 
ATOM     15  C   UNL     1       6.717   4.857  15.118  0.00  0.00    +0.000 A 
ATOM     16  F   UNL     1       7.612   4.531  14.175  0.00  0.00    +0.000 F 
ATOM     17  C   UNL     1       6.932   5.979  15.904  0.00  0.00    +0.000 A 
ATOM     18  C   UNL     1       5.999   6.314  16.889  0.00  0.00    +0.000 A 
ENDBRANCH   8  12
ENDBRANCH   1  10
BRANCH   3  19
ATOM     19  C   UNL     1       0.555   9.352  21.759  0.00  0.00    +0.000 C 
ATOM     20  C   UNL     1       0.100   9.432  23.205  0.00  0.00    +0.000 C 
ATOM     21  C   UNL     1      -1.048  10.460  23.238  0.00  0.00    +0.000 C 
ATOM     22  N   UNL     1      -0.671  11.796  22.726  0.00  0.00    +0.000 NA
ATOM     23  C   UNL     1       0.062  11.738  21.437  0.00  0.00    +0.000 C 
ATOM     24  C   UNL     1       1.177  10.692  21.394  0.00  0.00    +0.000 C 
BRANCH  22  25
ATOM     25  C   UNL     1      -1.895  12.621  22.543  0.00  0.00    +0.000 C 
BRANCH  25  26
ATOM     26  C   UNL     1      -2.049  13.780  23.516  0.00  0.00    +0.000 A 
ATOM     27  C   UNL     1      -3.276  14.033  24.149  0.00  0.00    +0.000 A 
ATOM     28  C   UNL     1      -3.402  15.088  25.059  0.00  0.00    +0.000 A 
ATOM     29  C   UNL     1      -2.300  15.884  25.376  0.00  0.00    +0.000 A 
ATOM     30  C   UNL     1      -1.077  15.645  24.757  0.00  0.00    +0.000 A 
ATOM     31  C   UNL     1      -0.961  14.613  23.816  0.00  0.00    +0.000 A 
ENDBRANCH  25  26
ENDBRANCH  22  25
ENDBRANCH   3  19
TORSDOF 5
ENDMDL
MODEL 4
REMARK VINA RESULT:      -7.8      1.293      1.996
REMARK  Name = 
REMARK  6 active torsions:
REMARK  status: ('A' for Active; 'I' for Inactive)
REMARK    1  A    between atoms: C_1  and  C_2
REMARK    2  A    between atoms: C_4  and  C_5
REMARK    3  A    between atoms: C_13  and  C_14
REMARK    4  A    between atoms: N_16  and  C_17
REMARK    5  A    between atoms: N_20  and  C_21
REMARK    6  A    between atoms: C_21  and  C_22
REMARK                            x       y       z     vdW  Elec       q    Type
REMARK                         _______ _______ _______ _____ _____    ______ ____
ROOT
ATOM      1  C   UNL     1       1.618   8.026  20.015  0.00  0.00    +0.000 C 
ATOM      2  O   UNL     1       1.099   8.778  19.188  0.00  0.00    +0.000 OA
ATOM      3  N   UNL     1       1.405   8.222  21.371  0.00  0.00    +0.000 N 
ATOM      4  H   UNL     1       2.019   7.782  22.045  0.00  0.00    +0.000 HD
ENDROOT
BRANCH   1  10
ATOM      5  C   UNL     1       1.959   4.835  21.073  0.00  0.00    +0.000 C 
ATOM      6  C   UNL     1       2.568   5.604  19.965  0.00  0.00    +0.000 A 
ATOM      7  N   UNL     1       3.459   4.988  19.105  0.00  0.00    +0.000 N 
ATOM      8  C   UNL     1       3.950   5.870  18.171  0.00  0.00    +0.000 A 
ATOM      9  C   UNL     1       3.343   7.077  18.444  0.00  0.00    +0.000 A 
ATOM     10  C   UNL     1       2.440   6.925  19.548  0.00  0.00    +0.000 A 
ATOM     11  H   UNL     1       3.742   4.019  19.171  0.00  0.00    +0.000 HD
BRANCH   8  12
ATOM     12  C   UNL     1       4.933   5.513  17.148  0.00  0.00    +0.000 A 
ATOM     13  C   UNL     1       6.144   6.213  17.037  0.00  0.00    +0.000 A 
ATOM     14  C   UNL     1       7.075   5.868  16.053  0.00  0.00    +0.000 A 
ATOM     15  C   UNL     1       6.796   4.823  15.185  0.00  0.00    +0.000 A 
ATOM     16  F   UNL     1       7.688   4.498  14.239  0.00  0.00    +0.000 F 
ATOM     17  C   UNL     1       5.608   4.114  15.274  0.00  0.00    +0.000 A 
ATOM     18  C   UNL     1       4.678   4.458  16.259  0.00  0.00    +0.000 A 
ENDBRANCH   8  12
ENDBRANCH   1  10
BRANCH   3  19
ATOM     19  C   UNL     1       0.573   9.357  21.743  0.00  0.00    +0.000 C 
ATOM     20  C   UNL     1       0.100   9.443  23.183  0.00  0.00    +0.000 C 
ATOM     21  C   UNL     1      -1.054  10.463  23.196  0.00  0.00    +0.000 C 
ATOM     22  N   UNL     1      -0.679  11.799  22.682  0.00  0.00    +0.000 NA
ATOM     23  C   UNL     1       0.070  11.738  21.402  0.00  0.00    +0.000 C 
ATOM     24  C   UNL     1       1.192  10.699  21.378  0.00  0.00    +0.000 C 
BRANCH  22  25
ATOM     25  C   UNL     1      -1.905  12.615  22.479  0.00  0.00    +0.000 C 
BRANCH  25  26
ATOM     26  C   UNL     1      -2.118  13.731  23.491  0.00  0.00    +0.000 A 
ATOM     27  C   UNL     1      -1.042  14.509  23.944  0.00  0.00    +0.000 A 
ATOM     28  C   UNL     1      -1.251  15.548  24.858  0.00  0.00    +0.000 A 
ATOM     29  C   UNL     1      -2.538  15.847  25.307  0.00  0.00    +0.000 A 
ATOM     30  C   UNL     1      -3.616  15.083  24.866  0.00  0.00    +0.000 A 
ATOM     31  C   UNL     1      -3.401  14.019  23.981  0.00  0.00    +0.000 A 
ENDBRANCH  25  26
ENDBRANCH  22  25
ENDBRANCH   3  19
TORSDOF 5
ENDMDL
MODEL 5
REMARK VINA RESULT:      -7.7      0.478      1.014
REMARK  Name = 
REMARK  6 active torsions:
REMARK  status: ('A' for Active; 'I' for Inactive)
REMARK    1  A    between atoms: C_1  and  C_2
REMARK    2  A    between atoms: C_4  and  C_5
REMARK    3  A    between atoms: C_13  and  C_14
REMARK    4  A    between atoms: N_16  and  C_17
REMARK    5  A    between atoms: N_20  and  C_21
REMARK    6  A    between atoms: C_21  and  C_22
REMARK                            x       y       z     vdW  Elec       q    Type
REMARK                         _______ _______ _______ _____ _____    ______ ____
ROOT
ATOM      1  C   UNL     1       1.768   6.558  20.145  0.00  0.00    +0.000 C 
ATOM      2  O   UNL     1       1.130   6.099  21.094  0.00  0.00    +0.000 OA
ATOM      3  N   UNL     1       1.791   7.924  19.912  0.00  0.00    +0.000 N 
ATOM      4  H   UNL     1       2.089   8.276  19.010  0.00  0.00    +0.000 HD
ENDROOT
BRANCH   1  10
ATOM      5  C   UNL     1       1.641   3.206  19.744  0.00  0.00    +0.000 C 
ATOM      6  C   UNL     1       2.441   4.272  19.101  0.00  0.00    +0.000 A 
ATOM      7  N   UNL     1       3.340   3.952  18.099  0.00  0.00    +0.000 N 
ATOM      8  C   UNL     1       4.019   5.063  17.658  0.00  0.00    +0.000 A 
ATOM      9  C   UNL     1       3.526   6.118  18.396  0.00  0.00    +0.000 A 
ATOM     10  C   UNL     1       2.505   5.649  19.286  0.00  0.00    +0.000 A 
ATOM     11  H   UNL     1       3.505   3.015  17.756  0.00  0.00    +0.000 HD
BRANCH   8  12
ATOM     12  C   UNL     1       5.055   5.031  16.625  0.00  0.00    +0.000 A 
ATOM     13  C   UNL     1       6.203   5.829  16.730  0.00  0.00    +0.000 A 
ATOM     14  C   UNL     1       7.184   5.795  15.737  0.00  0.00    +0.000 A 
ATOM     15  C   UNL     1       7.019   4.961  14.641  0.00  0.00    +0.000 A 
ATOM     16  F   UNL     1       7.959   4.935  13.687  0.00  0.00    +0.000 F 
ATOM     17  C   UNL     1       5.894   4.160  14.513  0.00  0.00    +0.000 A 
ATOM     18  C   UNL     1       4.914   4.193  15.508  0.00  0.00    +0.000 A 
ENDBRANCH   8  12
ENDBRANCH   1  10
BRANCH   3  19
ATOM     19  C   UNL     1       1.015   8.755  20.821  0.00  0.00    +0.000 C 
ATOM     20  C   UNL     1       1.574   8.990  22.213  0.00  0.00    +0.000 C 
ATOM     21  C   UNL     1       0.405   9.526  23.061  0.00  0.00    +0.000 C 
ATOM     22  N   UNL     1      -0.210  10.760  22.522  0.00  0.00    +0.000 NA
ATOM     23  C   UNL     1      -0.495  10.678  21.067  0.00  0.00    +0.000 C 
ATOM     24  C   UNL     1       0.653  10.111  20.232  0.00  0.00    +0.000 C 
BRANCH  22  25
ATOM     25  C   UNL     1      -1.481  11.036  23.243  0.00  0.00    +0.000 C 
BRANCH  25  26
ATOM     26  C   UNL     1      -2.043  12.438  23.056  0.00  0.00    +0.000 A 
ATOM     27  C   UNL     1      -3.366  12.634  22.632  0.00  0.00    +0.000 A 
ATOM     28  C   UNL     1      -3.880  13.927  22.484  0.00  0.00    +0.000 A 
ATOM     29  C   UNL     1      -3.095  15.040  22.789  0.00  0.00    +0.000 A 
ATOM     30  C   UNL     1      -1.781  14.860  23.212  0.00  0.00    +0.000 A 
ATOM     31  C   UNL     1      -1.254  13.567  23.322  0.00  0.00    +0.000 A 
ENDBRANCH  25  26
ENDBRANCH  22  25
ENDBRANCH   3  19
TORSDOF 5
ENDMDL
MODEL 6
REMARK VINA RESULT:      -7.7      1.321      1.986
REMARK  Name = 
REMARK  6 active torsions:
REMARK  status: ('A' for Active; 'I' for Inactive)
REMARK    1  A    between atoms: C_1  and  C_2
REMARK    2  A    between atoms: C_4  and  C_5
REMARK    3  A    between atoms: C_13  and  C_14
REMARK    4  A    between atoms: N_16  and  C_17
REMARK    5  A    between atoms: N_20  and  C_21
REMARK    6  A    between atoms: C_21  and  C_22
REMARK                            x       y       z     vdW  Elec       q    Type
REMARK                         _______ _______ _______ _____ _____    ______ ____
ROOT
ATOM      1  C   UNL     1       1.786   8.058  19.770  0.00  0.00    +0.000 C 
ATOM      2  O   UNL     1       1.805   9.093  19.102  0.00  0.00    +0.000 OA
ATOM      3  N   UNL     1       1.082   8.007  20.963  0.00  0.00    +0.000 N 
ATOM      4  H   UNL     1       1.271   7.265  21.627  0.00  0.00    +0.000 HD
ENDROOT
BRANCH   1  10
ATOM      5  C   UNL     1       2.080   4.910  20.962  0.00  0.00    +0.000 C 
ATOM      6  C   UNL     1       2.604   5.588  19.755  0.00  0.00    +0.000 A 
ATOM      7  N   UNL     1       3.367   4.881  18.843  0.00  0.00    +0.000 N 
ATOM      8  C   UNL     1       3.799   5.687  17.816  0.00  0.00    +0.000 A 
ATOM      9  C   UNL     1       3.285   6.938  18.084  0.00  0.00    +0.000 A 
ATOM     10  C   UNL     1       2.498   6.891  19.282  0.00  0.00    +0.000 A 
ATOM     11  H   UNL     1       3.608   3.903  18.933  0.00  0.00    +0.000 HD
BRANCH   8  12
ATOM     12  C   UNL     1       4.649   5.227  16.718  0.00  0.00    +0.000 A 
ATOM     13  C   UNL     1       5.212   6.137  15.812  0.00  0.00    +0.000 A 
ATOM     14  C   UNL     1       6.019   5.688  14.763  0.00  0.00    +0.000 A 
ATOM     15  C   UNL     1       6.264   4.330  14.623  0.00  0.00    +0.000 A 
ATOM     16  F   UNL     1       7.034   3.901  13.614  0.00  0.00    +0.000 F 
ATOM     17  C   UNL     1       5.722   3.408  15.507  0.00  0.00    +0.000 A 
ATOM     18  C   UNL     1       4.916   3.858  16.556  0.00  0.00    +0.000 A 
ENDBRANCH   8  12
ENDBRANCH   1  10
BRANCH   3  19
ATOM     19  C   UNL     1       0.406   9.228  21.375  0.00  0.00    +0.000 C 
ATOM     20  C   UNL     1      -0.477   9.924  20.354  0.00  0.00    +0.000 C 
ATOM     21  C   UNL     1      -0.719  11.347  20.895  0.00  0.00    +0.000 C 
ATOM     22  N   UNL     1      -1.336  11.380  22.240  0.00  0.00    +0.000 NA
ATOM     23  C   UNL     1      -0.677  10.462  23.203  0.00  0.00    +0.000 C 
ATOM     24  C   UNL     1      -0.405   9.062  22.652  0.00  0.00    +0.000 C 
BRANCH  22  25
ATOM     25  C   UNL     1      -1.274  12.764  22.780  0.00  0.00    +0.000 C 
BRANCH  25  26
ATOM     26  C   UNL     1      -2.620  13.395  23.106  0.00  0.00    +0.000 A 
ATOM     27  C   UNL     1      -3.809  12.878  22.569  0.00  0.00    +0.000 A 
ATOM     28  C   UNL     1      -5.043  13.451  22.892  0.00  0.00    +0.000 A 
ATOM     29  C   UNL     1      -5.113  14.526  23.780  0.00  0.00    +0.000 A 
ATOM     30  C   UNL     1      -3.942  15.050  24.320  0.00  0.00    +0.000 A 
ATOM     31  C   UNL     1      -2.703  14.500  23.966  0.00  0.00    +0.000 A 
ENDBRANCH  25  26
ENDBRANCH  22  25
ENDBRANCH   3  19
TORSDOF 5
ENDMDL
MODEL 7
REMARK VINA RESULT:      -7.6      0.992      1.062
REMARK  Name = 
REMARK  6 active torsions:
REMARK  status: ('A' for Active; 'I' for Inactive)
REMARK    1  A    between atoms: C_1  and  C_2
REMARK    2  A    between atoms: C_4  and  C_5
REMARK    3  A    between atoms: C_13  and  C_14
REMARK    4  A    between atoms: N_16  and  C_17
REMARK    5  A    between atoms: N_20  and  C_21
REMARK    6  A    between atoms: C_21  and  C_22
REMARK                            x       y       z     vdW  Elec       q    Type
REMARK                         _______ _______ _______ _____ _____    ______ ____
ROOT
ATOM      1  C   UNL     1       1.478   6.963  20.575  0.00  0.00    +0.000 C 
ATOM      2  O   UNL     1       0.372   6.592  20.971  0.00  0.00    +0.000 OA
ATOM      3  N   UNL     1       1.894   8.269  20.782  0.00  0.00    +0.000 N 
ATOM      4  H   UNL     1       2.669   8.641  20.246  0.00  0.00    +0.000 HD
ENDROOT
BRANCH   1  10
ATOM      5  C   UNL     1       2.335   3.775  21.295  0.00  0.00    +0.000 C 
ATOM      6  C   UNL     1       2.680   4.689  20.184  0.00  0.00    +0.000 A 
ATOM      7  N   UNL     1       3.498   4.250  19.158  0.00  0.00    +0.000 N 
ATOM      8  C   UNL     1       3.742   5.249  18.245  0.00  0.00    +0.000 A 
ATOM      9  C   UNL     1       3.047   6.349  18.703  0.00  0.00    +0.000 A 
ATOM     10  C   UNL     1       2.342   6.009  19.904  0.00  0.00    +0.000 A 
ATOM     11  H   UNL     1       3.897   3.322  19.100  0.00  0.00    +0.000 HD
BRANCH   8  12
ATOM     12  C   UNL     1       4.596   5.091  17.068  0.00  0.00    +0.000 A 
ATOM     13  C   UNL     1       5.068   3.827  16.685  0.00  0.00    +0.000 A 
ATOM     14  C   UNL     1       5.887   3.686  15.562  0.00  0.00    +0.000 A 
ATOM     15  C   UNL     1       6.230   4.807  14.821  0.00  0.00    +0.000 A 
ATOM     16  F   UNL     1       7.020   4.669  13.747  0.00  0.00    +0.000 F 
ATOM     17  C   UNL     1       5.774   6.068  15.176  0.00  0.00    +0.000 A 
ATOM     18  C   UNL     1       4.954   6.209  16.298  0.00  0.00    +0.000 A 
ENDBRANCH   8  12
ENDBRANCH   1  10
BRANCH   3  19
ATOM     19  C   UNL     1       0.956   9.154  21.456  0.00  0.00    +0.000 C 
ATOM     20  C   UNL     1       1.039   9.250  22.969  0.00  0.00    +0.000 C 
ATOM     21  C   UNL     1      -0.279   9.899  23.432  0.00  0.00    +0.000 C 
ATOM     22  N   UNL     1      -0.538  11.226  22.830  0.00  0.00    +0.000 NA
ATOM     23  C   UNL     1      -0.327  11.248  21.361  0.00  0.00    +0.000 C 
ATOM     24  C   UNL     1       0.965  10.572  20.901  0.00  0.00    +0.000 C 
BRANCH  22  25
ATOM     25  C   UNL     1      -1.938  11.637  23.118  0.00  0.00    +0.000 C 
BRANCH  25  26
ATOM     26  C   UNL     1      -2.217  13.128  22.994  0.00  0.00    +0.000 A 
ATOM     27  C   UNL     1      -3.288  13.599  22.221  0.00  0.00    +0.000 A 
ATOM     28  C   UNL     1      -3.550  14.971  22.130  0.00  0.00    +0.000 A 
ATOM     29  C   UNL     1      -2.769  15.888  22.836  0.00  0.00    +0.000 A 
ATOM     30  C   UNL     1      -1.703  15.434  23.607  0.00  0.00    +0.000 A 
ATOM     31  C   UNL     1      -1.417  14.064  23.666  0.00  0.00    +0.000 A 
ENDBRANCH  25  26
ENDBRANCH  22  25
ENDBRANCH   3  19
TORSDOF 5
ENDMDL
MODEL 8
REMARK VINA RESULT:      -7.6      1.987      2.725
REMARK  Name = 
REMARK  6 active torsions:
REMARK  status: ('A' for Active; 'I' for Inactive)
REMARK    1  A    between atoms: C_1  and  C_2
REMARK    2  A    between atoms: C_4  and  C_5
REMARK    3  A    between atoms: C_13  and  C_14
REMARK    4  A    between atoms: N_16  and  C_17
REMARK    5  A    between atoms: N_20  and  C_21
REMARK    6  A    between atoms: C_21  and  C_22
REMARK                            x       y       z     vdW  Elec       q    Type
REMARK                         _______ _______ _______ _____ _____    ______ ____
ROOT
ATOM      1  C   UNL     1       1.663   8.781  19.377  0.00  0.00    +0.000 C 
ATOM      2  O   UNL     1       1.322   8.996  20.541  0.00  0.00    +0.000 OA
ATOM      3  N   UNL     1       1.445   9.736  18.396  0.00  0.00    +0.000 N 
ATOM      4  H   UNL     1       1.484   9.470  17.419  0.00  0.00    +0.000 HD
ENDROOT
BRANCH   1  10
ATOM      5  C   UNL     1       1.628   5.756  20.881  0.00  0.00    +0.000 C 
ATOM      6  C   UNL     1       2.280   6.269  19.656  0.00  0.00    +0.000 A 
ATOM      7  N   UNL     1       3.040   5.420  18.871  0.00  0.00    +0.000 N 
ATOM      8  C   UNL     1       3.600   6.085  17.806  0.00  0.00    +0.000 A 
ATOM      9  C   UNL     1       3.171   7.390  17.915  0.00  0.00    +0.000 A 
ATOM     10  C   UNL     1       2.309   7.523  19.053  0.00  0.00    +0.000 A 
ATOM     11  H   UNL     1       3.195   4.440  19.071  0.00  0.00    +0.000 HD
BRANCH   8  12
ATOM     12  C   UNL     1       4.478   5.455  16.819  0.00  0.00    +0.000 A 
ATOM     13  C   UNL     1       5.177   6.227  15.880  0.00  0.00    +0.000 A 
ATOM     14  C   UNL     1       6.010   5.617  14.939  0.00  0.00    +0.000 A 
ATOM     15  C   UNL     1       6.145   4.236  14.939  0.00  0.00    +0.000 A 
ATOM     16  F   UNL     1       6.940   3.653  14.032  0.00  0.00    +0.000 F 
ATOM     17  C   UNL     1       5.466   3.450  15.858  0.00  0.00    +0.000 A 
ATOM     18  C   UNL     1       4.635   4.061  16.800  0.00  0.00    +0.000 A 
ENDBRANCH   8  12
ENDBRANCH   1  10
BRANCH   3  19
ATOM     19  C   UNL     1       0.784  10.963  18.815  0.00  0.00    +0.000 C 
ATOM     20  C   UNL     1       1.508  12.274  18.569  0.00  0.00    +0.000 C 
ATOM     21  C   UNL     1       0.805  13.325  19.449  0.00  0.00    +0.000 C 
ATOM     22  N   UNL     1      -0.644  13.462  19.177  0.00  0.00    +0.000 NA
ATOM     23  C   UNL     1      -1.345  12.156  19.104  0.00  0.00    +0.000 C 
ATOM     24  C   UNL     1      -0.627  11.102  18.259  0.00  0.00    +0.000 C 
BRANCH  22  25
ATOM     25  C   UNL     1      -1.273  14.283  20.245  0.00  0.00    +0.000 C 
BRANCH  25  26
ATOM     26  C   UNL     1      -1.870  13.496  21.403  0.00  0.00    +0.000 A 
ATOM     27  C   UNL     1      -3.246  13.545  21.676  0.00  0.00    +0.000 A 
ATOM     28  C   UNL     1      -3.789  12.801  22.729  0.00  0.00    +0.000 A 
ATOM     29  C   UNL     1      -2.974  11.973  23.503  0.00  0.00    +0.000 A 
ATOM     30  C   UNL     1      -1.608  11.914  23.244  0.00  0.00    +0.000 A 
ATOM     31  C   UNL     1      -1.059  12.689  22.215  0.00  0.00    +0.000 A 
ENDBRANCH  25  26
ENDBRANCH  22  25
ENDBRANCH   3  19
TORSDOF 5
ENDMDL
MODEL 9
REMARK VINA RESULT:      -7.6      1.967      2.730
REMARK  Name = 
REMARK  6 active torsions:
REMARK  status: ('A' for Active; 'I' for Inactive)
REMARK    1  A    between atoms: C_1  and  C_2
REMARK    2  A    between atoms: C_4  and  C_5
REMARK    3  A    between atoms: C_13  and  C_14
REMARK    4  A    between atoms: N_16  and  C_17
REMARK    5  A    between atoms: N_20  and  C_21
REMARK    6  A    between atoms: C_21  and  C_22
REMARK                            x       y       z     vdW  Elec       q    Type
REMARK                         _______ _______ _______ _____ _____    ______ ____
ROOT
ATOM      1  C   UNL     1       1.665   8.715  19.356  0.00  0.00    +0.000 C 
ATOM      2  O   UNL     1       1.193   8.871  20.484  0.00  0.00    +0.000 OA
ATOM      3  N   UNL     1       1.584   9.730  18.416  0.00  0.00    +0.000 N 
ATOM      4  H   UNL     1       1.732   9.521  17.436  0.00  0.00    +0.000 HD
ENDROOT
BRANCH   1  10
ATOM      5  C   UNL     1       1.679   5.703  20.888  0.00  0.00    +0.000 C 
ATOM      6  C   UNL     1       2.309   6.211  19.649  0.00  0.00    +0.000 A 
ATOM      7  N   UNL     1       3.066   5.362  18.861  0.00  0.00    +0.000 N 
ATOM      8  C   UNL     1       3.604   6.022  17.781  0.00  0.00    +0.000 A 
ATOM      9  C   UNL     1       3.164   7.325  17.885  0.00  0.00    +0.000 A 
ATOM     10  C   UNL     1       2.318   7.459  19.035  0.00  0.00    +0.000 A 
ATOM     11  H   UNL     1       3.233   4.386  19.067  0.00  0.00    +0.000 HD
BRANCH   8  12
ATOM     12  C   UNL     1       4.473   5.392  16.787  0.00  0.00    +0.000 A 
ATOM     13  C   UNL     1       4.630   3.999  16.747  0.00  0.00    +0.000 A 
ATOM     14  C   UNL     1       5.465   3.406  15.797  0.00  0.00    +0.000 A 
ATOM     15  C   UNL     1       6.140   4.206  14.887  0.00  0.00    +0.000 A 
ATOM     16  F   UNL     1       6.945   3.635  13.980  0.00  0.00    +0.000 F 
ATOM     17  C   UNL     1       6.001   5.585  14.903  0.00  0.00    +0.000 A 
ATOM     18  C   UNL     1       5.164   6.178  15.852  0.00  0.00    +0.000 A 
ENDBRANCH   8  12
ENDBRANCH   1  10
BRANCH   3  19
ATOM     19  C   UNL     1       0.904  10.949  18.829  0.00  0.00    +0.000 C 
ATOM     20  C   UNL     1       1.604  12.271  18.567  0.00  0.00    +0.000 C 
ATOM     21  C   UNL     1       0.888  13.317  19.442  0.00  0.00    +0.000 C 
ATOM     22  N   UNL     1      -0.565  13.425  19.179  0.00  0.00    +0.000 NA
ATOM     23  C   UNL     1      -1.244  12.107  19.122  0.00  0.00    +0.000 C 
ATOM     24  C   UNL     1      -0.513  11.058  18.283  0.00  0.00    +0.000 C 
BRANCH  22  25
ATOM     25  C   UNL     1      -1.201  14.245  20.244  0.00  0.00    +0.000 C 
BRANCH  25  26
ATOM     26  C   UNL     1      -1.867  13.455  21.362  0.00  0.00    +0.000 A 
ATOM     27  C   UNL     1      -1.100  12.780  22.324  0.00  0.00    +0.000 A 
ATOM     28  C   UNL     1      -1.721  12.075  23.361  0.00  0.00    +0.000 A 
ATOM     29  C   UNL     1      -3.112  12.061  23.472  0.00  0.00    +0.000 A 
ATOM     30  C   UNL     1      -3.885  12.726  22.526  0.00  0.00    +0.000 A 
ATOM     31  C   UNL     1      -3.265  13.399  21.466  0.00  0.00    +0.000 A 
ENDBRANCH  25  26
ENDBRANCH  22  25
ENDBRANCH   3  19
TORSDOF 5
ENDMDL
