MODEL 1
REMARK VINA RESULT:      -7.1      0.000      0.000
REMARK  Name = 
REMARK  7 active torsions:
REMARK  status: ('A' for Active; 'I' for Inactive)
REMARK    1  A    between atoms: C_1  and  C_2
REMARK    2  A    between atoms: C_7  and  C_8
REMARK    3  A    between atoms: C_8  and  N_9
REMARK    4  A    between atoms: N_9  and  C_10
REMARK    5  A    between atoms: C_10  and  C_11
REMARK    6  A    between atoms: C_11  and  C_12
REMARK    7  A    between atoms: C_12  and  N_13
REMARK                            x       y       z     vdW  Elec       q    Type
REMARK                         _______ _______ _______ _____ _____    ______ ____
ROOT
ATOM      1  C   UNL     1       7.772   7.954  17.497  0.00  0.00    +0.000 C 
ATOM      2  C   UNL     1       6.795   6.831  17.343  0.00  0.00    +0.000 A 
ATOM      3  C   UNL     1       5.934   6.754  16.239  0.00  0.00    +0.000 A 
ATOM      4  C   UNL     1       5.038   5.692  16.107  0.00  0.00    +0.000 A 
ATOM      5  C   UNL     1       4.977   4.710  17.096  0.00  0.00    +0.000 A 
ATOM      6  C   UNL     1       4.027   3.613  17.017  0.00  0.00    +0.000 A 
ATOM      7  C   UNL     1       3.856   2.768  18.058  0.00  0.00    +0.000 A 
ATOM      8  C   UNL     1       4.658   2.959  19.294  0.00  0.00    +0.000 A 
ATOM      9  O   UNL     1       4.452   2.320  20.320  0.00  0.00    +0.000 OA
ATOM     10  N   UNL     1       5.685   3.876  19.244  0.00  0.00    +0.000 N 
ATOM     11  C   UNL     1       5.819   4.794  18.200  0.00  0.00    +0.000 A 
ATOM     12  C   UNL     1       6.741   5.830  18.321  0.00  0.00    +0.000 A 
ATOM     13  H   UNL     1       6.240   3.970  20.082  0.00  0.00    +0.000 HD
ENDROOT
BRANCH   7  14
ATOM     14  C   UNL     1       2.874   1.631  18.031  0.00  0.00    +0.000 C 
BRANCH  14  15
ATOM     15  N   UNL     1       1.910   1.658  19.146  0.00  0.00    +0.000 NA
ATOM     16  H   UNL     1       2.411   1.792  20.023  0.00  0.00    +0.000 HD
BRANCH  15  17
ATOM     17  C   UNL     1       0.901   2.708  18.975  0.00  0.00    +0.000 C 
BRANCH  17  18
ATOM     18  C   UNL     1       1.140   3.910  19.912  0.00  0.00    +0.000 C 
BRANCH  18  19
ATOM     19  C   UNL     1       1.557   5.123  19.073  0.00  0.00    +0.000 C 
BRANCH  19  20
ATOM     20  N   UNL     1       2.173   6.268  19.718  0.00  0.00    +0.000 NA
ATOM     21  C   UNL     1       1.600   6.802  20.953  0.00  0.00    +0.000 C 
ATOM     22  C   UNL     1       0.902   8.177  20.847  0.00  0.00    +0.000 C 
ATOM     23  O   UNL     1       1.583   9.096  19.982  0.00  0.00    +0.000 OA
ATOM     24  C   UNL     1       1.788   8.500  18.697  0.00  0.00    +0.000 C 
ATOM     25  C   UNL     1       2.707   7.290  18.830  0.00  0.00    +0.000 C 
ENDBRANCH  19  20
ENDBRANCH  18  19
ENDBRANCH  17  18
ENDBRANCH  15  17
ENDBRANCH  14  15
ENDBRANCH   7  14
TORSDOF 6
ENDMDL
MODEL 2
REMARK VINA RESULT:      -7.0      4.486      7.546
REMARK  Name = 
REMARK  7 active torsions:
REMARK  status: ('A' for Active; 'I' for Inactive)
REMARK    1  A    between atoms: C_1  and  C_2
REMARK    2  A    between atoms: C_7  and  C_8
REMARK    3  A    between atoms: C_8  and  N_9
REMARK    4  A    between atoms: N_9  and  C_10
REMARK    5  A    between atoms: C_10  and  C_11
REMARK    6  A    between atoms: C_11  and  C_12
REMARK    7  A    between atoms: C_12  and  N_13
REMARK                            x       y       z     vdW  Elec       q    Type
REMARK                         _______ _______ _______ _____ _____    ______ ____
ROOT
ATOM      1  C   UNL     1       1.625   1.789  18.957  0.00  0.00    +0.000 C 
ATOM      2  C   UNL     1       2.437   2.988  18.580  0.00  0.00    +0.000 A 
ATOM      3  C   UNL     1       1.831   4.178  18.152  0.00  0.00    +0.000 A 
ATOM      4  C   UNL     1       2.605   5.290  17.817  0.00  0.00    +0.000 A 
ATOM      5  C   UNL     1       3.996   5.211  17.880  0.00  0.00    +0.000 A 
ATOM      6  C   UNL     1       4.838   6.332  17.496  0.00  0.00    +0.000 A 
ATOM      7  C   UNL     1       6.178   6.190  17.395  0.00  0.00    +0.000 A 
ATOM      8  C   UNL     1       6.798   4.873  17.690  0.00  0.00    +0.000 A 
ATOM      9  O   UNL     1       7.984   4.640  17.482  0.00  0.00    +0.000 OA
ATOM     10  N   UNL     1       5.990   3.906  18.248  0.00  0.00    +0.000 N 
ATOM     11  C   UNL     1       4.599   4.025  18.289  0.00  0.00    +0.000 A 
ATOM     12  C   UNL     1       3.834   2.924  18.661  0.00  0.00    +0.000 A 
ATOM     13  H   UNL     1       6.435   3.028  18.472  0.00  0.00    +0.000 HD
ENDROOT
BRANCH   7  14
ATOM     14  C   UNL     1       7.087   7.314  16.985  0.00  0.00    +0.000 C 
BRANCH  14  15
ATOM     15  N   UNL     1       7.976   7.779  18.066  0.00  0.00    +0.000 NA
ATOM     16  H   UNL     1       8.822   7.213  18.073  0.00  0.00    +0.000 HD
BRANCH  15  17
ATOM     17  C   UNL     1       8.316   9.198  17.925  0.00  0.00    +0.000 C 
BRANCH  17  18
ATOM     18  C   UNL     1       9.096   9.738  19.142  0.00  0.00    +0.000 C 
BRANCH  18  19
ATOM     19  C   UNL     1       9.893  10.976  18.715  0.00  0.00    +0.000 C 
BRANCH  19  20
ATOM     20  N   UNL     1       9.683  12.239  19.399  0.00  0.00    +0.000 NA
ATOM     21  C   UNL     1       8.801  13.247  18.812  0.00  0.00    +0.000 C 
ATOM     22  C   UNL     1       9.486  14.515  18.253  0.00  0.00    +0.000 C 
ATOM     23  O   UNL     1      10.574  14.980  19.065  0.00  0.00    +0.000 OA
ATOM     24  C   UNL     1      11.509  13.919  19.283  0.00  0.00    +0.000 C 
ATOM     25  C   UNL     1      10.844  12.799  20.076  0.00  0.00    +0.000 C 
ENDBRANCH  19  20
ENDBRANCH  18  19
ENDBRANCH  17  18
ENDBRANCH  15  17
ENDBRANCH  14  15
ENDBRANCH   7  14
TORSDOF 6
ENDMDL
MODEL 3
REMARK VINA RESULT:      -6.8      2.051      5.586
REMARK  Name = 
REMARK  7 active torsions:
REMARK  status: ('A' for Active; 'I' for Inactive)
REMARK    1  A    between atoms: C_1  and  C_2
REMARK    2  A    between atoms: C_7  and  C_8
REMARK    3  A    between atoms: C_8  and  N_9
REMARK    4  A    between atoms: N_9  and  C_10
REMARK    5  A    between atoms: C_10  and  C_11
REMARK    6  A    between atoms: C_11  and  C_12
REMARK    7  A    between atoms: C_12  and  N_13
REMARK                            x       y       z     vdW  Elec       q    Type
REMARK                         _______ _______ _______ _____ _____    ______ ____
ROOT
ATOM      1  C   UNL     1       0.085  10.381  20.912  0.00  0.00    +0.000 C 
ATOM      2  C   UNL     1       0.871   9.296  20.247  0.00  0.00    +0.000 A 
ATOM      3  C   UNL     1       1.300   9.410  18.917  0.00  0.00    +0.000 A 
ATOM      4  C   UNL     1       2.042   8.392  18.318  0.00  0.00    +0.000 A 
ATOM      5  C   UNL     1       2.339   7.235  19.038  0.00  0.00    +0.000 A 
ATOM      6  C   UNL     1       3.072   6.134  18.436  0.00  0.00    +0.000 A 
ATOM      7  C   UNL     1       3.203   4.953  19.081  0.00  0.00    +0.000 A 
ATOM      8  C   UNL     1       2.599   4.785  20.428  0.00  0.00    +0.000 A 
ATOM      9  O   UNL     1       2.559   3.702  21.003  0.00  0.00    +0.000 OA
ATOM     10  N   UNL     1       2.099   5.913  21.040  0.00  0.00    +0.000 N 
ATOM     11  C   UNL     1       1.900   7.113  20.353  0.00  0.00    +0.000 A 
ATOM     12  C   UNL     1       1.191   8.139  20.970  0.00  0.00    +0.000 A 
ATOM     13  H   UNL     1       1.721   5.787  21.968  0.00  0.00    +0.000 HD
ENDROOT
BRANCH   7  14
ATOM     14  C   UNL     1       3.935   3.781  18.492  0.00  0.00    +0.000 C 
BRANCH  14  15
ATOM     15  N   UNL     1       5.392   3.820  18.719  0.00  0.00    +0.000 NA
ATOM     16  H   UNL     1       5.874   3.794  17.823  0.00  0.00    +0.000 HD
BRANCH  15  17
ATOM     17  C   UNL     1       5.797   5.006  19.479  0.00  0.00    +0.000 C 
BRANCH  17  18
ATOM     18  C   UNL     1       7.224   5.473  19.122  0.00  0.00    +0.000 C 
BRANCH  18  19
ATOM     19  C   UNL     1       7.684   4.746  17.854  0.00  0.00    +0.000 C 
BRANCH  19  20
ATOM     20  N   UNL     1       7.422   5.332  16.552  0.00  0.00    +0.000 NA
ATOM     21  C   UNL     1       6.685   6.592  16.457  0.00  0.00    +0.000 C 
ATOM     22  C   UNL     1       5.253   6.508  15.882  0.00  0.00    +0.000 C 
ATOM     23  O   UNL     1       5.131   5.587  14.789  0.00  0.00    +0.000 OA
ATOM     24  C   UNL     1       5.628   4.302  15.175  0.00  0.00    +0.000 C 
ATOM     25  C   UNL     1       7.120   4.396  15.479  0.00  0.00    +0.000 C 
ENDBRANCH  19  20
ENDBRANCH  18  19
ENDBRANCH  17  18
ENDBRANCH  15  17
ENDBRANCH  14  15
ENDBRANCH   7  14
TORSDOF 6
ENDMDL
MODEL 4
REMARK VINA RESULT:      -6.6      2.677      7.340
REMARK  Name = 
REMARK  7 active torsions:
REMARK  status: ('A' for Active; 'I' for Inactive)
REMARK    1  A    between atoms: C_1  and  C_2
REMARK    2  A    between atoms: C_7  and  C_8
REMARK    3  A    between atoms: C_8  and  N_9
REMARK    4  A    between atoms: N_9  and  C_10
REMARK    5  A    between atoms: C_10  and  C_11
REMARK    6  A    between atoms: C_11  and  C_12
REMARK    7  A    between atoms: C_12  and  N_13
REMARK                            x       y       z     vdW  Elec       q    Type
REMARK                         _______ _______ _______ _____ _____    ______ ____
ROOT
ATOM      1  C   UNL     1      -1.886  12.397  22.920  0.00  0.00    +0.000 C 
ATOM      2  C   UNL     1      -1.092  11.250  22.378  0.00  0.00    +0.000 A 
ATOM      3  C   UNL     1      -0.711  10.173  23.190  0.00  0.00    +0.000 A 
ATOM      4  C   UNL     1       0.019   9.107  22.663  0.00  0.00    +0.000 A 
ATOM      5  C   UNL     1       0.399   9.123  21.322  0.00  0.00    +0.000 A 
ATOM      6  C   UNL     1       1.198   8.054  20.746  0.00  0.00    +0.000 A 
ATOM      7  C   UNL     1       1.706   8.161  19.498  0.00  0.00    +0.000 A 
ATOM      8  C   UNL     1       1.435   9.386  18.703  0.00  0.00    +0.000 A 
ATOM      9  O   UNL     1       1.980   9.608  17.627  0.00  0.00    +0.000 OA
ATOM     10  N   UNL     1       0.509  10.273  19.205  0.00  0.00    +0.000 N 
ATOM     11  C   UNL     1       0.037  10.200  20.518  0.00  0.00    +0.000 A 
ATOM     12  C   UNL     1      -0.723  11.249  21.026  0.00  0.00    +0.000 A 
ATOM     13  H   UNL     1       0.313  11.084  18.637  0.00  0.00    +0.000 HD
ENDROOT
BRANCH   7  14
ATOM     14  C   UNL     1       2.551   7.091  18.869  0.00  0.00    +0.000 C 
BRANCH  14  15
ATOM     15  N   UNL     1       2.285   5.741  19.399  0.00  0.00    +0.000 NA
ATOM     16  H   UNL     1       1.882   5.163  18.663  0.00  0.00    +0.000 HD
BRANCH  15  17
ATOM     17  C   UNL     1       3.497   5.111  19.931  0.00  0.00    +0.000 C 
BRANCH  17  18
ATOM     18  C   UNL     1       3.690   3.673  19.405  0.00  0.00    +0.000 C 
BRANCH  18  19
ATOM     19  C   UNL     1       4.421   3.727  18.060  0.00  0.00    +0.000 C 
BRANCH  19  20
ATOM     20  N   UNL     1       5.165   4.918  17.692  0.00  0.00    +0.000 NA
ATOM     21  C   UNL     1       4.857   5.610  16.440  0.00  0.00    +0.000 C 
ATOM     22  C   UNL     1       5.917   5.505  15.321  0.00  0.00    +0.000 C 
ATOM     23  O   UNL     1       7.266   5.580  15.804  0.00  0.00    +0.000 OA
ATOM     24  C   UNL     1       7.473   4.604  16.829  0.00  0.00    +0.000 C 
ATOM     25  C   UNL     1       6.582   4.915  18.027  0.00  0.00    +0.000 C 
ENDBRANCH  19  20
ENDBRANCH  18  19
ENDBRANCH  17  18
ENDBRANCH  15  17
ENDBRANCH  14  15
ENDBRANCH   7  14
TORSDOF 6
ENDMDL
MODEL 5
REMARK VINA RESULT:      -6.6      4.033      7.210
REMARK  Name = 
REMARK  7 active torsions:
REMARK  status: ('A' for Active; 'I' for Inactive)
REMARK    1  A    between atoms: C_1  and  C_2
REMARK    2  A    between atoms: C_7  and  C_8
REMARK    3  A    between atoms: C_8  and  N_9
REMARK    4  A    between atoms: N_9  and  C_10
REMARK    5  A    between atoms: C_10  and  C_11
REMARK    6  A    between atoms: C_11  and  C_12
REMARK    7  A    between atoms: C_12  and  N_13
REMARK                            x       y       z     vdW  Elec       q    Type
REMARK                         _______ _______ _______ _____ _____    ______ ____
ROOT
ATOM      1  C   UNL     1       0.556   2.397  18.883  0.00  0.00    +0.000 C 
ATOM      2  C   UNL     1       1.798   3.226  18.976  0.00  0.00    +0.000 A 
ATOM      3  C   UNL     1       1.916   4.268  19.907  0.00  0.00    +0.000 A 
ATOM      4  C   UNL     1       3.088   5.022  19.987  0.00  0.00    +0.000 A 
ATOM      5  C   UNL     1       4.143   4.757  19.115  0.00  0.00    +0.000 A 
ATOM      6  C   UNL     1       5.362   5.549  19.136  0.00  0.00    +0.000 A 
ATOM      7  C   UNL     1       6.303   5.400  18.178  0.00  0.00    +0.000 A 
ATOM      8  C   UNL     1       6.091   4.406  17.094  0.00  0.00    +0.000 A 
ATOM      9  O   UNL     1       6.834   4.321  16.122  0.00  0.00    +0.000 OA
ATOM     10  N   UNL     1       5.029   3.540  17.231  0.00  0.00    +0.000 N 
ATOM     11  C   UNL     1       4.021   3.735  18.178  0.00  0.00    +0.000 A 
ATOM     12  C   UNL     1       2.870   2.954  18.117  0.00  0.00    +0.000 A 
ATOM     13  H   UNL     1       4.918   2.850  16.502  0.00  0.00    +0.000 HD
ENDROOT
BRANCH   7  14
ATOM     14  C   UNL     1       7.569   6.208  18.148  0.00  0.00    +0.000 C 
BRANCH  14  15
ATOM     15  N   UNL     1       7.566   7.271  17.125  0.00  0.00    +0.000 NA
ATOM     16  H   UNL     1       6.781   7.129  16.493  0.00  0.00    +0.000 HD
BRANCH  15  17
ATOM     17  C   UNL     1       7.499   8.608  17.724  0.00  0.00    +0.000 C 
BRANCH  17  18
ATOM     18  C   UNL     1       8.890   9.262  17.856  0.00  0.00    +0.000 C 
BRANCH  18  19
ATOM     19  C   UNL     1       8.921  10.119  19.127  0.00  0.00    +0.000 C 
BRANCH  19  20
ATOM     20  N   UNL     1       9.983  11.090  19.315  0.00  0.00    +0.000 NA
ATOM     21  C   UNL     1       9.950  11.989  20.469  0.00  0.00    +0.000 C 
ATOM     22  C   UNL     1       9.654  13.476  20.172  0.00  0.00    +0.000 C 
ATOM     23  O   UNL     1      10.289  13.956  18.978  0.00  0.00    +0.000 OA
ATOM     24  C   UNL     1       9.952  13.112  17.872  0.00  0.00    +0.000 C 
ATOM     25  C   UNL     1      10.504  11.710  18.105  0.00  0.00    +0.000 C 
ENDBRANCH  19  20
ENDBRANCH  18  19
ENDBRANCH  17  18
ENDBRANCH  15  17
ENDBRANCH  14  15
ENDBRANCH   7  14
TORSDOF 6
ENDMDL
MODEL 6
REMARK VINA RESULT:      -6.5      2.675      7.309
REMARK  Name = 
REMARK  7 active torsions:
REMARK  status: ('A' for Active; 'I' for Inactive)
REMARK    1  A    between atoms: C_1  and  C_2
REMARK    2  A    between atoms: C_7  and  C_8
REMARK    3  A    between atoms: C_8  and  N_9
REMARK    4  A    between atoms: N_9  and  C_10
REMARK    5  A    between atoms: C_10  and  C_11
REMARK    6  A    between atoms: C_11  and  C_12
REMARK    7  A    between atoms: C_12  and  N_13
REMARK                            x       y       z     vdW  Elec       q    Type
REMARK                         _______ _______ _______ _____ _____    ______ ____
ROOT
ATOM      1  C   UNL     1      -1.428  12.437  23.111  0.00  0.00    +0.000 C 
ATOM      2  C   UNL     1      -0.742  11.291  22.438  0.00  0.00    +0.000 A 
ATOM      3  C   UNL     1      -0.434  10.111  23.131  0.00  0.00    +0.000 A 
ATOM      4  C   UNL     1       0.195   9.048  22.483  0.00  0.00    +0.000 A 
ATOM      5  C   UNL     1       0.547   9.167  21.139  0.00  0.00    +0.000 A 
ATOM      6  C   UNL     1       1.243   8.099  20.439  0.00  0.00    +0.000 A 
ATOM      7  C   UNL     1       1.733   8.289  19.194  0.00  0.00    +0.000 A 
ATOM      8  C   UNL     1       1.547   9.604  18.529  0.00  0.00    +0.000 A 
ATOM      9  O   UNL     1       2.085   9.888  17.464  0.00  0.00    +0.000 OA
ATOM     10  N   UNL     1       0.707  10.508  19.141  0.00  0.00    +0.000 N 
ATOM     11  C   UNL     1       0.258  10.343  20.453  0.00  0.00    +0.000 A 
ATOM     12  C   UNL     1      -0.403  11.394  21.083  0.00  0.00    +0.000 A 
ATOM     13  H   UNL     1       0.566  11.384  18.660  0.00  0.00    +0.000 HD
ENDROOT
BRANCH   7  14
ATOM     14  C   UNL     1       2.474   7.223  18.440  0.00  0.00    +0.000 C 
BRANCH  14  15
ATOM     15  N   UNL     1       2.903   6.092  19.285  0.00  0.00    +0.000 NA
ATOM     16  H   UNL     1       2.157   5.858  19.938  0.00  0.00    +0.000 HD
BRANCH  15  17
ATOM     17  C   UNL     1       3.265   4.917  18.487  0.00  0.00    +0.000 C 
BRANCH  17  18
ATOM     18  C   UNL     1       4.375   4.075  19.152  0.00  0.00    +0.000 C 
BRANCH  18  19
ATOM     19  C   UNL     1       5.572   4.981  19.458  0.00  0.00    +0.000 C 
BRANCH  19  20
ATOM     20  N   UNL     1       6.719   4.984  18.568  0.00  0.00    +0.000 NA
ATOM     21  C   UNL     1       7.683   6.083  18.628  0.00  0.00    +0.000 C 
ATOM     22  C   UNL     1       7.686   7.059  17.430  0.00  0.00    +0.000 C 
ATOM     23  O   UNL     1       7.503   6.408  16.165  0.00  0.00    +0.000 OA
ATOM     24  C   UNL     1       6.321   5.604  16.195  0.00  0.00    +0.000 C 
ATOM     25  C   UNL     1       6.482   4.486  17.220  0.00  0.00    +0.000 C 
ENDBRANCH  19  20
ENDBRANCH  18  19
ENDBRANCH  17  18
ENDBRANCH  15  17
ENDBRANCH  14  15
ENDBRANCH   7  14
TORSDOF 6
ENDMDL
MODEL 7
REMARK VINA RESULT:      -6.5      2.695      4.377
REMARK  Name = 
REMARK  7 active torsions:
REMARK  status: ('A' for Active; 'I' for Inactive)
REMARK    1  A    between atoms: C_1  and  C_2
REMARK    2  A    between atoms: C_7  and  C_8
REMARK    3  A    between atoms: C_8  and  N_9
REMARK    4  A    between atoms: N_9  and  C_10
REMARK    5  A    between atoms: C_10  and  C_11
REMARK    6  A    between atoms: C_11  and  C_12
REMARK    7  A    between atoms: C_12  and  N_13
REMARK                            x       y       z     vdW  Elec       q    Type
REMARK                         _______ _______ _______ _____ _____    ______ ____
ROOT
ATOM      1  C   UNL     1       6.219   3.935  14.577  0.00  0.00    +0.000 C 
ATOM      2  C   UNL     1       5.406   4.674  15.593  0.00  0.00    +0.000 A 
ATOM      3  C   UNL     1       5.372   6.075  15.626  0.00  0.00    +0.000 A 
ATOM      4  C   UNL     1       4.598   6.746  16.573  0.00  0.00    +0.000 A 
ATOM      5  C   UNL     1       3.870   6.019  17.515  0.00  0.00    +0.000 A 
ATOM      6  C   UNL     1       3.088   6.681  18.545  0.00  0.00    +0.000 A 
ATOM      7  C   UNL     1       2.529   5.976  19.554  0.00  0.00    +0.000 A 
ATOM      8  C   UNL     1       2.712   4.502  19.602  0.00  0.00    +0.000 A 
ATOM      9  O   UNL     1       2.355   3.824  20.560  0.00  0.00    +0.000 OA
ATOM     10  N   UNL     1       3.279   3.900  18.501  0.00  0.00    +0.000 N 
ATOM     11  C   UNL     1       3.916   4.628  17.494  0.00  0.00    +0.000 A 
ATOM     12  C   UNL     1       4.656   3.950  16.530  0.00  0.00    +0.000 A 
ATOM     13  H   UNL     1       3.366   2.895  18.538  0.00  0.00    +0.000 HD
ENDROOT
BRANCH   7  14
ATOM     14  C   UNL     1       1.728   6.618  20.650  0.00  0.00    +0.000 C 
BRANCH  14  15
ATOM     15  N   UNL     1       1.750   8.092  20.610  0.00  0.00    +0.000 NA
ATOM     16  H   UNL     1       1.162   8.417  19.845  0.00  0.00    +0.000 HD
BRANCH  15  17
ATOM     17  C   UNL     1       1.305   8.682  21.877  0.00  0.00    +0.000 C 
BRANCH  17  18
ATOM     18  C   UNL     1      -0.214   8.954  21.896  0.00  0.00    +0.000 C 
BRANCH  18  19
ATOM     19  C   UNL     1      -0.477  10.363  21.354  0.00  0.00    +0.000 C 
BRANCH  19  20
ATOM     20  N   UNL     1       0.034  10.738  20.048  0.00  0.00    +0.000 NA
ATOM     21  C   UNL     1       0.919  11.896  19.918  0.00  0.00    +0.000 C 
ATOM     22  C   UNL     1       0.324  13.139  19.221  0.00  0.00    +0.000 C 
ATOM     23  O   UNL     1      -0.513  12.818  18.101  0.00  0.00    +0.000 OA
ATOM     24  C   UNL     1      -1.529  11.892  18.499  0.00  0.00    +0.000 C 
ATOM     25  C   UNL     1      -0.888  10.578  18.932  0.00  0.00    +0.000 C 
ENDBRANCH  19  20
ENDBRANCH  18  19
ENDBRANCH  17  18
ENDBRANCH  15  17
ENDBRANCH  14  15
ENDBRANCH   7  14
TORSDOF 6
ENDMDL
MODEL 8
REMARK VINA RESULT:      -6.4      2.737      6.692
REMARK  Name = 
REMARK  7 active torsions:
REMARK  status: ('A' for Active; 'I' for Inactive)
REMARK    1  A    between atoms: C_1  and  C_2
REMARK    2  A    between atoms: C_7  and  C_8
REMARK    3  A    between atoms: C_8  and  N_9
REMARK    4  A    between atoms: N_9  and  C_10
REMARK    5  A    between atoms: C_10  and  C_11
REMARK    6  A    between atoms: C_11  and  C_12
REMARK    7  A    between atoms: C_12  and  N_13
REMARK                            x       y       z     vdW  Elec       q    Type
REMARK                         _______ _______ _______ _____ _____    ______ ____
ROOT
ATOM      1  C   UNL     1      -0.616  13.511  19.682  0.00  0.00    +0.000 C 
ATOM      2  C   UNL     1      -0.123  12.119  19.917  0.00  0.00    +0.000 A 
ATOM      3  C   UNL     1      -0.213  11.512  21.178  0.00  0.00    +0.000 A 
ATOM      4  C   UNL     1       0.241  10.208  21.375  0.00  0.00    +0.000 A 
ATOM      5  C   UNL     1       0.817   9.507  20.316  0.00  0.00    +0.000 A 
ATOM      6  C   UNL     1       1.342   8.163  20.491  0.00  0.00    +0.000 A 
ATOM      7  C   UNL     1       2.051   7.562  19.510  0.00  0.00    +0.000 A 
ATOM      8  C   UNL     1       2.286   8.282  18.233  0.00  0.00    +0.000 A 
ATOM      9  O   UNL     1       3.036   7.853  17.361  0.00  0.00    +0.000 OA
ATOM     10  N   UNL     1       1.597   9.458  18.035  0.00  0.00    +0.000 N 
ATOM     11  C   UNL     1       0.923  10.113  19.068  0.00  0.00    +0.000 A 
ATOM     12  C   UNL     1       0.439  11.401  18.853  0.00  0.00    +0.000 A 
ATOM     13  H   UNL     1       1.745   9.918  17.148  0.00  0.00    +0.000 HD
ENDROOT
BRANCH   7  14
ATOM     14  C   UNL     1       2.629   6.183  19.652  0.00  0.00    +0.000 C 
BRANCH  14  15
ATOM     15  N   UNL     1       2.329   5.297  18.512  0.00  0.00    +0.000 NA
ATOM     16  H   UNL     1       2.965   5.507  17.745  0.00  0.00    +0.000 HD
BRANCH  15  17
ATOM     17  C   UNL     1       2.427   3.880  18.876  0.00  0.00    +0.000 C 
BRANCH  17  18
ATOM     18  C   UNL     1       3.435   3.115  17.993  0.00  0.00    +0.000 C 
BRANCH  18  19
ATOM     19  C   UNL     1       4.803   3.798  18.091  0.00  0.00    +0.000 C 
BRANCH  19  20
ATOM     20  N   UNL     1       5.122   4.901  17.203  0.00  0.00    +0.000 NA
ATOM     21  C   UNL     1       5.450   4.637  15.803  0.00  0.00    +0.000 C 
ATOM     22  C   UNL     1       6.923   4.853  15.391  0.00  0.00    +0.000 C 
ATOM     23  O   UNL     1       7.524   6.003  16.005  0.00  0.00    +0.000 OA
ATOM     24  C   UNL     1       7.371   5.934  17.426  0.00  0.00    +0.000 C 
ATOM     25  C   UNL     1       5.891   5.991  17.789  0.00  0.00    +0.000 C 
ENDBRANCH  19  20
ENDBRANCH  18  19
ENDBRANCH  17  18
ENDBRANCH  15  17
ENDBRANCH  14  15
ENDBRANCH   7  14
TORSDOF 6
ENDMDL
MODEL 9
REMARK VINA RESULT:      -6.3      2.517      6.662
REMARK  Name = 
REMARK  7 active torsions:
REMARK  status: ('A' for Active; 'I' for Inactive)
REMARK    1  A    between atoms: C_1  and  C_2
REMARK    2  A    between atoms: C_7  and  C_8
REMARK    3  A    between atoms: C_8  and  N_9
REMARK    4  A    between atoms: N_9  and  C_10
REMARK    5  A    between atoms: C_10  and  C_11
REMARK    6  A    between atoms: C_11  and  C_12
REMARK    7  A    between atoms: C_12  and  N_13
REMARK                            x       y       z     vdW  Elec       q    Type
REMARK                         _______ _______ _______ _____ _____    ______ ____
ROOT
ATOM      1  C   UNL     1      -0.711  13.795  20.063  0.00  0.00    +0.000 C 
ATOM      2  C   UNL     1      -0.183  12.400  20.178  0.00  0.00    +0.000 A 
ATOM      3  C   UNL     1      -0.122  11.738  21.412  0.00  0.00    +0.000 A 
ATOM      4  C   UNL     1       0.361  10.432  21.497  0.00  0.00    +0.000 A 
ATOM      5  C   UNL     1       0.816   9.786  20.348  0.00  0.00    +0.000 A 
ATOM      6  C   UNL     1       1.369   8.443  20.401  0.00  0.00    +0.000 A 
ATOM      7  C   UNL     1       1.964   7.893  19.319  0.00  0.00    +0.000 A 
ATOM      8  C   UNL     1       2.043   8.672  18.056  0.00  0.00    +0.000 A 
ATOM      9  O   UNL     1       2.691   8.291  17.086  0.00  0.00    +0.000 OA
ATOM     10  N   UNL     1       1.327   9.846  17.993  0.00  0.00    +0.000 N 
ATOM     11  C   UNL     1       0.772  10.447  19.124  0.00  0.00    +0.000 A 
ATOM     12  C   UNL     1       0.256  11.736  19.025  0.00  0.00    +0.000 A 
ATOM     13  H   UNL     1       1.367  10.346  17.116  0.00  0.00    +0.000 HD
ENDROOT
BRANCH   7  14
ATOM     14  C   UNL     1       2.565   6.517  19.332  0.00  0.00    +0.000 C 
BRANCH  14  15
ATOM     15  N   UNL     1       2.602   5.902  20.672  0.00  0.00    +0.000 NA
ATOM     16  H   UNL     1       2.657   6.634  21.378  0.00  0.00    +0.000 HD
BRANCH  15  17
ATOM     17  C   UNL     1       1.434   5.049  20.917  0.00  0.00    +0.000 C 
BRANCH  17  18
ATOM     18  C   UNL     1       1.830   3.606  21.294  0.00  0.00    +0.000 C 
BRANCH  18  19
ATOM     19  C   UNL     1       1.610   2.695  20.081  0.00  0.00    +0.000 C 
BRANCH  19  20
ATOM     20  N   UNL     1       2.747   2.267  19.286  0.00  0.00    +0.000 NA
ATOM     21  C   UNL     1       4.102   2.639  19.695  0.00  0.00    +0.000 C 
ATOM     22  C   UNL     1       4.823   3.682  18.813  0.00  0.00    +0.000 C 
ATOM     23  O   UNL     1       4.580   3.506  17.410  0.00  0.00    +0.000 OA
ATOM     24  C   UNL     1       3.172   3.474  17.156  0.00  0.00    +0.000 C 
ATOM     25  C   UNL     1       2.552   2.261  17.843  0.00  0.00    +0.000 C 
ENDBRANCH  19  20
ENDBRANCH  18  19
ENDBRANCH  17  18
ENDBRANCH  15  17
ENDBRANCH  14  15
ENDBRANCH   7  14
TORSDOF 6
ENDMDL
