MODEL 1
REMARK VINA RESULT:      -8.4      0.000      0.000
REMARK  Name = 
REMARK  8 active torsions:
REMARK  status: ('A' for Active; 'I' for Inactive)
REMARK    1  A    between atoms: C_1  and  C_2
REMARK    2  A    between atoms: C_2  and  O_3
REMARK    3  A    between atoms: O_3  and  C_4
REMARK    4  A    between atoms: C_6  and  N_7
REMARK    5  A    between atoms: C_10  and  C_11
REMARK    6  A    between atoms: C_14  and  C_15
REMARK    7  A    between atoms: C_24  and  C_25
REMARK    8  A    between atoms: C_31  and  C_32
REMARK                            x       y       z     vdW  Elec       q    Type
REMARK                         _______ _______ _______ _____ _____    ______ ____
ROOT
ATOM      1  N   UNL     1       1.752   9.271  20.308  0.00  0.00    +0.000 N 
ATOM      2  C   UNL     1       0.782  10.141  19.817  0.00  0.00    +0.000 A 
ATOM      3  N   UNL     1      -0.057   9.739  18.883  0.00  0.00    +0.000 NA
ATOM      4  C   UNL     1      -0.996  10.594  18.349  0.00  0.00    +0.000 A 
ATOM      5  C   UNL     1      -1.821  10.041  17.225  0.00  0.00    +0.000 C 
ATOM      6  C   UNL     1      -1.144  11.860  18.772  0.00  0.00    +0.000 A 
ATOM      7  N   UNL     1      -0.303  12.325  19.766  0.00  0.00    +0.000 N 
ATOM      8  C   UNL     1      -0.139  13.564  20.341  0.00  0.00    +0.000 A 
ATOM      9  C   UNL     1       0.964  13.425  21.164  0.00  0.00    +0.000 A 
ATOM     10  N   UNL     1       1.454  12.137  21.144  0.00  0.00    +0.000 NA
ATOM     11  C   UNL     1       0.676  11.514  20.285  0.00  0.00    +0.000 A 
ATOM     12  H   UNL     1       2.491   9.723  20.839  0.00  0.00    +0.000 HD
ENDROOT
BRANCH   8  13
ATOM     13  C   UNL     1      -0.934  14.785  20.090  0.00  0.00    +0.000 A 
ATOM     14  C   UNL     1      -0.605  15.936  19.346  0.00  0.00    +0.000 A 
ATOM     15  N   UNL     1      -1.563  16.865  19.397  0.00  0.00    +0.000 NA
ATOM     16  N   UNL     1      -2.509  16.301  20.166  0.00  0.00    +0.000 N 
ATOM     17  C   UNL     1      -2.191  15.039  20.583  0.00  0.00    +0.000 A 
ATOM     18  H   UNL     1      -3.340  16.841  20.378  0.00  0.00    +0.000 HD
ENDBRANCH   8  13
BRANCH   1  21
ATOM     19  C   UNL     1       1.572   5.616  20.211  0.00  0.00    +0.000 A 
ATOM     20  C   UNL     1       1.426   6.906  20.796  0.00  0.00    +0.000 A 
ATOM     21  C   UNL     1       1.859   7.946  20.011  0.00  0.00    +0.000 A 
ATOM     22  S   UNL     1       2.597   7.342  18.601  0.00  0.00    +0.000 S 
ATOM     23  C   UNL     1       2.205   5.684  18.980  0.00  0.00    +0.000 A 
BRANCH  23  24
ATOM     24  C   UNL     1       2.689   4.665  18.046  0.00  0.00    +0.000 C 
ATOM     25  O   UNL     1       1.894   4.060  17.318  0.00  0.00    +0.000 OA
ATOM     26  N   UNL     1       4.054   4.366  17.939  0.00  0.00    +0.000 N 
ATOM     27  C   UNL     1       4.513   3.556  16.811  0.00  0.00    +0.000 C 
ATOM     28  C   UNL     1       5.612   4.297  16.056  0.00  0.00    +0.000 C 
ATOM     29  C   UNL     1       6.763   4.678  16.989  0.00  0.00    +0.000 C 
ATOM     30  C   UNL     1       6.252   5.440  18.224  0.00  0.00    +0.000 C 
ATOM     31  C   UNL     1       7.389   5.708  19.204  0.00  0.00    +0.000 C 
ATOM     32  C   UNL     1       5.103   4.678  18.907  0.00  0.00    +0.000 C 
ENDBRANCH  23  24
BRANCH  19  33
ATOM     33  O   UNL     1       1.186   4.445  20.792  0.00  0.00    +0.000 OA
BRANCH  33  35
ATOM     34  C   UNL     1       2.043   2.312  21.569  0.00  0.00    +0.000 C 
ATOM     35  C   UNL     1       2.223   3.815  21.559  0.00  0.00    +0.000 C 
ENDBRANCH  33  35
ENDBRANCH  19  33
ENDBRANCH   1  21
TORSDOF 5
ENDMDL
MODEL 2
REMARK VINA RESULT:      -7.9      0.868      1.121
REMARK  Name = 
REMARK  8 active torsions:
REMARK  status: ('A' for Active; 'I' for Inactive)
REMARK    1  A    between atoms: C_1  and  C_2
REMARK    2  A    between atoms: C_2  and  O_3
REMARK    3  A    between atoms: O_3  and  C_4
REMARK    4  A    between atoms: C_6  and  N_7
REMARK    5  A    between atoms: C_10  and  C_11
REMARK    6  A    between atoms: C_14  and  C_15
REMARK    7  A    between atoms: C_24  and  C_25
REMARK    8  A    between atoms: C_31  and  C_32
REMARK                            x       y       z     vdW  Elec       q    Type
REMARK                         _______ _______ _______ _____ _____    ______ ____
ROOT
ATOM      1  N   UNL     1       1.587   9.180  20.575  0.00  0.00    +0.000 N 
ATOM      2  C   UNL     1       0.551   9.973  20.089  0.00  0.00    +0.000 A 
ATOM      3  N   UNL     1      -0.144   9.584  19.038  0.00  0.00    +0.000 NA
ATOM      4  C   UNL     1      -1.145  10.372  18.512  0.00  0.00    +0.000 A 
ATOM      5  C   UNL     1      -1.788   9.859  17.257  0.00  0.00    +0.000 C 
ATOM      6  C   UNL     1      -1.500  11.547  19.055  0.00  0.00    +0.000 A 
ATOM      7  N   UNL     1      -0.817  11.991  20.172  0.00  0.00    +0.000 N 
ATOM      8  C   UNL     1      -0.874  13.161  20.893  0.00  0.00    +0.000 A 
ATOM      9  C   UNL     1       0.165  13.064  21.800  0.00  0.00    +0.000 A 
ATOM     10  N   UNL     1       0.829  11.860  21.688  0.00  0.00    +0.000 NA
ATOM     11  C   UNL     1       0.218  11.253  20.693  0.00  0.00    +0.000 A 
ATOM     12  H   UNL     1       2.210   9.653  21.223  0.00  0.00    +0.000 HD
ENDROOT
BRANCH   8  13
ATOM     13  C   UNL     1      -1.805  14.292  20.701  0.00  0.00    +0.000 A 
ATOM     14  C   UNL     1      -3.174  14.395  21.021  0.00  0.00    +0.000 A 
ATOM     15  N   UNL     1      -3.700  15.562  20.640  0.00  0.00    +0.000 NA
ATOM     16  N   UNL     1      -2.661  16.209  20.085  0.00  0.00    +0.000 N 
ATOM     17  C   UNL     1      -1.494  15.499  20.125  0.00  0.00    +0.000 A 
ATOM     18  H   UNL     1      -2.825  17.126  19.686  0.00  0.00    +0.000 HD
ENDBRANCH   8  13
BRANCH   1  21
ATOM     19  C   UNL     1       2.127   5.580  20.182  0.00  0.00    +0.000 A 
ATOM     20  C   UNL     1       1.837   6.777  20.897  0.00  0.00    +0.000 A 
ATOM     21  C   UNL     1       1.901   7.925  20.146  0.00  0.00    +0.000 A 
ATOM     22  S   UNL     1       2.470   7.567  18.583  0.00  0.00    +0.000 S 
ATOM     23  C   UNL     1       2.495   5.846  18.872  0.00  0.00    +0.000 A 
BRANCH  23  24
ATOM     24  C   UNL     1       2.991   5.004  17.782  0.00  0.00    +0.000 C 
ATOM     25  O   UNL     1       2.198   4.427  17.029  0.00  0.00    +0.000 OA
ATOM     26  N   UNL     1       4.366   4.848  17.551  0.00  0.00    +0.000 N 
ATOM     27  C   UNL     1       4.805   4.233  16.299  0.00  0.00    +0.000 C 
ATOM     28  C   UNL     1       5.782   5.163  15.584  0.00  0.00    +0.000 C 
ATOM     29  C   UNL     1       6.963   5.524  16.487  0.00  0.00    +0.000 C 
ATOM     30  C   UNL     1       6.483   6.071  17.842  0.00  0.00    +0.000 C 
ATOM     31  C   UNL     1       7.661   6.314  18.778  0.00  0.00    +0.000 C 
ATOM     32  C   UNL     1       5.453   5.127  18.487  0.00  0.00    +0.000 C 
ENDBRANCH  23  24
BRANCH  19  33
ATOM     33  O   UNL     1       2.097   4.326  20.712  0.00  0.00    +0.000 OA
BRANCH  33  35
ATOM     34  C   UNL     1       1.266   2.345  19.581  0.00  0.00    +0.000 C 
ATOM     35  C   UNL     1       0.914   3.586  20.374  0.00  0.00    +0.000 C 
ENDBRANCH  33  35
ENDBRANCH  19  33
ENDBRANCH   1  21
TORSDOF 5
ENDMDL
MODEL 3
REMARK VINA RESULT:      -7.9      1.483      2.043
REMARK  Name = 
REMARK  8 active torsions:
REMARK  status: ('A' for Active; 'I' for Inactive)
REMARK    1  A    between atoms: C_1  and  C_2
REMARK    2  A    between atoms: C_2  and  O_3
REMARK    3  A    between atoms: O_3  and  C_4
REMARK    4  A    between atoms: C_6  and  N_7
REMARK    5  A    between atoms: C_10  and  C_11
REMARK    6  A    between atoms: C_14  and  C_15
REMARK    7  A    between atoms: C_24  and  C_25
REMARK    8  A    between atoms: C_31  and  C_32
REMARK                            x       y       z     vdW  Elec       q    Type
REMARK                         _______ _______ _______ _____ _____    ______ ____
ROOT
ATOM      1  N   UNL     1       1.435   9.724  18.864  0.00  0.00    +0.000 N 
ATOM      2  C   UNL     1       0.842  10.430  19.906  0.00  0.00    +0.000 A 
ATOM      3  N   UNL     1       0.526   9.815  21.029  0.00  0.00    +0.000 NA
ATOM      4  C   UNL     1      -0.102  10.482  22.058  0.00  0.00    +0.000 A 
ATOM      5  C   UNL     1      -0.494   9.643  23.238  0.00  0.00    +0.000 C 
ATOM      6  C   UNL     1      -0.388  11.792  22.000  0.00  0.00    +0.000 A 
ATOM      7  N   UNL     1      -0.059  12.490  20.854  0.00  0.00    +0.000 N 
ATOM      8  C   UNL     1      -0.292  13.785  20.453  0.00  0.00    +0.000 A 
ATOM      9  C   UNL     1       0.148  13.831  19.142  0.00  0.00    +0.000 A 
ATOM     10  N   UNL     1       0.679  12.624  18.741  0.00  0.00    +0.000 NA
ATOM     11  C   UNL     1       0.524  11.845  19.790  0.00  0.00    +0.000 A 
ATOM     12  H   UNL     1       1.426  10.207  17.970  0.00  0.00    +0.000 HD
ENDROOT
BRANCH   8  13
ATOM     13  C   UNL     1      -0.923  14.869  21.234  0.00  0.00    +0.000 A 
ATOM     14  C   UNL     1      -2.186  15.475  21.076  0.00  0.00    +0.000 A 
ATOM     15  N   UNL     1      -2.385  16.471  21.943  0.00  0.00    +0.000 NA
ATOM     16  N   UNL     1      -1.251  16.492  22.664  0.00  0.00    +0.000 N 
ATOM     17  C   UNL     1      -0.354  15.529  22.296  0.00  0.00    +0.000 A 
ATOM     18  H   UNL     1      -1.152  17.201  23.382  0.00  0.00    +0.000 HD
ENDBRANCH   8  13
BRANCH   1  21
ATOM     19  C   UNL     1       2.277   6.286  19.798  0.00  0.00    +0.000 A 
ATOM     20  C   UNL     1       1.864   7.628  20.031  0.00  0.00    +0.000 A 
ATOM     21  C   UNL     1       1.865   8.432  18.918  0.00  0.00    +0.000 A 
ATOM     22  S   UNL     1       2.522   7.589  17.593  0.00  0.00    +0.000 S 
ATOM     23  C   UNL     1       2.674   6.096  18.484  0.00  0.00    +0.000 A 
BRANCH  23  24
ATOM     24  C   UNL     1       3.279   4.967  17.774  0.00  0.00    +0.000 C 
ATOM     25  O   UNL     1       2.578   4.022  17.393  0.00  0.00    +0.000 OA
ATOM     26  N   UNL     1       4.652   4.937  17.490  0.00  0.00    +0.000 N 
ATOM     27  C   UNL     1       5.156   3.939  16.548  0.00  0.00    +0.000 C 
ATOM     28  C   UNL     1       5.932   4.631  15.431  0.00  0.00    +0.000 C 
ATOM     29  C   UNL     1       7.057   5.501  15.995  0.00  0.00    +0.000 C 
ATOM     30  C   UNL     1       6.528   6.474  17.062  0.00  0.00    +0.000 C 
ATOM     31  C   UNL     1       7.672   7.251  17.704  0.00  0.00    +0.000 C 
ATOM     32  C   UNL     1       5.700   5.733  18.126  0.00  0.00    +0.000 C 
ENDBRANCH  23  24
BRANCH  19  33
ATOM     33  O   UNL     1       2.328   5.307  20.744  0.00  0.00    +0.000 OA
BRANCH  33  35
ATOM     34  C   UNL     1       1.595   3.077  21.363  0.00  0.00    +0.000 C 
ATOM     35  C   UNL     1       1.240   4.374  20.665  0.00  0.00    +0.000 C 
ENDBRANCH  33  35
ENDBRANCH  19  33
ENDBRANCH   1  21
TORSDOF 5
ENDMDL
MODEL 4
REMARK VINA RESULT:      -7.8      1.845      2.385
REMARK  Name = 
REMARK  8 active torsions:
REMARK  status: ('A' for Active; 'I' for Inactive)
REMARK    1  A    between atoms: C_1  and  C_2
REMARK    2  A    between atoms: C_2  and  O_3
REMARK    3  A    between atoms: O_3  and  C_4
REMARK    4  A    between atoms: C_6  and  N_7
REMARK    5  A    between atoms: C_10  and  C_11
REMARK    6  A    between atoms: C_14  and  C_15
REMARK    7  A    between atoms: C_24  and  C_25
REMARK    8  A    between atoms: C_31  and  C_32
REMARK                            x       y       z     vdW  Elec       q    Type
REMARK                         _______ _______ _______ _____ _____    ______ ____
ROOT
ATOM      1  N   UNL     1       1.318   7.091  21.245  0.00  0.00    +0.000 N 
ATOM      2  C   UNL     1       1.042   8.374  20.781  0.00  0.00    +0.000 A 
ATOM      3  N   UNL     1       1.462   8.752  19.589  0.00  0.00    +0.000 NA
ATOM      4  C   UNL     1       1.240  10.031  19.126  0.00  0.00    +0.000 A 
ATOM      5  C   UNL     1       1.855  10.361  17.798  0.00  0.00    +0.000 C 
ATOM      6  C   UNL     1       0.554  10.945  19.830  0.00  0.00    +0.000 A 
ATOM      7  N   UNL     1       0.073  10.593  21.077  0.00  0.00    +0.000 N 
ATOM      8  C   UNL     1      -0.572  11.306  22.061  0.00  0.00    +0.000 A 
ATOM      9  C   UNL     1      -0.651  10.433  23.131  0.00  0.00    +0.000 A 
ATOM     10  N   UNL     1      -0.115   9.200  22.823  0.00  0.00    +0.000 NA
ATOM     11  C   UNL     1       0.319   9.342  21.589  0.00  0.00    +0.000 A 
ATOM     12  H   UNL     1       1.171   6.964  22.242  0.00  0.00    +0.000 HD
ENDROOT
BRANCH   8  13
ATOM     13  C   UNL     1      -1.028  12.710  22.002  0.00  0.00    +0.000 A 
ATOM     14  C   UNL     1      -2.195  13.255  21.429  0.00  0.00    +0.000 A 
ATOM     15  N   UNL     1      -2.233  14.586  21.520  0.00  0.00    +0.000 NA
ATOM     16  N   UNL     1      -1.093  14.891  22.163  0.00  0.00    +0.000 N 
ATOM     17  C   UNL     1      -0.349  13.795  22.501  0.00  0.00    +0.000 A 
ATOM     18  H   UNL     1      -0.881  15.869  22.326  0.00  0.00    +0.000 HD
ENDBRANCH   8  13
BRANCH   1  21
ATOM     19  C   UNL     1       2.614   3.915  19.964  0.00  0.00    +0.000 A 
ATOM     20  C   UNL     1       2.078   4.794  20.947  0.00  0.00    +0.000 A 
ATOM     21  C   UNL     1       1.892   6.087  20.524  0.00  0.00    +0.000 A 
ATOM     22  S   UNL     1       2.519   6.280  18.953  0.00  0.00    +0.000 S 
ATOM     23  C   UNL     1       2.913   4.587  18.789  0.00  0.00    +0.000 A 
BRANCH  23  24
ATOM     24  C   UNL     1       3.574   4.184  17.546  0.00  0.00    +0.000 C 
ATOM     25  O   UNL     1       2.919   3.681  16.627  0.00  0.00    +0.000 OA
ATOM     26  N   UNL     1       4.950   4.377  17.359  0.00  0.00    +0.000 N 
ATOM     27  C   UNL     1       5.508   4.221  16.017  0.00  0.00    +0.000 C 
ATOM     28  C   UNL     1       6.268   5.484  15.624  0.00  0.00    +0.000 C 
ATOM     29  C   UNL     1       7.347   5.823  16.654  0.00  0.00    +0.000 C 
ATOM     30  C   UNL     1       6.764   5.881  18.076  0.00  0.00    +0.000 C 
ATOM     31  C   UNL     1       7.866   6.099  19.106  0.00  0.00    +0.000 C 
ATOM     32  C   UNL     1       5.956   4.611  18.394  0.00  0.00    +0.000 C 
ENDBRANCH  23  24
BRANCH  19  33
ATOM     33  O   UNL     1       2.856   2.587  20.149  0.00  0.00    +0.000 OA
BRANCH  33  35
ATOM     34  C   UNL     1       0.680   2.297  19.114  0.00  0.00    +0.000 C 
ATOM     35  C   UNL     1       2.075   1.737  19.297  0.00  0.00    +0.000 C 
ENDBRANCH  33  35
ENDBRANCH  19  33
ENDBRANCH   1  21
TORSDOF 5
ENDMDL
MODEL 5
REMARK VINA RESULT:      -7.8      1.826      2.348
REMARK  Name = 
REMARK  8 active torsions:
REMARK  status: ('A' for Active; 'I' for Inactive)
REMARK    1  A    between atoms: C_1  and  C_2
REMARK    2  A    between atoms: C_2  and  O_3
REMARK    3  A    between atoms: O_3  and  C_4
REMARK    4  A    between atoms: C_6  and  N_7
REMARK    5  A    between atoms: C_10  and  C_11
REMARK    6  A    between atoms: C_14  and  C_15
REMARK    7  A    between atoms: C_24  and  C_25
REMARK    8  A    between atoms: C_31  and  C_32
REMARK                            x       y       z     vdW  Elec       q    Type
REMARK                         _______ _______ _______ _____ _____    ______ ____
ROOT
ATOM      1  N   UNL     1       1.239   7.018  21.286  0.00  0.00    +0.000 N 
ATOM      2  C   UNL     1       1.016   8.318  20.840  0.00  0.00    +0.000 A 
ATOM      3  N   UNL     1       1.440   8.693  19.649  0.00  0.00    +0.000 NA
ATOM      4  C   UNL     1       1.270   9.985  19.204  0.00  0.00    +0.000 A 
ATOM      5  C   UNL     1       1.887  10.305  17.874  0.00  0.00    +0.000 C 
ATOM      6  C   UNL     1       0.631  10.920  19.925  0.00  0.00    +0.000 A 
ATOM      7  N   UNL     1       0.147  10.574  21.173  0.00  0.00    +0.000 N 
ATOM      8  C   UNL     1      -0.457  11.302  22.172  0.00  0.00    +0.000 A 
ATOM      9  C   UNL     1      -0.564  10.420  23.232  0.00  0.00    +0.000 A 
ATOM     10  N   UNL     1      -0.086   9.169  22.904  0.00  0.00    +0.000 NA
ATOM     11  C   UNL     1       0.342   9.307  21.668  0.00  0.00    +0.000 A 
ATOM     12  H   UNL     1       1.095   6.886  22.283  0.00  0.00    +0.000 HD
ENDROOT
BRANCH   8  13
ATOM     13  C   UNL     1      -0.851  12.725  22.135  0.00  0.00    +0.000 A 
ATOM     14  C   UNL     1      -0.049  13.878  22.008  0.00  0.00    +0.000 A 
ATOM     15  N   UNL     1      -0.764  15.005  22.076  0.00  0.00    +0.000 NA
ATOM     16  N   UNL     1      -2.025  14.569  22.234  0.00  0.00    +0.000 N 
ATOM     17  C   UNL     1      -2.133  13.206  22.245  0.00  0.00    +0.000 A 
ATOM     18  H   UNL     1      -2.761  15.257  22.342  0.00  0.00    +0.000 HD
ENDBRANCH   8  13
BRANCH   1  21
ATOM     19  C   UNL     1       2.380   3.806  19.953  0.00  0.00    +0.000 A 
ATOM     20  C   UNL     1       1.891   4.694  20.952  0.00  0.00    +0.000 A 
ATOM     21  C   UNL     1       1.761   6.000  20.547  0.00  0.00    +0.000 A 
ATOM     22  S   UNL     1       2.385   6.185  18.974  0.00  0.00    +0.000 S 
ATOM     23  C   UNL     1       2.700   4.479  18.785  0.00  0.00    +0.000 A 
BRANCH  23  24
ATOM     24  C   UNL     1       3.333   4.064  17.531  0.00  0.00    +0.000 C 
ATOM     25  O   UNL     1       2.659   3.546  16.634  0.00  0.00    +0.000 OA
ATOM     26  N   UNL     1       4.704   4.260  17.309  0.00  0.00    +0.000 N 
ATOM     27  C   UNL     1       5.230   4.089  15.956  0.00  0.00    +0.000 C 
ATOM     28  C   UNL     1       5.975   5.352  15.529  0.00  0.00    +0.000 C 
ATOM     29  C   UNL     1       7.076   5.708  16.528  0.00  0.00    +0.000 C 
ATOM     30  C   UNL     1       6.527   5.780  17.963  0.00  0.00    +0.000 C 
ATOM     31  C   UNL     1       7.652   6.016  18.964  0.00  0.00    +0.000 C 
ATOM     32  C   UNL     1       5.733   4.511  18.316  0.00  0.00    +0.000 C 
ENDBRANCH  23  24
BRANCH  19  33
ATOM     33  O   UNL     1       2.563   2.466  20.119  0.00  0.00    +0.000 OA
BRANCH  33  35
ATOM     34  C   UNL     1       4.853   1.742  20.471  0.00  0.00    +0.000 C 
ATOM     35  C   UNL     1       3.541   2.137  21.116  0.00  0.00    +0.000 C 
ENDBRANCH  33  35
ENDBRANCH  19  33
ENDBRANCH   1  21
TORSDOF 5
ENDMDL
MODEL 6
REMARK VINA RESULT:      -7.5      1.010      1.094
REMARK  Name = 
REMARK  8 active torsions:
REMARK  status: ('A' for Active; 'I' for Inactive)
REMARK    1  A    between atoms: C_1  and  C_2
REMARK    2  A    between atoms: C_2  and  O_3
REMARK    3  A    between atoms: O_3  and  C_4
REMARK    4  A    between atoms: C_6  and  N_7
REMARK    5  A    between atoms: C_10  and  C_11
REMARK    6  A    between atoms: C_14  and  C_15
REMARK    7  A    between atoms: C_24  and  C_25
REMARK    8  A    between atoms: C_31  and  C_32
REMARK                            x       y       z     vdW  Elec       q    Type
REMARK                         _______ _______ _______ _____ _____    ______ ____
ROOT
ATOM      1  N   UNL     1       2.250  10.016  19.125  0.00  0.00    +0.000 N 
ATOM      2  C   UNL     1       1.131  10.828  18.957  0.00  0.00    +0.000 A 
ATOM      3  N   UNL     1      -0.029  10.298  18.623  0.00  0.00    +0.000 NA
ATOM      4  C   UNL     1      -1.139  11.085  18.408  0.00  0.00    +0.000 A 
ATOM      5  C   UNL     1      -2.368  10.366  17.937  0.00  0.00    +0.000 C 
ATOM      6  C   UNL     1      -1.121  12.417  18.565  0.00  0.00    +0.000 A 
ATOM      7  N   UNL     1       0.065  13.022  18.936  0.00  0.00    +0.000 N 
ATOM      8  C   UNL     1       0.430  14.340  19.088  0.00  0.00    +0.000 A 
ATOM      9  C   UNL     1       1.793  14.301  19.322  0.00  0.00    +0.000 A 
ATOM     10  N   UNL     1       2.266  13.007  19.360  0.00  0.00    +0.000 NA
ATOM     11  C   UNL     1       1.203  12.273  19.111  0.00  0.00    +0.000 A 
ATOM     12  H   UNL     1       3.133  10.517  19.147  0.00  0.00    +0.000 HD
ENDROOT
BRANCH   8  13
ATOM     13  C   UNL     1      -0.434  15.532  18.970  0.00  0.00    +0.000 A 
ATOM     14  C   UNL     1      -0.361  16.613  18.068  0.00  0.00    +0.000 A 
ATOM     15  N   UNL     1      -1.288  17.542  18.310  0.00  0.00    +0.000 NA
ATOM     16  N   UNL     1      -1.963  17.048  19.362  0.00  0.00    +0.000 N 
ATOM     17  C   UNL     1      -1.507  15.828  19.776  0.00  0.00    +0.000 A 
ATOM     18  H   UNL     1      -2.714  17.604  19.754  0.00  0.00    +0.000 HD
ENDBRANCH   8  13
BRANCH   1  21
ATOM     19  C   UNL     1       1.823   6.443  19.795  0.00  0.00    +0.000 A 
ATOM     20  C   UNL     1       1.787   7.832  20.103  0.00  0.00    +0.000 A 
ATOM     21  C   UNL     1       2.257   8.654  19.108  0.00  0.00    +0.000 A 
ATOM     22  S   UNL     1       2.894   7.720  17.835  0.00  0.00    +0.000 S 
ATOM     23  C   UNL     1       2.409   6.209  18.561  0.00  0.00    +0.000 A 
BRANCH  23  24
ATOM     24  C   UNL     1       2.786   4.987  17.847  0.00  0.00    +0.000 C 
ATOM     25  O   UNL     1       1.925   4.310  17.273  0.00  0.00    +0.000 OA
ATOM     26  N   UNL     1       4.122   4.568  17.778  0.00  0.00    +0.000 N 
ATOM     27  C   UNL     1       4.482   3.512  16.833  0.00  0.00    +0.000 C 
ATOM     28  C   UNL     1       5.606   3.996  15.922  0.00  0.00    +0.000 C 
ATOM     29  C   UNL     1       6.812   4.468  16.735  0.00  0.00    +0.000 C 
ATOM     30  C   UNL     1       6.400   5.502  17.797  0.00  0.00    +0.000 C 
ATOM     31  C   UNL     1       7.585   5.875  18.680  0.00  0.00    +0.000 C 
ATOM     32  C   UNL     1       5.223   4.987  18.643  0.00  0.00    +0.000 C 
ENDBRANCH  23  24
BRANCH  19  33
ATOM     33  O   UNL     1       1.384   5.448  20.616  0.00  0.00    +0.000 OA
BRANCH  33  35
ATOM     34  C   UNL     1       1.940   3.294  21.588  0.00  0.00    +0.000 C 
ATOM     35  C   UNL     1       2.443   4.665  21.188  0.00  0.00    +0.000 C 
ENDBRANCH  33  35
ENDBRANCH  19  33
ENDBRANCH   1  21
TORSDOF 5
ENDMDL
MODEL 7
REMARK VINA RESULT:      -7.4      2.281      4.149
REMARK  Name = 
REMARK  8 active torsions:
REMARK  status: ('A' for Active; 'I' for Inactive)
REMARK    1  A    between atoms: C_1  and  C_2
REMARK    2  A    between atoms: C_2  and  O_3
REMARK    3  A    between atoms: O_3  and  C_4
REMARK    4  A    between atoms: C_6  and  N_7
REMARK    5  A    between atoms: C_10  and  C_11
REMARK    6  A    between atoms: C_14  and  C_15
REMARK    7  A    between atoms: C_24  and  C_25
REMARK    8  A    between atoms: C_31  and  C_32
REMARK                            x       y       z     vdW  Elec       q    Type
REMARK                         _______ _______ _______ _____ _____    ______ ____
ROOT
ATOM      1  N   UNL     1       1.256   8.977  18.015  0.00  0.00    +0.000 N 
ATOM      2  C   UNL     1       0.701   9.617  19.119  0.00  0.00    +0.000 A 
ATOM      3  N   UNL     1       1.071   9.279  20.338  0.00  0.00    +0.000 NA
ATOM      4  C   UNL     1       0.504   9.866  21.447  0.00  0.00    +0.000 A 
ATOM      5  C   UNL     1       0.942   9.320  22.774  0.00  0.00    +0.000 C 
ATOM      6  C   UNL     1      -0.417  10.839  21.358  0.00  0.00    +0.000 A 
ATOM      7  N   UNL     1      -0.826  11.247  20.102  0.00  0.00    +0.000 N 
ATOM      8  C   UNL     1      -1.791  12.131  19.679  0.00  0.00    +0.000 A 
ATOM      9  C   UNL     1      -1.820  11.986  18.304  0.00  0.00    +0.000 A 
ATOM     10  N   UNL     1      -0.881  11.077  17.867  0.00  0.00    +0.000 NA
ATOM     11  C   UNL     1      -0.316  10.648  18.976  0.00  0.00    +0.000 A 
ATOM     12  H   UNL     1       0.754   9.127  17.145  0.00  0.00    +0.000 HD
ENDROOT
BRANCH   8  13
ATOM     13  C   UNL     1      -2.643  13.000  20.516  0.00  0.00    +0.000 A 
ATOM     14  C   UNL     1      -2.277  14.002  21.439  0.00  0.00    +0.000 A 
ATOM     15  N   UNL     1      -3.334  14.537  22.056  0.00  0.00    +0.000 NA
ATOM     16  N   UNL     1      -4.377  13.883  21.517  0.00  0.00    +0.000 N 
ATOM     17  C   UNL     1      -4.016  12.972  20.565  0.00  0.00    +0.000 A 
ATOM     18  H   UNL     1      -5.307  14.101  21.857  0.00  0.00    +0.000 HD
ENDBRANCH   8  13
BRANCH   1  21
ATOM     19  C   UNL     1       4.329   7.061  17.474  0.00  0.00    +0.000 A 
ATOM     20  C   UNL     1       3.337   8.034  17.165  0.00  0.00    +0.000 A 
ATOM     21  C   UNL     1       2.284   8.082  18.045  0.00  0.00    +0.000 A 
ATOM     22  S   UNL     1       2.420   6.824  19.183  0.00  0.00    +0.000 S 
ATOM     23  C   UNL     1       3.971   6.302  18.577  0.00  0.00    +0.000 A 
BRANCH  23  24
ATOM     24  C   UNL     1       4.566   5.128  19.219  0.00  0.00    +0.000 C 
ATOM     25  O   UNL     1       5.701   5.191  19.705  0.00  0.00    +0.000 OA
ATOM     26  N   UNL     1       3.862   3.919  19.319  0.00  0.00    +0.000 N 
ATOM     27  C   UNL     1       4.377   2.874  20.203  0.00  0.00    +0.000 C 
ATOM     28  C   UNL     1       3.295   2.459  21.196  0.00  0.00    +0.000 C 
ATOM     29  C   UNL     1       2.021   2.018  20.473  0.00  0.00    +0.000 C 
ATOM     30  C   UNL     1       1.551   3.084  19.469  0.00  0.00    +0.000 C 
ATOM     31  C   UNL     1       0.353   2.585  18.669  0.00  0.00    +0.000 C 
ATOM     32  C   UNL     1       2.697   3.511  18.537  0.00  0.00    +0.000 C 
ENDBRANCH  23  24
BRANCH  19  33
ATOM     33  O   UNL     1       5.471   6.854  16.761  0.00  0.00    +0.000 OA
BRANCH  33  35
ATOM     34  C   UNL     1       5.923   4.674  15.793  0.00  0.00    +0.000 C 
ATOM     35  C   UNL     1       5.282   6.032  15.599  0.00  0.00    +0.000 C 
ENDBRANCH  33  35
ENDBRANCH  19  33
ENDBRANCH   1  21
TORSDOF 5
ENDMDL
MODEL 8
REMARK VINA RESULT:      -6.9      2.197      2.844
REMARK  Name = 
REMARK  8 active torsions:
REMARK  status: ('A' for Active; 'I' for Inactive)
REMARK    1  A    between atoms: C_1  and  C_2
REMARK    2  A    between atoms: C_2  and  O_3
REMARK    3  A    between atoms: O_3  and  C_4
REMARK    4  A    between atoms: C_6  and  N_7
REMARK    5  A    between atoms: C_10  and  C_11
REMARK    6  A    between atoms: C_14  and  C_15
REMARK    7  A    between atoms: C_24  and  C_25
REMARK    8  A    between atoms: C_31  and  C_32
REMARK                            x       y       z     vdW  Elec       q    Type
REMARK                         _______ _______ _______ _____ _____    ______ ____
ROOT
ATOM      1  N   UNL     1       0.546   9.881  20.778  0.00  0.00    +0.000 N 
ATOM      2  C   UNL     1      -0.543  10.453  20.125  0.00  0.00    +0.000 A 
ATOM      3  N   UNL     1      -0.876  10.050  18.914  0.00  0.00    +0.000 NA
ATOM      4  C   UNL     1      -1.921  10.631  18.230  0.00  0.00    +0.000 A 
ATOM      5  C   UNL     1      -2.130  10.149  16.825  0.00  0.00    +0.000 C 
ATOM      6  C   UNL     1      -2.683  11.599  18.763  0.00  0.00    +0.000 A 
ATOM      7  N   UNL     1      -2.391  12.043  20.038  0.00  0.00    +0.000 N 
ATOM      8  C   UNL     1      -2.909  13.055  20.813  0.00  0.00    +0.000 A 
ATOM      9  C   UNL     1      -2.091  13.095  21.928  0.00  0.00    +0.000 A 
ATOM     10  N   UNL     1      -1.120  12.118  21.883  0.00  0.00    +0.000 NA
ATOM     11  C   UNL     1      -1.325  11.519  20.730  0.00  0.00    +0.000 A 
ATOM     12  H   UNL     1       0.871  10.402  21.588  0.00  0.00    +0.000 HD
ENDROOT
BRANCH   8  13
ATOM     13  C   UNL     1      -4.050  13.937  20.495  0.00  0.00    +0.000 A 
ATOM     14  C   UNL     1      -5.329  13.611  19.999  0.00  0.00    +0.000 A 
ATOM     15  N   UNL     1      -6.080  14.693  19.776  0.00  0.00    +0.000 NA
ATOM     16  N   UNL     1      -5.282  15.710  20.142  0.00  0.00    +0.000 N 
ATOM     17  C   UNL     1      -4.063  15.306  20.610  0.00  0.00    +0.000 A 
ATOM     18  H   UNL     1      -5.630  16.656  20.033  0.00  0.00    +0.000 HD
ENDBRANCH   8  13
BRANCH   1  21
ATOM     19  C   UNL     1       2.263   6.676  20.352  0.00  0.00    +0.000 A 
ATOM     20  C   UNL     1       1.578   7.693  21.075  0.00  0.00    +0.000 A 
ATOM     21  C   UNL     1       1.268   8.812  20.341  0.00  0.00    +0.000 A 
ATOM     22  S   UNL     1       1.951   8.694  18.786  0.00  0.00    +0.000 S 
ATOM     23  C   UNL     1       2.544   7.075  19.055  0.00  0.00    +0.000 A 
BRANCH  23  24
ATOM     24  C   UNL     1       3.312   6.468  17.965  0.00  0.00    +0.000 C 
ATOM     25  O   UNL     1       4.245   7.086  17.441  0.00  0.00    +0.000 OA
ATOM     26  N   UNL     1       3.027   5.174  17.507  0.00  0.00    +0.000 N 
ATOM     27  C   UNL     1       3.984   4.511  16.624  0.00  0.00    +0.000 C 
ATOM     28  C   UNL     1       4.383   3.161  17.214  0.00  0.00    +0.000 C 
ATOM     29  C   UNL     1       3.155   2.289  17.480  0.00  0.00    +0.000 C 
ATOM     30  C   UNL     1       2.110   3.039  18.323  0.00  0.00    +0.000 C 
ATOM     31  C   UNL     1       0.842   2.207  18.480  0.00  0.00    +0.000 C 
ATOM     32  C   UNL     1       1.794   4.417  17.717  0.00  0.00    +0.000 C 
ENDBRANCH  23  24
BRANCH  19  33
ATOM     33  O   UNL     1       2.645   5.473  20.865  0.00  0.00    +0.000 OA
BRANCH  33  35
ATOM     34  C   UNL     1       2.036   3.318  21.803  0.00  0.00    +0.000 C 
ATOM     35  C   UNL     1       1.546   4.596  21.154  0.00  0.00    +0.000 C 
ENDBRANCH  33  35
ENDBRANCH  19  33
ENDBRANCH   1  21
TORSDOF 5
ENDMDL
MODEL 9
REMARK VINA RESULT:      -6.9      3.748     10.406
REMARK  Name = 
REMARK  8 active torsions:
REMARK  status: ('A' for Active; 'I' for Inactive)
REMARK    1  A    between atoms: C_1  and  C_2
REMARK    2  A    between atoms: C_2  and  O_3
REMARK    3  A    between atoms: O_3  and  C_4
REMARK    4  A    between atoms: C_6  and  N_7
REMARK    5  A    between atoms: C_10  and  C_11
REMARK    6  A    between atoms: C_14  and  C_15
REMARK    7  A    between atoms: C_24  and  C_25
REMARK    8  A    between atoms: C_31  and  C_32
REMARK                            x       y       z     vdW  Elec       q    Type
REMARK                         _______ _______ _______ _____ _____    ______ ____
ROOT
ATOM      1  N   UNL     1       0.282  10.814  18.513  0.00  0.00    +0.000 N 
ATOM      2  C   UNL     1       0.798   9.728  19.215  0.00  0.00    +0.000 A 
ATOM      3  N   UNL     1       0.493   9.554  20.485  0.00  0.00    +0.000 NA
ATOM      4  C   UNL     1       1.026   8.513  21.213  0.00  0.00    +0.000 A 
ATOM      5  C   UNL     1       0.676   8.488  22.672  0.00  0.00    +0.000 C 
ATOM      6  C   UNL     1       1.845   7.598  20.671  0.00  0.00    +0.000 A 
ATOM      7  N   UNL     1       2.180   7.721  19.336  0.00  0.00    +0.000 N 
ATOM      8  C   UNL     1       3.043   7.021  18.524  0.00  0.00    +0.000 A 
ATOM      9  C   UNL     1       3.053   7.726  17.334  0.00  0.00    +0.000 A 
ATOM     10  N   UNL     1       2.197   8.805  17.374  0.00  0.00    +0.000 NA
ATOM     11  C   UNL     1       1.704   8.775  18.594  0.00  0.00    +0.000 A 
ATOM     12  H   UNL     1       0.746  11.002  17.628  0.00  0.00    +0.000 HD
ENDROOT
BRANCH   8  13
ATOM     13  C   UNL     1       3.826   5.817  18.871  0.00  0.00    +0.000 A 
ATOM     14  C   UNL     1       5.223   5.629  18.899  0.00  0.00    +0.000 A 
ATOM     15  N   UNL     1       5.561   4.373  19.205  0.00  0.00    +0.000 NA
ATOM     16  N   UNL     1       4.377   3.763  19.383  0.00  0.00    +0.000 N 
ATOM     17  C   UNL     1       3.305   4.596  19.223  0.00  0.00    +0.000 A 
ATOM     18  H   UNL     1       4.376   2.772  19.598  0.00  0.00    +0.000 HD
ENDBRANCH   8  13
BRANCH   1  21
ATOM     19  C   UNL     1      -2.770  12.562  19.529  0.00  0.00    +0.000 A 
ATOM     20  C   UNL     1      -2.014  11.546  18.879  0.00  0.00    +0.000 A 
ATOM     21  C   UNL     1      -0.652  11.692  18.975  0.00  0.00    +0.000 A 
ATOM     22  S   UNL     1      -0.278  13.168  19.736  0.00  0.00    +0.000 S 
ATOM     23  C   UNL     1      -1.950  13.544  20.064  0.00  0.00    +0.000 A 
BRANCH  23  24
ATOM     24  C   UNL     1      -2.220  14.829  20.712  0.00  0.00    +0.000 C 
ATOM     25  O   UNL     1      -1.972  15.888  20.123  0.00  0.00    +0.000 OA
ATOM     26  N   UNL     1      -2.780  14.893  21.995  0.00  0.00    +0.000 N 
ATOM     27  C   UNL     1      -3.284  16.177  22.481  0.00  0.00    +0.000 C 
ATOM     28  C   UNL     1      -4.740  16.028  22.915  0.00  0.00    +0.000 C 
ATOM     29  C   UNL     1      -4.896  14.922  23.959  0.00  0.00    +0.000 C 
ATOM     30  C   UNL     1      -4.267  13.604  23.476  0.00  0.00    +0.000 C 
ATOM     31  C   UNL     1      -4.320  12.544  24.570  0.00  0.00    +0.000 C 
ATOM     32  C   UNL     1      -2.823  13.825  22.992  0.00  0.00    +0.000 C 
ENDBRANCH  23  24
BRANCH  19  33
ATOM     33  O   UNL     1      -4.130  12.609  19.589  0.00  0.00    +0.000 OA
BRANCH  33  35
ATOM     34  C   UNL     1      -5.831  11.075  18.783  0.00  0.00    +0.000 C 
ATOM     35  C   UNL     1      -4.775  12.096  18.413  0.00  0.00    +0.000 C 
ENDBRANCH  33  35
ENDBRANCH  19  33
ENDBRANCH   1  21
TORSDOF 5
ENDMDL
