MODEL 1
REMARK VINA RESULT:      -7.9      0.000      0.000
REMARK  Name = 
REMARK  9 active torsions:
REMARK  status: ('A' for Active; 'I' for Inactive)
REMARK    1  A    between atoms: C_1  and  C_2
REMARK    2  A    between atoms: C_2  and  O_3
REMARK    3  A    between atoms: O_3  and  C_4
REMARK    4  A    between atoms: C_4  and  C_6
REMARK    5  A    between atoms: C_7  and  C_8
REMARK    6  A    between atoms: C_12  and  O_13
REMARK    7  A    between atoms: O_13  and  C_14
REMARK    8  A    between atoms: C_22  and  O_23
REMARK    9  A    between atoms: O_23  and  C_24
REMARK                            x       y       z     vdW  Elec       q    Type
REMARK                         _______ _______ _______ _____ _____    ______ ____
ROOT
ATOM      1  C   UNL     1       4.047   5.205  18.650  0.00  0.00    +0.000 A 
ATOM      2  C   UNL     1       4.400   5.970  17.593  0.00  0.00    +0.000 A 
ATOM      3  N   UNL     1       3.914   7.245  17.371  0.00  0.00    +0.000 N 
ATOM      4  C   UNL     1       2.910   7.801  18.169  0.00  0.00    +0.000 A 
ATOM      5  C   UNL     1       2.407   9.079  17.923  0.00  0.00    +0.000 A 
ATOM      6  C   UNL     1       1.422   9.636  18.751  0.00  0.00    +0.000 A 
ATOM      7  C   UNL     1       0.929   8.901  19.831  0.00  0.00    +0.000 A 
ATOM      8  C   UNL     1       1.439   7.631  20.097  0.00  0.00    +0.000 A 
ATOM      9  C   UNL     1       2.439   7.096  19.280  0.00  0.00    +0.000 A 
ATOM     10  C   UNL     1       3.030   5.774  19.593  0.00  0.00    +0.000 A 
ATOM     11  O   UNL     1       2.677   5.199  20.618  0.00  0.00    +0.000 OA
ATOM     12  H   UNL     1       4.154   7.700  16.496  0.00  0.00    +0.000 HD
ENDROOT
BRANCH   2  13
ATOM     13  C   UNL     1       5.295   5.475  16.524  0.00  0.00    +0.000 A 
ATOM     14  C   UNL     1       6.658   5.795  16.523  0.00  0.00    +0.000 A 
ATOM     15  C   UNL     1       7.498   5.259  15.550  0.00  0.00    +0.000 A 
ATOM     16  C   UNL     1       6.982   4.397  14.583  0.00  0.00    +0.000 A 
ATOM     17  C   UNL     1       5.624   4.061  14.576  0.00  0.00    +0.000 A 
ATOM     18  C   UNL     1       4.775   4.637  15.520  0.00  0.00    +0.000 A 
BRANCH  17  19
ATOM     19  O   UNL     1       5.254   3.208  13.581  0.00  0.00    +0.000 OA
BRANCH  19  20
ATOM     20  C   UNL     1       5.730   3.416  12.259  0.00  0.00    +0.000 C 
ATOM     21  F   UNL     1       6.319   2.339  11.700  0.00  0.00    +0.000 F 
ATOM     22  F   UNL     1       4.698   3.799  11.475  0.00  0.00    +0.000 F 
ATOM     23  F   UNL     1       6.637   4.418  12.279  0.00  0.00    +0.000 F 
ENDBRANCH  19  20
ENDBRANCH  17  19
ENDBRANCH   2  13
BRANCH   1  24
ATOM     24  C   UNL     1       4.586   3.840  18.848  0.00  0.00    +0.000 C 
ATOM     25  O   UNL     1       5.612   3.561  19.444  0.00  0.00    +0.000 OA
BRANCH  24  26
ATOM     26  O   UNL     1       3.815   2.946  18.180  0.00  0.00    +0.000 OA
BRANCH  26  28
ATOM     27  C   UNL     1       1.574   2.375  18.651  0.00  0.00    +0.000 C 
ATOM     28  C   UNL     1       3.022   2.066  18.982  0.00  0.00    +0.000 C 
ENDBRANCH  26  28
ENDBRANCH  24  26
ENDBRANCH   1  24
BRANCH   6  29
ATOM     29  O   UNL     1       1.030  10.899  18.401  0.00  0.00    +0.000 OA
ATOM     30  C   UNL     1      -0.008  11.485  19.179  0.00  0.00    +0.000 C 
ENDBRANCH   6  29
TORSDOF 7
ENDMDL
MODEL 2
REMARK VINA RESULT:      -7.8      4.016      7.626
REMARK  Name = 
REMARK  9 active torsions:
REMARK  status: ('A' for Active; 'I' for Inactive)
REMARK    1  A    between atoms: C_1  and  C_2
REMARK    2  A    between atoms: C_2  and  O_3
REMARK    3  A    between atoms: O_3  and  C_4
REMARK    4  A    between atoms: C_4  and  C_6
REMARK    5  A    between atoms: C_7  and  C_8
REMARK    6  A    between atoms: C_12  and  O_13
REMARK    7  A    between atoms: O_13  and  C_14
REMARK    8  A    between atoms: C_22  and  O_23
REMARK    9  A    between atoms: O_23  and  C_24
REMARK                            x       y       z     vdW  Elec       q    Type
REMARK                         _______ _______ _______ _____ _____    ______ ____
ROOT
ATOM      1  C   UNL     1       6.204   5.065  16.891  0.00  0.00    +0.000 A 
ATOM      2  C   UNL     1       4.895   4.762  16.737  0.00  0.00    +0.000 A 
ATOM      3  N   UNL     1       4.364   4.215  15.583  0.00  0.00    +0.000 N 
ATOM      4  C   UNL     1       5.131   4.047  14.427  0.00  0.00    +0.000 A 
ATOM      5  C   UNL     1       4.581   3.517  13.258  0.00  0.00    +0.000 A 
ATOM      6  C   UNL     1       5.369   3.324  12.115  0.00  0.00    +0.000 A 
ATOM      7  C   UNL     1       6.721   3.674  12.140  0.00  0.00    +0.000 A 
ATOM      8  C   UNL     1       7.285   4.186  13.308  0.00  0.00    +0.000 A 
ATOM      9  C   UNL     1       6.495   4.350  14.450  0.00  0.00    +0.000 A 
ATOM     10  C   UNL     1       7.100   4.833  15.712  0.00  0.00    +0.000 A 
ATOM     11  O   UNL     1       8.313   5.014  15.753  0.00  0.00    +0.000 OA
ATOM     12  H   UNL     1       3.356   4.121  15.522  0.00  0.00    +0.000 HD
ENDROOT
BRANCH   2  13
ATOM     13  C   UNL     1       3.887   5.063  17.777  0.00  0.00    +0.000 A 
ATOM     14  C   UNL     1       3.433   6.372  17.980  0.00  0.00    +0.000 A 
ATOM     15  C   UNL     1       2.431   6.624  18.913  0.00  0.00    +0.000 A 
ATOM     16  C   UNL     1       1.874   5.572  19.639  0.00  0.00    +0.000 A 
ATOM     17  C   UNL     1       2.311   4.257  19.441  0.00  0.00    +0.000 A 
ATOM     18  C   UNL     1       3.348   4.012  18.542  0.00  0.00    +0.000 A 
BRANCH  17  19
ATOM     19  O   UNL     1       1.682   3.327  20.210  0.00  0.00    +0.000 OA
BRANCH  19  20
ATOM     20  C   UNL     1       2.241   2.950  21.461  0.00  0.00    +0.000 C 
ATOM     21  F   UNL     1       3.404   2.273  21.373  0.00  0.00    +0.000 F 
ATOM     22  F   UNL     1       2.442   4.058  22.207  0.00  0.00    +0.000 F 
ATOM     23  F   UNL     1       1.354   2.163  22.109  0.00  0.00    +0.000 F 
ENDBRANCH  19  20
ENDBRANCH  17  19
ENDBRANCH   2  13
BRANCH   1  24
ATOM     24  C   UNL     1       6.731   5.656  18.142  0.00  0.00    +0.000 C 
ATOM     25  O   UNL     1       6.899   5.062  19.193  0.00  0.00    +0.000 OA
BRANCH  24  26
ATOM     26  O   UNL     1       6.912   6.990  17.973  0.00  0.00    +0.000 OA
BRANCH  26  28
ATOM     27  C   UNL     1       8.189   8.974  17.949  0.00  0.00    +0.000 C 
ATOM     28  C   UNL     1       8.186   7.514  18.358  0.00  0.00    +0.000 C 
ENDBRANCH  26  28
ENDBRANCH  24  26
ENDBRANCH   1  24
BRANCH   6  29
ATOM     29  O   UNL     1       4.705   2.787  11.047  0.00  0.00    +0.000 OA
ATOM     30  C   UNL     1       3.436   3.348  10.735  0.00  0.00    +0.000 C 
ENDBRANCH   6  29
TORSDOF 7
ENDMDL
MODEL 3
REMARK VINA RESULT:      -7.8      3.761      7.594
REMARK  Name = 
REMARK  9 active torsions:
REMARK  status: ('A' for Active; 'I' for Inactive)
REMARK    1  A    between atoms: C_1  and  C_2
REMARK    2  A    between atoms: C_2  and  O_3
REMARK    3  A    between atoms: O_3  and  C_4
REMARK    4  A    between atoms: C_4  and  C_6
REMARK    5  A    between atoms: C_7  and  C_8
REMARK    6  A    between atoms: C_12  and  O_13
REMARK    7  A    between atoms: O_13  and  C_14
REMARK    8  A    between atoms: C_22  and  O_23
REMARK    9  A    between atoms: O_23  and  C_24
REMARK                            x       y       z     vdW  Elec       q    Type
REMARK                         _______ _______ _______ _____ _____    ______ ____
ROOT
ATOM      1  C   UNL     1       6.530   5.415  16.501  0.00  0.00    +0.000 A 
ATOM      2  C   UNL     1       5.229   5.044  16.529  0.00  0.00    +0.000 A 
ATOM      3  N   UNL     1       4.597   4.384  15.492  0.00  0.00    +0.000 N 
ATOM      4  C   UNL     1       5.230   4.155  14.268  0.00  0.00    +0.000 A 
ATOM      5  C   UNL     1       4.576   3.509  13.218  0.00  0.00    +0.000 A 
ATOM      6  C   UNL     1       5.234   3.258  12.006  0.00  0.00    +0.000 A 
ATOM      7  C   UNL     1       6.559   3.666  11.841  0.00  0.00    +0.000 A 
ATOM      8  C   UNL     1       7.229   4.294  12.890  0.00  0.00    +0.000 A 
ATOM      9  C   UNL     1       6.570   4.517  14.103  0.00  0.00    +0.000 A 
ATOM     10  C   UNL     1       7.293   5.127  15.243  0.00  0.00    +0.000 A 
ATOM     11  O   UNL     1       8.492   5.362  15.123  0.00  0.00    +0.000 OA
ATOM     12  H   UNL     1       3.594   4.241  15.561  0.00  0.00    +0.000 HD
ENDROOT
BRANCH   2  13
ATOM     13  C   UNL     1       4.336   5.385  17.658  0.00  0.00    +0.000 A 
ATOM     14  C   UNL     1       3.743   6.650  17.747  0.00  0.00    +0.000 A 
ATOM     15  C   UNL     1       2.848   6.928  18.777  0.00  0.00    +0.000 A 
ATOM     16  C   UNL     1       2.536   5.943  19.713  0.00  0.00    +0.000 A 
ATOM     17  C   UNL     1       3.113   4.671  19.632  0.00  0.00    +0.000 A 
ATOM     18  C   UNL     1       4.047   4.410  18.630  0.00  0.00    +0.000 A 
BRANCH  17  19
ATOM     19  O   UNL     1       2.720   3.805  20.605  0.00  0.00    +0.000 OA
BRANCH  19  20
ATOM     20  C   UNL     1       1.562   3.004  20.414  0.00  0.00    +0.000 C 
ATOM     21  F   UNL     1       0.557   3.621  19.758  0.00  0.00    +0.000 F 
ATOM     22  F   UNL     1       1.904   1.891  19.729  0.00  0.00    +0.000 F 
ATOM     23  F   UNL     1       1.095   2.626  21.624  0.00  0.00    +0.000 F 
ENDBRANCH  19  20
ENDBRANCH  17  19
ENDBRANCH   2  13
BRANCH   1  24
ATOM     24  C   UNL     1       7.169   6.128  17.631  0.00  0.00    +0.000 C 
ATOM     25  O   UNL     1       7.427   5.646  18.720  0.00  0.00    +0.000 OA
BRANCH  24  26
ATOM     26  O   UNL     1       7.338   7.434  17.305  0.00  0.00    +0.000 OA
BRANCH  26  28
ATOM     27  C   UNL     1       8.133   9.628  17.654  0.00  0.00    +0.000 C 
ATOM     28  C   UNL     1       8.158   8.208  18.186  0.00  0.00    +0.000 C 
ENDBRANCH  26  28
ENDBRANCH  24  26
ENDBRANCH   1  24
BRANCH   6  29
ATOM     29  O   UNL     1       4.479   2.607  11.070  0.00  0.00    +0.000 OA
ATOM     30  C   UNL     1       3.351   3.308  10.558  0.00  0.00    +0.000 C 
ENDBRANCH   6  29
TORSDOF 7
ENDMDL
MODEL 4
REMARK VINA RESULT:      -7.8      4.504      8.359
REMARK  Name = 
REMARK  9 active torsions:
REMARK  status: ('A' for Active; 'I' for Inactive)
REMARK    1  A    between atoms: C_1  and  C_2
REMARK    2  A    between atoms: C_2  and  O_3
REMARK    3  A    between atoms: O_3  and  C_4
REMARK    4  A    between atoms: C_4  and  C_6
REMARK    5  A    between atoms: C_7  and  C_8
REMARK    6  A    between atoms: C_12  and  O_13
REMARK    7  A    between atoms: O_13  and  C_14
REMARK    8  A    between atoms: C_22  and  O_23
REMARK    9  A    between atoms: O_23  and  C_24
REMARK                            x       y       z     vdW  Elec       q    Type
REMARK                         _______ _______ _______ _____ _____    ______ ____
ROOT
ATOM      1  C   UNL     1       1.160   8.146  20.148  0.00  0.00    +0.000 A 
ATOM      2  C   UNL     1       1.263   9.011  19.113  0.00  0.00    +0.000 A 
ATOM      3  N   UNL     1       2.100   8.814  18.029  0.00  0.00    +0.000 N 
ATOM      4  C   UNL     1       3.007   7.752  17.981  0.00  0.00    +0.000 A 
ATOM      5  C   UNL     1       3.865   7.575  16.895  0.00  0.00    +0.000 A 
ATOM      6  C   UNL     1       4.748   6.488  16.845  0.00  0.00    +0.000 A 
ATOM      7  C   UNL     1       4.778   5.573  17.899  0.00  0.00    +0.000 A 
ATOM      8  C   UNL     1       3.911   5.729  18.980  0.00  0.00    +0.000 A 
ATOM      9  C   UNL     1       3.017   6.803  19.007  0.00  0.00    +0.000 A 
ATOM     10  C   UNL     1       2.050   6.941  20.120  0.00  0.00    +0.000 A 
ATOM     11  O   UNL     1       2.002   6.058  20.972  0.00  0.00    +0.000 OA
ATOM     12  H   UNL     1       2.188   9.567  17.355  0.00  0.00    +0.000 HD
ENDROOT
BRANCH   2  13
ATOM     13  C   UNL     1       0.535  10.298  19.084  0.00  0.00    +0.000 A 
ATOM     14  C   UNL     1       1.193  11.500  19.371  0.00  0.00    +0.000 A 
ATOM     15  C   UNL     1       0.509  12.709  19.267  0.00  0.00    +0.000 A 
ATOM     16  C   UNL     1      -0.827  12.721  18.868  0.00  0.00    +0.000 A 
ATOM     17  C   UNL     1      -1.495  11.529  18.569  0.00  0.00    +0.000 A 
ATOM     18  C   UNL     1      -0.824  10.316  18.722  0.00  0.00    +0.000 A 
BRANCH  17  19
ATOM     19  O   UNL     1      -2.793  11.684  18.190  0.00  0.00    +0.000 OA
BRANCH  19  20
ATOM     20  C   UNL     1      -3.224  11.191  16.929  0.00  0.00    +0.000 C 
ATOM     21  F   UNL     1      -2.321  11.326  15.936  0.00  0.00    +0.000 F 
ATOM     22  F   UNL     1      -3.539   9.883  17.051  0.00  0.00    +0.000 F 
ATOM     23  F   UNL     1      -4.341  11.860  16.565  0.00  0.00    +0.000 F 
ENDBRANCH  19  20
ENDBRANCH  17  19
ENDBRANCH   2  13
BRANCH   1  24
ATOM     24  C   UNL     1       0.256   8.397  21.294  0.00  0.00    +0.000 C 
ATOM     25  O   UNL     1      -0.862   7.932  21.431  0.00  0.00    +0.000 OA
BRANCH  24  26
ATOM     26  O   UNL     1       0.822   9.305  22.128  0.00  0.00    +0.000 OA
BRANCH  26  28
ATOM     27  C   UNL     1      -0.683  11.059  22.600  0.00  0.00    +0.000 C 
ATOM     28  C   UNL     1      -0.014   9.823  23.167  0.00  0.00    +0.000 C 
ENDBRANCH  26  28
ENDBRANCH  24  26
ENDBRANCH   1  24
BRANCH   6  29
ATOM     29  O   UNL     1       5.521   6.431  15.718  0.00  0.00    +0.000 OA
ATOM     30  C   UNL     1       5.631   5.163  15.082  0.00  0.00    +0.000 C 
ENDBRANCH   6  29
TORSDOF 7
ENDMDL
MODEL 5
REMARK VINA RESULT:      -7.8      4.578      7.718
REMARK  Name = 
REMARK  9 active torsions:
REMARK  status: ('A' for Active; 'I' for Inactive)
REMARK    1  A    between atoms: C_1  and  C_2
REMARK    2  A    between atoms: C_2  and  O_3
REMARK    3  A    between atoms: O_3  and  C_4
REMARK    4  A    between atoms: C_4  and  C_6
REMARK    5  A    between atoms: C_7  and  C_8
REMARK    6  A    between atoms: C_12  and  O_13
REMARK    7  A    between atoms: O_13  and  C_14
REMARK    8  A    between atoms: C_22  and  O_23
REMARK    9  A    between atoms: O_23  and  C_24
REMARK                            x       y       z     vdW  Elec       q    Type
REMARK                         _______ _______ _______ _____ _____    ______ ____
ROOT
ATOM      1  C   UNL     1       3.027   5.289  18.837  0.00  0.00    +0.000 A 
ATOM      2  C   UNL     1       3.045   6.486  18.206  0.00  0.00    +0.000 A 
ATOM      3  N   UNL     1       3.823   6.756  17.095  0.00  0.00    +0.000 N 
ATOM      4  C   UNL     1       4.755   5.837  16.607  0.00  0.00    +0.000 A 
ATOM      5  C   UNL     1       5.554   6.127  15.499  0.00  0.00    +0.000 A 
ATOM      6  C   UNL     1       6.464   5.184  15.001  0.00  0.00    +0.000 A 
ATOM      7  C   UNL     1       6.581   3.940  15.624  0.00  0.00    +0.000 A 
ATOM      8  C   UNL     1       5.774   3.632  16.719  0.00  0.00    +0.000 A 
ATOM      9  C   UNL     1       4.853   4.571  17.192  0.00  0.00    +0.000 A 
ATOM     10  C   UNL     1       3.949   4.229  18.314  0.00  0.00    +0.000 A 
ATOM     11  O   UNL     1       3.976   3.089  18.766  0.00  0.00    +0.000 OA
ATOM     12  H   UNL     1       3.850   7.711  16.755  0.00  0.00    +0.000 HD
ENDROOT
BRANCH   2  13
ATOM     13  C   UNL     1       2.280   7.651  18.701  0.00  0.00    +0.000 A 
ATOM     14  C   UNL     1       1.642   8.521  17.809  0.00  0.00    +0.000 A 
ATOM     15  C   UNL     1       0.866   9.570  18.296  0.00  0.00    +0.000 A 
ATOM     16  C   UNL     1       0.718   9.747  19.672  0.00  0.00    +0.000 A 
ATOM     17  C   UNL     1       1.343   8.880  20.575  0.00  0.00    +0.000 A 
ATOM     18  C   UNL     1       2.160   7.861  20.087  0.00  0.00    +0.000 A 
BRANCH  17  19
ATOM     19  O   UNL     1       1.114   9.164  21.886  0.00  0.00    +0.000 OA
BRANCH  19  20
ATOM     20  C   UNL     1      -0.218   9.196  22.380  0.00  0.00    +0.000 C 
ATOM     21  F   UNL     1      -0.902  10.317  22.073  0.00  0.00    +0.000 F 
ATOM     22  F   UNL     1      -0.895   8.132  21.894  0.00  0.00    +0.000 F 
ATOM     23  F   UNL     1      -0.181   9.091  23.727  0.00  0.00    +0.000 F 
ENDBRANCH  19  20
ENDBRANCH  17  19
ENDBRANCH   2  13
BRANCH   1  24
ATOM     24  C   UNL     1       2.185   5.043  20.030  0.00  0.00    +0.000 C 
ATOM     25  O   UNL     1       2.531   5.196  21.188  0.00  0.00    +0.000 OA
BRANCH  24  26
ATOM     26  O   UNL     1       0.992   4.526  19.643  0.00  0.00    +0.000 OA
BRANCH  26  28
ATOM     27  C   UNL     1       0.709   2.340  18.801  0.00  0.00    +0.000 C 
ATOM     28  C   UNL     1       0.714   3.186  20.060  0.00  0.00    +0.000 C 
ENDBRANCH  26  28
ENDBRANCH  24  26
ENDBRANCH   1  24
BRANCH   6  29
ATOM     29  O   UNL     1       7.171   5.596  13.905  0.00  0.00    +0.000 OA
ATOM     30  C   UNL     1       7.369   4.636  12.874  0.00  0.00    +0.000 C 
ENDBRANCH   6  29
TORSDOF 7
ENDMDL
MODEL 6
REMARK VINA RESULT:      -7.6      2.609      3.701
REMARK  Name = 
REMARK  9 active torsions:
REMARK  status: ('A' for Active; 'I' for Inactive)
REMARK    1  A    between atoms: C_1  and  C_2
REMARK    2  A    between atoms: C_2  and  O_3
REMARK    3  A    between atoms: O_3  and  C_4
REMARK    4  A    between atoms: C_4  and  C_6
REMARK    5  A    between atoms: C_7  and  C_8
REMARK    6  A    between atoms: C_12  and  O_13
REMARK    7  A    between atoms: O_13  and  C_14
REMARK    8  A    between atoms: C_22  and  O_23
REMARK    9  A    between atoms: O_23  and  C_24
REMARK                            x       y       z     vdW  Elec       q    Type
REMARK                         _______ _______ _______ _____ _____    ______ ____
ROOT
ATOM      1  C   UNL     1       1.767   6.487  20.352  0.00  0.00    +0.000 A 
ATOM      2  C   UNL     1       2.488   6.727  19.233  0.00  0.00    +0.000 A 
ATOM      3  N   UNL     1       2.544   7.958  18.605  0.00  0.00    +0.000 N 
ATOM      4  C   UNL     1       1.749   9.031  19.015  0.00  0.00    +0.000 A 
ATOM      5  C   UNL     1       1.792  10.263  18.360  0.00  0.00    +0.000 A 
ATOM      6  C   UNL     1       1.012  11.341  18.800  0.00  0.00    +0.000 A 
ATOM      7  C   UNL     1       0.173  11.181  19.904  0.00  0.00    +0.000 A 
ATOM      8  C   UNL     1       0.136   9.961  20.579  0.00  0.00    +0.000 A 
ATOM      9  C   UNL     1       0.937   8.901  20.145  0.00  0.00    +0.000 A 
ATOM     10  C   UNL     1       0.951   7.622  20.893  0.00  0.00    +0.000 A 
ATOM     11  O   UNL     1       0.305   7.541  21.934  0.00  0.00    +0.000 OA
ATOM     12  H   UNL     1       3.025   8.015  17.713  0.00  0.00    +0.000 HD
ENDROOT
BRANCH   2  13
ATOM     13  C   UNL     1       3.232   5.660  18.529  0.00  0.00    +0.000 A 
ATOM     14  C   UNL     1       2.654   4.970  17.457  0.00  0.00    +0.000 A 
ATOM     15  C   UNL     1       3.396   4.019  16.760  0.00  0.00    +0.000 A 
ATOM     16  C   UNL     1       4.717   3.762  17.126  0.00  0.00    +0.000 A 
ATOM     17  C   UNL     1       5.311   4.450  18.189  0.00  0.00    +0.000 A 
ATOM     18  C   UNL     1       4.552   5.366  18.918  0.00  0.00    +0.000 A 
BRANCH  17  19
ATOM     19  O   UNL     1       6.604   4.107  18.438  0.00  0.00    +0.000 OA
BRANCH  19  20
ATOM     20  C   UNL     1       7.646   4.648  17.638  0.00  0.00    +0.000 C 
ATOM     21  F   UNL     1       7.493   4.455  16.312  0.00  0.00    +0.000 F 
ATOM     22  F   UNL     1       7.737   5.976  17.873  0.00  0.00    +0.000 F 
ATOM     23  F   UNL     1       8.814   4.077  18.007  0.00  0.00    +0.000 F 
ENDBRANCH  19  20
ENDBRANCH  17  19
ENDBRANCH   2  13
BRANCH   1  24
ATOM     24  C   UNL     1       1.729   5.152  20.991  0.00  0.00    +0.000 C 
ATOM     25  O   UNL     1       2.493   4.755  21.853  0.00  0.00    +0.000 OA
BRANCH  24  26
ATOM     26  O   UNL     1       0.769   4.395  20.402  0.00  0.00    +0.000 OA
BRANCH  26  28
ATOM     27  C   UNL     1       0.654   2.511  18.986  0.00  0.00    +0.000 C 
ATOM     28  C   UNL     1       0.994   2.982  20.387  0.00  0.00    +0.000 C 
ENDBRANCH  26  28
ENDBRANCH  24  26
ENDBRANCH   1  24
BRANCH   6  29
ATOM     29  O   UNL     1       1.164  12.490  18.074  0.00  0.00    +0.000 OA
ATOM     30  C   UNL     1       0.202  13.516  18.294  0.00  0.00    +0.000 C 
ENDBRANCH   6  29
TORSDOF 7
ENDMDL
MODEL 7
REMARK VINA RESULT:      -7.5      4.580      7.716
REMARK  Name = 
REMARK  9 active torsions:
REMARK  status: ('A' for Active; 'I' for Inactive)
REMARK    1  A    between atoms: C_1  and  C_2
REMARK    2  A    between atoms: C_2  and  O_3
REMARK    3  A    between atoms: O_3  and  C_4
REMARK    4  A    between atoms: C_4  and  C_6
REMARK    5  A    between atoms: C_7  and  C_8
REMARK    6  A    between atoms: C_12  and  O_13
REMARK    7  A    between atoms: O_13  and  C_14
REMARK    8  A    between atoms: C_22  and  O_23
REMARK    9  A    between atoms: O_23  and  C_24
REMARK                            x       y       z     vdW  Elec       q    Type
REMARK                         _______ _______ _______ _____ _____    ______ ____
ROOT
ATOM      1  C   UNL     1       2.936   5.016  18.402  0.00  0.00    +0.000 A 
ATOM      2  C   UNL     1       3.138   6.283  17.973  0.00  0.00    +0.000 A 
ATOM      3  N   UNL     1       4.066   6.628  17.008  0.00  0.00    +0.000 N 
ATOM      4  C   UNL     1       4.966   5.696  16.484  0.00  0.00    +0.000 A 
ATOM      5  C   UNL     1       5.917   6.058  15.528  0.00  0.00    +0.000 A 
ATOM      6  C   UNL     1       6.792   5.106  14.988  0.00  0.00    +0.000 A 
ATOM      7  C   UNL     1       6.721   3.779  15.416  0.00  0.00    +0.000 A 
ATOM      8  C   UNL     1       5.762   3.402  16.355  0.00  0.00    +0.000 A 
ATOM      9  C   UNL     1       4.878   4.355  16.869  0.00  0.00    +0.000 A 
ATOM     10  C   UNL     1       3.816   3.951  17.819  0.00  0.00    +0.000 A 
ATOM     11  O   UNL     1       3.686   2.760  18.086  0.00  0.00    +0.000 OA
ATOM     12  H   UNL     1       4.220   7.614  16.828  0.00  0.00    +0.000 HD
ENDROOT
BRANCH   2  13
ATOM     13  C   UNL     1       2.425   7.438  18.561  0.00  0.00    +0.000 A 
ATOM     14  C   UNL     1       1.849   8.417  17.743  0.00  0.00    +0.000 A 
ATOM     15  C   UNL     1       1.119   9.458  18.312  0.00  0.00    +0.000 A 
ATOM     16  C   UNL     1       0.957   9.519  19.696  0.00  0.00    +0.000 A 
ATOM     17  C   UNL     1       1.519   8.544  20.525  0.00  0.00    +0.000 A 
ATOM     18  C   UNL     1       2.291   7.530  19.958  0.00  0.00    +0.000 A 
BRANCH  17  19
ATOM     19  O   UNL     1       1.282   8.720  21.854  0.00  0.00    +0.000 OA
BRANCH  19  20
ATOM     20  C   UNL     1      -0.025   9.052  22.300  0.00  0.00    +0.000 C 
ATOM     21  F   UNL     1      -0.167   9.087  23.641  0.00  0.00    +0.000 F 
ATOM     22  F   UNL     1      -0.370  10.258  21.798  0.00  0.00    +0.000 F 
ATOM     23  F   UNL     1      -0.892   8.133  21.817  0.00  0.00    +0.000 F 
ENDBRANCH  19  20
ENDBRANCH  17  19
ENDBRANCH   2  13
BRANCH   1  24
ATOM     24  C   UNL     1       1.935   4.689  19.443  0.00  0.00    +0.000 C 
ATOM     25  O   UNL     1       0.737   4.561  19.261  0.00  0.00    +0.000 OA
BRANCH  24  26
ATOM     26  O   UNL     1       2.540   4.648  20.657  0.00  0.00    +0.000 OA
BRANCH  26  28
ATOM     27  C   UNL     1       2.851   2.436  21.417  0.00  0.00    +0.000 C 
ATOM     28  C   UNL     1       2.026   3.696  21.592  0.00  0.00    +0.000 C 
ENDBRANCH  26  28
ENDBRANCH  24  26
ENDBRANCH   1  24
BRANCH   6  29
ATOM     29  O   UNL     1       7.662   5.596  14.053  0.00  0.00    +0.000 OA
ATOM     30  C   UNL     1       7.633   4.984  12.769  0.00  0.00    +0.000 C 
ENDBRANCH   6  29
TORSDOF 7
ENDMDL
MODEL 8
REMARK VINA RESULT:      -7.4      3.870      7.202
REMARK  Name = 
REMARK  9 active torsions:
REMARK  status: ('A' for Active; 'I' for Inactive)
REMARK    1  A    between atoms: C_1  and  C_2
REMARK    2  A    between atoms: C_2  and  O_3
REMARK    3  A    between atoms: O_3  and  C_4
REMARK    4  A    between atoms: C_4  and  C_6
REMARK    5  A    between atoms: C_7  and  C_8
REMARK    6  A    between atoms: C_12  and  O_13
REMARK    7  A    between atoms: O_13  and  C_14
REMARK    8  A    between atoms: C_22  and  O_23
REMARK    9  A    between atoms: O_23  and  C_24
REMARK                            x       y       z     vdW  Elec       q    Type
REMARK                         _______ _______ _______ _____ _____    ______ ____
ROOT
ATOM      1  C   UNL     1       2.854   4.628  18.383  0.00  0.00    +0.000 A 
ATOM      2  C   UNL     1       3.048   5.938  18.104  0.00  0.00    +0.000 A 
ATOM      3  N   UNL     1       3.966   6.398  17.178  0.00  0.00    +0.000 N 
ATOM      4  C   UNL     1       4.863   5.538  16.540  0.00  0.00    +0.000 A 
ATOM      5  C   UNL     1       5.804   6.013  15.625  0.00  0.00    +0.000 A 
ATOM      6  C   UNL     1       6.677   5.135  14.968  0.00  0.00    +0.000 A 
ATOM      7  C   UNL     1       6.614   3.767  15.237  0.00  0.00    +0.000 A 
ATOM      8  C   UNL     1       5.664   3.278  16.135  0.00  0.00    +0.000 A 
ATOM      9  C   UNL     1       4.782   4.161  16.765  0.00  0.00    +0.000 A 
ATOM     10  C   UNL     1       3.731   3.643  17.671  0.00  0.00    +0.000 A 
ATOM     11  O   UNL     1       3.607   2.429  17.797  0.00  0.00    +0.000 OA
ATOM     12  H   UNL     1       4.115   7.399  17.114  0.00  0.00    +0.000 HD
ENDROOT
BRANCH   2  13
ATOM     13  C   UNL     1       2.337   7.013  18.831  0.00  0.00    +0.000 A 
ATOM     14  C   UNL     1       2.260   7.004  20.228  0.00  0.00    +0.000 A 
ATOM     15  C   UNL     1       1.651   8.063  20.898  0.00  0.00    +0.000 A 
ATOM     16  C   UNL     1       1.127   9.134  20.176  0.00  0.00    +0.000 A 
ATOM     17  C   UNL     1       1.205   9.162  18.779  0.00  0.00    +0.000 A 
ATOM     18  C   UNL     1       1.770   8.078  18.107  0.00  0.00    +0.000 A 
BRANCH  17  19
ATOM     19  O   UNL     1       0.659  10.265  18.200  0.00  0.00    +0.000 OA
BRANCH  19  20
ATOM     20  C   UNL     1      -0.750  10.356  18.040  0.00  0.00    +0.000 C 
ATOM     21  F   UNL     1      -1.199  11.585  17.713  0.00  0.00    +0.000 F 
ATOM     22  F   UNL     1      -1.141   9.485  17.083  0.00  0.00    +0.000 F 
ATOM     23  F   UNL     1      -1.340   9.996  19.202  0.00  0.00    +0.000 F 
ENDBRANCH  19  20
ENDBRANCH  17  19
ENDBRANCH   2  13
BRANCH   1  24
ATOM     24  C   UNL     1       1.864   4.177  19.387  0.00  0.00    +0.000 C 
ATOM     25  O   UNL     1       0.680   3.975  19.178  0.00  0.00    +0.000 OA
BRANCH  24  26
ATOM     26  O   UNL     1       2.453   4.114  20.608  0.00  0.00    +0.000 OA
BRANCH  26  28
ATOM     27  C   UNL     1       1.484   2.452  21.975  0.00  0.00    +0.000 C 
ATOM     28  C   UNL     1       2.694   2.804  21.131  0.00  0.00    +0.000 C 
ENDBRANCH  26  28
ENDBRANCH  24  26
ENDBRANCH   1  24
BRANCH   6  29
ATOM     29  O   UNL     1       7.537   5.735  14.089  0.00  0.00    +0.000 OA
ATOM     30  C   UNL     1       7.747   5.073  12.848  0.00  0.00    +0.000 C 
ENDBRANCH   6  29
TORSDOF 7
ENDMDL
MODEL 9
REMARK VINA RESULT:      -7.4      1.213      1.446
REMARK  Name = 
REMARK  9 active torsions:
REMARK  status: ('A' for Active; 'I' for Inactive)
REMARK    1  A    between atoms: C_1  and  C_2
REMARK    2  A    between atoms: C_2  and  O_3
REMARK    3  A    between atoms: O_3  and  C_4
REMARK    4  A    between atoms: C_4  and  C_6
REMARK    5  A    between atoms: C_7  and  C_8
REMARK    6  A    between atoms: C_12  and  O_13
REMARK    7  A    between atoms: O_13  and  C_14
REMARK    8  A    between atoms: C_22  and  O_23
REMARK    9  A    between atoms: O_23  and  C_24
REMARK                            x       y       z     vdW  Elec       q    Type
REMARK                         _______ _______ _______ _____ _____    ______ ____
ROOT
ATOM      1  C   UNL     1       3.481   4.953  19.535  0.00  0.00    +0.000 A 
ATOM      2  C   UNL     1       3.963   5.964  18.777  0.00  0.00    +0.000 A 
ATOM      3  N   UNL     1       3.467   7.254  18.812  0.00  0.00    +0.000 N 
ATOM      4  C   UNL     1       2.331   7.587  19.555  0.00  0.00    +0.000 A 
ATOM      5  C   UNL     1       1.821   8.886  19.565  0.00  0.00    +0.000 A 
ATOM      6  C   UNL     1       0.699   9.213  20.339  0.00  0.00    +0.000 A 
ATOM      7  C   UNL     1       0.076   8.226  21.104  0.00  0.00    +0.000 A 
ATOM      8  C   UNL     1       0.588   6.929  21.117  0.00  0.00    +0.000 A 
ATOM      9  C   UNL     1       1.722   6.620  20.360  0.00  0.00    +0.000 A 
ATOM     10  C   UNL     1       2.310   5.262  20.418  0.00  0.00    +0.000 A 
ATOM     11  O   UNL     1       1.826   4.443  21.193  0.00  0.00    +0.000 OA
ATOM     12  H   UNL     1       3.821   7.918  18.131  0.00  0.00    +0.000 HD
ENDROOT
BRANCH   2  13
ATOM     13  C   UNL     1       5.031   5.758  17.773  0.00  0.00    +0.000 A 
ATOM     14  C   UNL     1       6.366   5.610  18.167  0.00  0.00    +0.000 A 
ATOM     15  C   UNL     1       7.346   5.344  17.214  0.00  0.00    +0.000 A 
ATOM     16  C   UNL     1       6.995   5.217  15.870  0.00  0.00    +0.000 A 
ATOM     17  C   UNL     1       5.664   5.355  15.463  0.00  0.00    +0.000 A 
ATOM     18  C   UNL     1       4.691   5.670  16.411  0.00  0.00    +0.000 A 
BRANCH  17  19
ATOM     19  O   UNL     1       5.460   5.205  14.126  0.00  0.00    +0.000 OA
BRANCH  19  20
ATOM     20  C   UNL     1       5.859   4.004  13.480  0.00  0.00    +0.000 C 
ATOM     21  F   UNL     1       6.166   2.992  14.318  0.00  0.00    +0.000 F 
ATOM     22  F   UNL     1       4.867   3.596  12.657  0.00  0.00    +0.000 F 
ATOM     23  F   UNL     1       6.950   4.262  12.726  0.00  0.00    +0.000 F 
ENDBRANCH  19  20
ENDBRANCH  17  19
ENDBRANCH   2  13
BRANCH   1  24
ATOM     24  C   UNL     1       4.037   3.582  19.463  0.00  0.00    +0.000 C 
ATOM     25  O   UNL     1       4.943   3.146  20.152  0.00  0.00    +0.000 OA
BRANCH  24  26
ATOM     26  O   UNL     1       3.450   2.908  18.442  0.00  0.00    +0.000 OA
BRANCH  26  28
ATOM     27  C   UNL     1       1.199   2.233  18.652  0.00  0.00    +0.000 C 
ATOM     28  C   UNL     1       2.640   1.786  18.804  0.00  0.00    +0.000 C 
ENDBRANCH  26  28
ENDBRANCH  24  26
ENDBRANCH   1  24
BRANCH   6  29
ATOM     29  O   UNL     1       0.317  10.524  20.265  0.00  0.00    +0.000 OA
ATOM     30  C   UNL     1      -0.775  10.823  19.403  0.00  0.00    +0.000 C 
ENDBRANCH   6  29
TORSDOF 7
ENDMDL
