MODEL 1
REMARK VINA RESULT:      -7.4      0.000      0.000
REMARK  Name = 
REMARK  6 active torsions:
REMARK  status: ('A' for Active; 'I' for Inactive)
REMARK    1  A    between atoms: C_1  and  C_2
REMARK    2  A    between atoms: C_5  and  C_6
REMARK    3  A    between atoms: C_6  and  N_7
REMARK    4  A    between atoms: C_11  and  N_12
REMARK    5  A    between atoms: C_15  and  C_16
REMARK    6  A    between atoms: C_16  and  O_17
REMARK                            x       y       z     vdW  Elec       q    Type
REMARK                         _______ _______ _______ _____ _____    ______ ____
ROOT
ATOM      1  N   UNL     1       6.310   5.501  14.021  0.00  0.00    +0.000 N 
ATOM      2  C   UNL     1       5.644   5.212  15.220  0.00  0.00    +0.000 A 
ATOM      3  C   UNL     1       5.134   6.274  15.957  0.00  0.00    +0.000 A 
ATOM      4  C   UNL     1       4.398   6.027  17.122  0.00  0.00    +0.000 A 
ATOM      5  C   UNL     1       4.123   4.721  17.520  0.00  0.00    +0.000 A 
ATOM      6  C   UNL     1       4.681   3.734  16.699  0.00  0.00    +0.000 A 
ATOM      7  N   UNL     1       5.430   3.945  15.590  0.00  0.00    +0.000 NA
ATOM      8  H   UNL     1       5.595   5.742  13.337  0.00  0.00    +0.000 HD
ENDROOT
BRANCH   5   9
ATOM      9  N   UNL     1       3.388   4.403  18.648  0.00  0.00    +0.000 N 
ATOM     10  C   UNL     1       2.906   3.048  18.907  0.00  0.00    +0.000 C 
ATOM     11  C   UNL     1       1.483   3.148  19.472  0.00  0.00    +0.000 C 
ATOM     12  C   UNL     1       1.379   4.094  20.685  0.00  0.00    +0.000 C 
ATOM     13  C   UNL     1       2.038   5.448  20.370  0.00  0.00    +0.000 C 
ATOM     14  C   UNL     1       3.450   5.286  19.813  0.00  0.00    +0.000 C 
BRANCH  12  15
ATOM     15  C   UNL     1       1.970   3.474  21.958  0.00  0.00    +0.000 C 
BRANCH  15  16
ATOM     16  O   UNL     1       1.452   2.166  22.159  0.00  0.00    +0.000 OA
ATOM     17  H   UNL     1       2.051   1.706  22.773  0.00  0.00    +0.000 HD
ENDBRANCH  15  16
ENDBRANCH  12  15
ENDBRANCH   5   9
BRANCH   1  18
ATOM     18  C   UNL     1       7.145   4.410  13.519  0.00  0.00    +0.000 C 
BRANCH  18  23
ATOM     19  C   UNL     1       3.306   3.216  10.819  0.00  0.00    +0.000 C 
ATOM     20  C   UNL     1       4.663   2.979  11.351  0.00  0.00    +0.000 A 
ATOM     21  C   UNL     1       5.598   1.985  11.159  0.00  0.00    +0.000 A 
ATOM     22  C   UNL     1       6.717   2.331  11.956  0.00  0.00    +0.000 A 
ATOM     23  C   UNL     1       6.398   3.516  12.581  0.00  0.00    +0.000 A 
ATOM     24  O   UNL     1       5.143   3.915  12.215  0.00  0.00    +0.000 OA
ENDBRANCH  18  23
ENDBRANCH   1  18
TORSDOF 5
ENDMDL
MODEL 2
REMARK VINA RESULT:      -7.4      0.742      1.210
REMARK  Name = 
REMARK  6 active torsions:
REMARK  status: ('A' for Active; 'I' for Inactive)
REMARK    1  A    between atoms: C_1  and  C_2
REMARK    2  A    between atoms: C_5  and  C_6
REMARK    3  A    between atoms: C_6  and  N_7
REMARK    4  A    between atoms: C_11  and  N_12
REMARK    5  A    between atoms: C_15  and  C_16
REMARK    6  A    between atoms: C_16  and  O_17
REMARK                            x       y       z     vdW  Elec       q    Type
REMARK                         _______ _______ _______ _____ _____    ______ ____
ROOT
ATOM      1  N   UNL     1       6.277   5.665  14.391  0.00  0.00    +0.000 N 
ATOM      2  C   UNL     1       5.581   5.252  15.535  0.00  0.00    +0.000 A 
ATOM      3  C   UNL     1       5.135   6.229  16.418  0.00  0.00    +0.000 A 
ATOM      4  C   UNL     1       4.372   5.866  17.535  0.00  0.00    +0.000 A 
ATOM      5  C   UNL     1       4.007   4.537  17.739  0.00  0.00    +0.000 A 
ATOM      6  C   UNL     1       4.506   3.644  16.784  0.00  0.00    +0.000 A 
ATOM      7  N   UNL     1       5.280   3.962  15.717  0.00  0.00    +0.000 NA
ATOM      8  H   UNL     1       5.587   6.050  13.748  0.00  0.00    +0.000 HD
ENDROOT
BRANCH   5   9
ATOM      9  N   UNL     1       3.241   4.110  18.809  0.00  0.00    +0.000 N 
ATOM     10  C   UNL     1       2.916   2.702  19.020  0.00  0.00    +0.000 C 
ATOM     11  C   UNL     1       1.455   2.613  19.483  0.00  0.00    +0.000 C 
ATOM     12  C   UNL     1       1.149   3.517  20.694  0.00  0.00    +0.000 C 
ATOM     13  C   UNL     1       1.653   4.948  20.440  0.00  0.00    +0.000 C 
ATOM     14  C   UNL     1       3.110   4.972  19.983  0.00  0.00    +0.000 C 
BRANCH  12  15
ATOM     15  C   UNL     1       1.723   2.952  22.000  0.00  0.00    +0.000 C 
BRANCH  15  16
ATOM     16  O   UNL     1       0.741   2.185  22.684  0.00  0.00    +0.000 OA
ATOM     17  H   UNL     1       0.734   2.479  23.611  0.00  0.00    +0.000 HD
ENDBRANCH  15  16
ENDBRANCH  12  15
ENDBRANCH   5   9
BRANCH   1  18
ATOM     18  C   UNL     1       7.043   4.604  13.737  0.00  0.00    +0.000 C 
BRANCH  18  23
ATOM     19  C   UNL     1       6.171   0.757  10.927  0.00  0.00    +0.000 C 
ATOM     20  C   UNL     1       5.798   2.048  11.540  0.00  0.00    +0.000 A 
ATOM     21  C   UNL     1       4.666   2.832  11.489  0.00  0.00    +0.000 A 
ATOM     22  C   UNL     1       4.926   3.962  12.304  0.00  0.00    +0.000 A 
ATOM     23  C   UNL     1       6.198   3.794  12.806  0.00  0.00    +0.000 A 
ATOM     24  O   UNL     1       6.735   2.627  12.340  0.00  0.00    +0.000 OA
ENDBRANCH  18  23
ENDBRANCH   1  18
TORSDOF 5
ENDMDL
MODEL 3
REMARK VINA RESULT:      -7.3      4.668      6.794
REMARK  Name = 
REMARK  6 active torsions:
REMARK  status: ('A' for Active; 'I' for Inactive)
REMARK    1  A    between atoms: C_1  and  C_2
REMARK    2  A    between atoms: C_5  and  C_6
REMARK    3  A    between atoms: C_6  and  N_7
REMARK    4  A    between atoms: C_11  and  N_12
REMARK    5  A    between atoms: C_15  and  C_16
REMARK    6  A    between atoms: C_16  and  O_17
REMARK                            x       y       z     vdW  Elec       q    Type
REMARK                         _______ _______ _______ _____ _____    ______ ____
ROOT
ATOM      1  N   UNL     1       7.741   8.046  17.324  0.00  0.00    +0.000 N 
ATOM      2  C   UNL     1       6.709   7.153  17.641  0.00  0.00    +0.000 A 
ATOM      3  C   UNL     1       5.611   7.092  16.791  0.00  0.00    +0.000 A 
ATOM      4  C   UNL     1       4.593   6.161  17.029  0.00  0.00    +0.000 A 
ATOM      5  C   UNL     1       4.697   5.254  18.080  0.00  0.00    +0.000 A 
ATOM      6  C   UNL     1       5.847   5.403  18.865  0.00  0.00    +0.000 A 
ATOM      7  N   UNL     1       6.827   6.321  18.682  0.00  0.00    +0.000 NA
ATOM      8  H   UNL     1       8.258   7.637  16.548  0.00  0.00    +0.000 HD
ENDROOT
BRANCH   5   9
ATOM      9  N   UNL     1       3.739   4.296  18.363  0.00  0.00    +0.000 N 
ATOM     10  C   UNL     1       4.092   2.935  18.760  0.00  0.00    +0.000 C 
ATOM     11  C   UNL     1       3.127   1.969  18.059  0.00  0.00    +0.000 C 
ATOM     12  C   UNL     1       1.644   2.324  18.287  0.00  0.00    +0.000 C 
ATOM     13  C   UNL     1       1.394   3.811  17.981  0.00  0.00    +0.000 C 
ATOM     14  C   UNL     1       2.382   4.722  18.705  0.00  0.00    +0.000 C 
BRANCH  12  15
ATOM     15  C   UNL     1       1.171   1.964  19.701  0.00  0.00    +0.000 C 
BRANCH  15  16
ATOM     16  O   UNL     1       0.194   2.894  20.150  0.00  0.00    +0.000 OA
ATOM     17  H   UNL     1      -0.382   2.430  20.783  0.00  0.00    +0.000 HD
ENDBRANCH  15  16
ENDBRANCH  12  15
ENDBRANCH   5   9
BRANCH   1  18
ATOM     18  C   UNL     1       8.644   8.342  18.436  0.00  0.00    +0.000 C 
BRANCH  18  23
ATOM     19  C   UNL     1      10.428  12.218  20.727  0.00  0.00    +0.000 C 
ATOM     20  C   UNL     1       9.704  11.566  19.618  0.00  0.00    +0.000 A 
ATOM     21  C   UNL     1       9.108  12.034  18.467  0.00  0.00    +0.000 A 
ATOM     22  C   UNL     1       8.578  10.899  17.802  0.00  0.00    +0.000 A 
ATOM     23  C   UNL     1       8.889   9.810  18.586  0.00  0.00    +0.000 A 
ATOM     24  O   UNL     1       9.575  10.212  19.697  0.00  0.00    +0.000 OA
ENDBRANCH  18  23
ENDBRANCH   1  18
TORSDOF 5
ENDMDL
MODEL 4
REMARK VINA RESULT:      -7.3      5.187      8.017
REMARK  Name = 
REMARK  6 active torsions:
REMARK  status: ('A' for Active; 'I' for Inactive)
REMARK    1  A    between atoms: C_1  and  C_2
REMARK    2  A    between atoms: C_5  and  C_6
REMARK    3  A    between atoms: C_6  and  N_7
REMARK    4  A    between atoms: C_11  and  N_12
REMARK    5  A    between atoms: C_15  and  C_16
REMARK    6  A    between atoms: C_16  and  O_17
REMARK                            x       y       z     vdW  Elec       q    Type
REMARK                         _______ _______ _______ _____ _____    ______ ____
ROOT
ATOM      1  N   UNL     1       1.209  10.751  18.517  0.00  0.00    +0.000 N 
ATOM      2  C   UNL     1       1.572   9.414  18.728  0.00  0.00    +0.000 A 
ATOM      3  C   UNL     1       2.240   8.748  17.707  0.00  0.00    +0.000 A 
ATOM      4  C   UNL     1       2.686   7.435  17.903  0.00  0.00    +0.000 A 
ATOM      5  C   UNL     1       2.516   6.809  19.136  0.00  0.00    +0.000 A 
ATOM      6  C   UNL     1       1.838   7.575  20.090  0.00  0.00    +0.000 A 
ATOM      7  N   UNL     1       1.359   8.832  19.914  0.00  0.00    +0.000 NA
ATOM      8  H   UNL     1       2.060  11.304  18.599  0.00  0.00    +0.000 HD
ENDROOT
BRANCH   5   9
ATOM      9  N   UNL     1       2.947   5.522  19.405  0.00  0.00    +0.000 N 
ATOM     10  C   UNL     1       4.209   4.999  18.888  0.00  0.00    +0.000 C 
ATOM     11  C   UNL     1       3.980   3.547  18.448  0.00  0.00    +0.000 C 
ATOM     12  C   UNL     1       3.344   2.675  19.549  0.00  0.00    +0.000 C 
ATOM     13  C   UNL     1       2.103   3.368  20.135  0.00  0.00    +0.000 C 
ATOM     14  C   UNL     1       2.391   4.808  20.555  0.00  0.00    +0.000 C 
BRANCH  12  15
ATOM     15  C   UNL     1       4.346   2.310  20.652  0.00  0.00    +0.000 C 
BRANCH  15  16
ATOM     16  O   UNL     1       5.280   1.350  20.177  0.00  0.00    +0.000 OA
ATOM     17  H   UNL     1       5.749   1.746  19.422  0.00  0.00    +0.000 HD
ENDBRANCH  15  16
ENDBRANCH  12  15
ENDBRANCH   5   9
BRANCH   1  18
ATOM     18  C   UNL     1       0.189  11.250  19.439  0.00  0.00    +0.000 C 
BRANCH  18  23
ATOM     19  C   UNL     1      -3.002  10.155  15.963  0.00  0.00    +0.000 C 
ATOM     20  C   UNL     1      -2.613  10.796  17.236  0.00  0.00    +0.000 A 
ATOM     21  C   UNL     1      -3.298  11.542  18.171  0.00  0.00    +0.000 A 
ATOM     22  C   UNL     1      -2.360  11.870  19.183  0.00  0.00    +0.000 A 
ATOM     23  C   UNL     1      -1.165  11.299  18.805  0.00  0.00    +0.000 A 
ATOM     24  O   UNL     1      -1.315  10.643  17.615  0.00  0.00    +0.000 OA
ENDBRANCH  18  23
ENDBRANCH   1  18
TORSDOF 5
ENDMDL
MODEL 5
REMARK VINA RESULT:      -7.2      4.647      6.844
REMARK  Name = 
REMARK  6 active torsions:
REMARK  status: ('A' for Active; 'I' for Inactive)
REMARK    1  A    between atoms: C_1  and  C_2
REMARK    2  A    between atoms: C_5  and  C_6
REMARK    3  A    between atoms: C_6  and  N_7
REMARK    4  A    between atoms: C_11  and  N_12
REMARK    5  A    between atoms: C_15  and  C_16
REMARK    6  A    between atoms: C_16  and  O_17
REMARK                            x       y       z     vdW  Elec       q    Type
REMARK                         _______ _______ _______ _____ _____    ______ ____
ROOT
ATOM      1  N   UNL     1       7.720   8.029  17.304  0.00  0.00    +0.000 N 
ATOM      2  C   UNL     1       6.678   7.149  17.623  0.00  0.00    +0.000 A 
ATOM      3  C   UNL     1       5.567   7.120  16.789  0.00  0.00    +0.000 A 
ATOM      4  C   UNL     1       4.535   6.204  17.029  0.00  0.00    +0.000 A 
ATOM      5  C   UNL     1       4.640   5.279  18.065  0.00  0.00    +0.000 A 
ATOM      6  C   UNL     1       5.803   5.395  18.834  0.00  0.00    +0.000 A 
ATOM      7  N   UNL     1       6.797   6.299  18.649  0.00  0.00    +0.000 NA
ATOM      8  H   UNL     1       8.219   7.622  16.514  0.00  0.00    +0.000 HD
ENDROOT
BRANCH   5   9
ATOM      9  N   UNL     1       3.669   4.334  18.348  0.00  0.00    +0.000 N 
ATOM     10  C   UNL     1       2.820   4.421  19.534  0.00  0.00    +0.000 C 
ATOM     11  C   UNL     1       2.662   3.009  20.113  0.00  0.00    +0.000 C 
ATOM     12  C   UNL     1       2.180   1.979  19.070  0.00  0.00    +0.000 C 
ATOM     13  C   UNL     1       3.043   2.056  17.799  0.00  0.00    +0.000 C 
ATOM     14  C   UNL     1       3.164   3.483  17.270  0.00  0.00    +0.000 C 
BRANCH  12  15
ATOM     15  C   UNL     1       0.691   2.141  18.739  0.00  0.00    +0.000 C 
BRANCH  15  16
ATOM     16  O   UNL     1      -0.013   2.662  19.859  0.00  0.00    +0.000 OA
ATOM     17  H   UNL     1       0.418   3.497  20.113  0.00  0.00    +0.000 HD
ENDBRANCH  15  16
ENDBRANCH  12  15
ENDBRANCH   5   9
BRANCH   1  18
ATOM     18  C   UNL     1       8.645   8.291  18.406  0.00  0.00    +0.000 C 
BRANCH  18  23
ATOM     19  C   UNL     1      10.109  12.130  20.971  0.00  0.00    +0.000 C 
ATOM     20  C   UNL     1       9.555  11.493  19.759  0.00  0.00    +0.000 A 
ATOM     21  C   UNL     1       9.150  11.976  18.533  0.00  0.00    +0.000 A 
ATOM     22  C   UNL     1       8.713  10.852  17.787  0.00  0.00    +0.000 A 
ATOM     23  C   UNL     1       8.885   9.755  18.602  0.00  0.00    +0.000 A 
ATOM     24  O   UNL     1       9.398  10.142  19.808  0.00  0.00    +0.000 OA
ENDBRANCH  18  23
ENDBRANCH   1  18
TORSDOF 5
ENDMDL
MODEL 6
REMARK VINA RESULT:      -7.1      5.363      8.800
REMARK  Name = 
REMARK  6 active torsions:
REMARK  status: ('A' for Active; 'I' for Inactive)
REMARK    1  A    between atoms: C_1  and  C_2
REMARK    2  A    between atoms: C_5  and  C_6
REMARK    3  A    between atoms: C_6  and  N_7
REMARK    4  A    between atoms: C_11  and  N_12
REMARK    5  A    between atoms: C_15  and  C_16
REMARK    6  A    between atoms: C_16  and  O_17
REMARK                            x       y       z     vdW  Elec       q    Type
REMARK                         _______ _______ _______ _____ _____    ______ ____
ROOT
ATOM      1  N   UNL     1       0.998  10.858  19.418  0.00  0.00    +0.000 N 
ATOM      2  C   UNL     1       1.397   9.526  19.249  0.00  0.00    +0.000 A 
ATOM      3  C   UNL     1       1.922   9.151  18.017  0.00  0.00    +0.000 A 
ATOM      4  C   UNL     1       2.401   7.849  17.828  0.00  0.00    +0.000 A 
ATOM      5  C   UNL     1       2.409   6.940  18.883  0.00  0.00    +0.000 A 
ATOM      6  C   UNL     1       1.864   7.428  20.076  0.00  0.00    +0.000 A 
ATOM      7  N   UNL     1       1.357   8.669  20.275  0.00  0.00    +0.000 NA
ATOM      8  H   UNL     1       1.848  11.411  19.518  0.00  0.00    +0.000 HD
ENDROOT
BRANCH   5   9
ATOM      9  N   UNL     1       2.884   5.644  18.773  0.00  0.00    +0.000 N 
ATOM     10  C   UNL     1       4.152   5.227  19.366  0.00  0.00    +0.000 C 
ATOM     11  C   UNL     1       4.860   4.296  18.373  0.00  0.00    +0.000 C 
ATOM     12  C   UNL     1       3.972   3.126  17.902  0.00  0.00    +0.000 C 
ATOM     13  C   UNL     1       2.604   3.646  17.428  0.00  0.00    +0.000 C 
ATOM     14  C   UNL     1       1.949   4.565  18.455  0.00  0.00    +0.000 C 
BRANCH  12  15
ATOM     15  C   UNL     1       3.809   2.049  18.983  0.00  0.00    +0.000 C 
BRANCH  15  16
ATOM     16  O   UNL     1       4.206   0.779  18.482  0.00  0.00    +0.000 OA
ATOM     17  H   UNL     1       3.961   0.113  19.148  0.00  0.00    +0.000 HD
ENDBRANCH  15  16
ENDBRANCH  12  15
ENDBRANCH   5   9
BRANCH   1  18
ATOM     18  C   UNL     1       0.112  11.080  20.561  0.00  0.00    +0.000 C 
BRANCH  18  23
ATOM     19  C   UNL     1      -3.631  11.385  17.503  0.00  0.00    +0.000 C 
ATOM     20  C   UNL     1      -2.931  11.718  18.760  0.00  0.00    +0.000 A 
ATOM     21  C   UNL     1      -3.256  12.494  19.852  0.00  0.00    +0.000 A 
ATOM     22  C   UNL     1      -2.156  12.411  20.742  0.00  0.00    +0.000 A 
ATOM     23  C   UNL     1      -1.231  11.586  20.140  0.00  0.00    +0.000 A 
ATOM     24  O   UNL     1      -1.700  11.162  18.928  0.00  0.00    +0.000 OA
ENDBRANCH  18  23
ENDBRANCH   1  18
TORSDOF 5
ENDMDL
MODEL 7
REMARK VINA RESULT:      -7.0      5.561      8.604
REMARK  Name = 
REMARK  6 active torsions:
REMARK  status: ('A' for Active; 'I' for Inactive)
REMARK    1  A    between atoms: C_1  and  C_2
REMARK    2  A    between atoms: C_5  and  C_6
REMARK    3  A    between atoms: C_6  and  N_7
REMARK    4  A    between atoms: C_11  and  N_12
REMARK    5  A    between atoms: C_15  and  C_16
REMARK    6  A    between atoms: C_16  and  O_17
REMARK                            x       y       z     vdW  Elec       q    Type
REMARK                         _______ _______ _______ _____ _____    ______ ____
ROOT
ATOM      1  N   UNL     1       1.049  11.205  18.547  0.00  0.00    +0.000 N 
ATOM      2  C   UNL     1       1.371   9.855  18.740  0.00  0.00    +0.000 A 
ATOM      3  C   UNL     1       2.054   9.193  17.726  0.00  0.00    +0.000 A 
ATOM      4  C   UNL     1       2.460   7.866  17.906  0.00  0.00    +0.000 A 
ATOM      5  C   UNL     1       2.236   7.217  19.118  0.00  0.00    +0.000 A 
ATOM      6  C   UNL     1       1.547   7.981  20.068  0.00  0.00    +0.000 A 
ATOM      7  N   UNL     1       1.107   9.253  19.905  0.00  0.00    +0.000 NA
ATOM      8  H   UNL     1       1.910  11.734  18.668  0.00  0.00    +0.000 HD
ENDROOT
BRANCH   5   9
ATOM      9  N   UNL     1       2.626   5.914  19.373  0.00  0.00    +0.000 N 
ATOM     10  C   UNL     1       3.799   5.316  18.740  0.00  0.00    +0.000 C 
ATOM     11  C   UNL     1       3.451   3.870  18.361  0.00  0.00    +0.000 C 
ATOM     12  C   UNL     1       2.888   3.053  19.542  0.00  0.00    +0.000 C 
ATOM     13  C   UNL     1       1.752   3.823  20.236  0.00  0.00    +0.000 C 
ATOM     14  C   UNL     1       2.156   5.252  20.590  0.00  0.00    +0.000 C 
BRANCH  12  15
ATOM     15  C   UNL     1       3.979   2.655  20.544  0.00  0.00    +0.000 C 
BRANCH  15  16
ATOM     16  O   UNL     1       5.072   2.044  19.872  0.00  0.00    +0.000 OA
ATOM     17  H   UNL     1       5.348   2.643  19.156  0.00  0.00    +0.000 HD
ENDBRANCH  15  16
ENDBRANCH  12  15
ENDBRANCH   5   9
BRANCH   1  18
ATOM     18  C   UNL     1       0.013  11.710  19.448  0.00  0.00    +0.000 C 
BRANCH  18  23
ATOM     19  C   UNL     1      -4.784  12.382  19.468  0.00  0.00    +0.000 C 
ATOM     20  C   UNL     1      -3.523  11.928  18.846  0.00  0.00    +0.000 A 
ATOM     21  C   UNL     1      -3.215  11.359  17.629  0.00  0.00    +0.000 A 
ATOM     22  C   UNL     1      -1.812  11.155  17.629  0.00  0.00    +0.000 A 
ATOM     23  C   UNL     1      -1.352  11.616  18.842  0.00  0.00    +0.000 A 
ATOM     24  O   UNL     1      -2.394  12.088  19.590  0.00  0.00    +0.000 OA
ENDBRANCH  18  23
ENDBRANCH   1  18
TORSDOF 5
ENDMDL
MODEL 8
REMARK VINA RESULT:      -7.0      4.908      8.532
REMARK  Name = 
REMARK  6 active torsions:
REMARK  status: ('A' for Active; 'I' for Inactive)
REMARK    1  A    between atoms: C_1  and  C_2
REMARK    2  A    between atoms: C_5  and  C_6
REMARK    3  A    between atoms: C_6  and  N_7
REMARK    4  A    between atoms: C_11  and  N_12
REMARK    5  A    between atoms: C_15  and  C_16
REMARK    6  A    between atoms: C_16  and  O_17
REMARK                            x       y       z     vdW  Elec       q    Type
REMARK                         _______ _______ _______ _____ _____    ______ ____
ROOT
ATOM      1  N   UNL     1       0.408   9.364  20.042  0.00  0.00    +0.000 N 
ATOM      2  C   UNL     1       1.447   8.636  19.447  0.00  0.00    +0.000 A 
ATOM      3  C   UNL     1       1.893   7.487  20.090  0.00  0.00    +0.000 A 
ATOM      4  C   UNL     1       2.878   6.690  19.494  0.00  0.00    +0.000 A 
ATOM      5  C   UNL     1       3.376   7.008  18.233  0.00  0.00    +0.000 A 
ATOM      6  C   UNL     1       2.851   8.181  17.679  0.00  0.00    +0.000 A 
ATOM      7  N   UNL     1       1.928   8.993  18.251  0.00  0.00    +0.000 NA
ATOM      8  H   UNL     1      -0.450   8.839  19.880  0.00  0.00    +0.000 HD
ENDROOT
BRANCH   5   9
ATOM      9  N   UNL     1       4.336   6.257  17.577  0.00  0.00    +0.000 N 
ATOM     10  C   UNL     1       4.118   4.857  17.220  0.00  0.00    +0.000 C 
ATOM     11  C   UNL     1       5.419   4.088  17.486  0.00  0.00    +0.000 C 
ATOM     12  C   UNL     1       6.648   4.726  16.806  0.00  0.00    +0.000 C 
ATOM     13  C   UNL     1       6.718   6.230  17.122  0.00  0.00    +0.000 C 
ATOM     14  C   UNL     1       5.397   6.940  16.838  0.00  0.00    +0.000 C 
BRANCH  12  15
ATOM     15  C   UNL     1       6.668   4.478  15.293  0.00  0.00    +0.000 C 
BRANCH  15  16
ATOM     16  O   UNL     1       7.635   5.310  14.666  0.00  0.00    +0.000 OA
ATOM     17  H   UNL     1       8.371   4.740  14.380  0.00  0.00    +0.000 HD
ENDBRANCH  15  16
ENDBRANCH  12  15
ENDBRANCH   5   9
BRANCH   1  18
ATOM     18  C   UNL     1       0.269  10.732  19.542  0.00  0.00    +0.000 C 
BRANCH  18  23
ATOM     19  C   UNL     1      -2.810   9.899  15.897  0.00  0.00    +0.000 C 
ATOM     20  C   UNL     1      -2.418  10.550  17.163  0.00  0.00    +0.000 A 
ATOM     21  C   UNL     1      -3.049  11.435  18.011  0.00  0.00    +0.000 A 
ATOM     22  C   UNL     1      -2.143  11.685  19.073  0.00  0.00    +0.000 A 
ATOM     23  C   UNL     1      -1.020  10.933  18.809  0.00  0.00    +0.000 A 
ATOM     24  O   UNL     1      -1.183  10.239  17.643  0.00  0.00    +0.000 OA
ENDBRANCH  18  23
ENDBRANCH   1  18
TORSDOF 5
ENDMDL
MODEL 9
REMARK VINA RESULT:      -7.0      4.772      8.710
REMARK  Name = 
REMARK  6 active torsions:
REMARK  status: ('A' for Active; 'I' for Inactive)
REMARK    1  A    between atoms: C_1  and  C_2
REMARK    2  A    between atoms: C_5  and  C_6
REMARK    3  A    between atoms: C_6  and  N_7
REMARK    4  A    between atoms: C_11  and  N_12
REMARK    5  A    between atoms: C_15  and  C_16
REMARK    6  A    between atoms: C_16  and  O_17
REMARK                            x       y       z     vdW  Elec       q    Type
REMARK                         _______ _______ _______ _____ _____    ______ ____
ROOT
ATOM      1  N   UNL     1       0.526   9.208  20.408  0.00  0.00    +0.000 N 
ATOM      2  C   UNL     1       1.504   8.496  19.701  0.00  0.00    +0.000 A 
ATOM      3  C   UNL     1       1.914   7.268  20.208  0.00  0.00    +0.000 A 
ATOM      4  C   UNL     1       2.834   6.489  19.495  0.00  0.00    +0.000 A 
ATOM      5  C   UNL     1       3.300   6.908  18.251  0.00  0.00    +0.000 A 
ATOM      6  C   UNL     1       2.814   8.154  17.838  0.00  0.00    +0.000 A 
ATOM      7  N   UNL     1       1.956   8.947  18.525  0.00  0.00    +0.000 NA
ATOM      8  H   UNL     1      -0.363   8.744  20.232  0.00  0.00    +0.000 HD
ENDROOT
BRANCH   5   9
ATOM      9  N   UNL     1       4.194   6.182  17.485  0.00  0.00    +0.000 N 
ATOM     10  C   UNL     1       5.036   6.809  16.469  0.00  0.00    +0.000 C 
ATOM     11  C   UNL     1       5.083   5.880  15.248  0.00  0.00    +0.000 C 
ATOM     12  C   UNL     1       5.495   4.436  15.602  0.00  0.00    +0.000 C 
ATOM     13  C   UNL     1       4.652   3.908  16.775  0.00  0.00    +0.000 C 
ATOM     14  C   UNL     1       4.643   4.873  17.959  0.00  0.00    +0.000 C 
BRANCH  12  15
ATOM     15  C   UNL     1       6.994   4.317  15.902  0.00  0.00    +0.000 C 
BRANCH  15  16
ATOM     16  O   UNL     1       7.734   5.235  15.106  0.00  0.00    +0.000 OA
ATOM     17  H   UNL     1       8.645   5.249  15.447  0.00  0.00    +0.000 HD
ENDBRANCH  15  16
ENDBRANCH  12  15
ENDBRANCH   5   9
BRANCH   1  18
ATOM     18  C   UNL     1       0.438  10.624  20.051  0.00  0.00    +0.000 C 
BRANCH  18  23
ATOM     19  C   UNL     1      -3.091   9.903  16.813  0.00  0.00    +0.000 C 
ATOM     20  C   UNL     1      -2.470  10.628  17.940  0.00  0.00    +0.000 A 
ATOM     21  C   UNL     1      -2.855  11.711  18.700  0.00  0.00    +0.000 A 
ATOM     22  C   UNL     1      -1.817  11.926  19.641  0.00  0.00    +0.000 A 
ATOM     23  C   UNL     1      -0.867  10.959  19.400  0.00  0.00    +0.000 A 
ATOM     24  O   UNL     1      -1.261  10.164  18.360  0.00  0.00    +0.000 OA
ENDBRANCH  18  23
ENDBRANCH   1  18
TORSDOF 5
ENDMDL
