MODEL 1
REMARK VINA RESULT:      -6.6      0.000      0.000
REMARK  Name = 
REMARK  8 active torsions:
REMARK  status: ('A' for Active; 'I' for Inactive)
REMARK    1  A    between atoms: C_2  and  C_3
REMARK    2  A    between atoms: C_2  and  C_16
REMARK    3  A    between atoms: C_3  and  C_4
REMARK    4  A    between atoms: C_4  and  C_5
REMARK    5  A    between atoms: C_5  and  O_6
REMARK    6  A    between atoms: C_5  and  C_7
REMARK    7  A    between atoms: C_7  and  C_9
REMARK    8  A    between atoms: C_12  and  O_13
REMARK                            x       y       z     vdW  Elec       q    Type
REMARK                         _______ _______ _______ _____ _____    ______ ____
ROOT
ATOM      1  C   UNL     1       3.512   1.808  18.600  0.00  0.00    +0.000 C 
ENDROOT
BRANCH   1   2
ATOM      2  O   UNL     1       4.029   0.473  18.503  0.00  0.00    +0.000 OA
ATOM      3  H   UNL     1       3.410  -0.094  19.007  0.00  0.00    +0.000 HD
ENDBRANCH   1   2
BRANCH   1   4
ATOM      4  C   UNL     1       4.606   2.677  19.244  0.00  0.00    +0.000 C 
ATOM      5  O   UNL     1       5.071   2.354  20.340  0.00  0.00    +0.000 OA
BRANCH   4   6
ATOM      6  C   UNL     1       5.152   3.882  18.544  0.00  0.00    +0.000 A 
ATOM      7  C   UNL     1       5.680   4.988  19.218  0.00  0.00    +0.000 A 
ATOM      8  C   UNL     1       6.104   6.117  18.505  0.00  0.00    +0.000 A 
ATOM      9  C   UNL     1       6.014   6.132  17.117  0.00  0.00    +0.000 A 
ATOM     10  C   UNL     1       5.512   5.036  16.429  0.00  0.00    +0.000 A 
ATOM     11  C   UNL     1       5.078   3.914  17.140  0.00  0.00    +0.000 A 
BRANCH   9  12
ATOM     12  O   UNL     1       6.406   7.214  16.390  0.00  0.00    +0.000 OA
ATOM     13  H   UNL     1       7.143   7.653  16.846  0.00  0.00    +0.000 HD
ENDBRANCH   9  12
ENDBRANCH   4   6
ENDBRANCH   1   4
BRANCH   1  14
ATOM     14  C   UNL     1       2.210   1.788  19.424  0.00  0.00    +0.000 C 
BRANCH  14  15
ATOM     15  C   UNL     1       1.119   2.604  18.731  0.00  0.00    +0.000 C 
BRANCH  15  17
ATOM     16  O   UNL     1       1.699   3.779  16.693  0.00  0.00    +0.000 OA
ATOM     17  C   UNL     1       1.536   3.809  17.910  0.00  0.00    +0.000 C 
BRANCH  17  18
ATOM     18  C   UNL     1       1.801   5.065  18.699  0.00  0.00    +0.000 A 
ATOM     19  C   UNL     1       2.284   6.226  18.072  0.00  0.00    +0.000 A 
ATOM     20  C   UNL     1       2.464   7.405  18.790  0.00  0.00    +0.000 A 
ATOM     21  C   UNL     1       2.163   7.441  20.148  0.00  0.00    +0.000 A 
ATOM     22  C   UNL     1       1.696   6.290  20.788  0.00  0.00    +0.000 A 
ATOM     23  C   UNL     1       1.520   5.102  20.068  0.00  0.00    +0.000 A 
ENDBRANCH  17  18
ENDBRANCH  15  17
ENDBRANCH  14  15
ENDBRANCH   1  14
TORSDOF 8
ENDMDL
MODEL 2
REMARK VINA RESULT:      -6.5      2.611      4.616
REMARK  Name = 
REMARK  8 active torsions:
REMARK  status: ('A' for Active; 'I' for Inactive)
REMARK    1  A    between atoms: C_2  and  C_3
REMARK    2  A    between atoms: C_2  and  C_16
REMARK    3  A    between atoms: C_3  and  C_4
REMARK    4  A    between atoms: C_4  and  C_5
REMARK    5  A    between atoms: C_5  and  O_6
REMARK    6  A    between atoms: C_5  and  C_7
REMARK    7  A    between atoms: C_7  and  C_9
REMARK    8  A    between atoms: C_12  and  O_13
REMARK                            x       y       z     vdW  Elec       q    Type
REMARK                         _______ _______ _______ _____ _____    ______ ____
ROOT
ATOM      1  C   UNL     1       7.078   4.670  17.621  0.00  0.00    +0.000 C 
ENDROOT
BRANCH   1   2
ATOM      2  O   UNL     1       8.372   4.074  17.791  0.00  0.00    +0.000 OA
ATOM      3  H   UNL     1       8.924   4.411  17.056  0.00  0.00    +0.000 HD
ENDBRANCH   1   2
BRANCH   1   4
ATOM      4  C   UNL     1       7.103   5.449  16.294  0.00  0.00    +0.000 C 
ATOM      5  O   UNL     1       7.596   6.579  16.264  0.00  0.00    +0.000 OA
BRANCH   4   6
ATOM      6  C   UNL     1       6.583   4.843  15.029  0.00  0.00    +0.000 A 
ATOM      7  C   UNL     1       5.319   4.253  14.924  0.00  0.00    +0.000 A 
ATOM      8  C   UNL     1       4.922   3.635  13.731  0.00  0.00    +0.000 A 
ATOM      9  C   UNL     1       5.784   3.622  12.639  0.00  0.00    +0.000 A 
ATOM     10  C   UNL     1       7.034   4.220  12.717  0.00  0.00    +0.000 A 
ATOM     11  C   UNL     1       7.435   4.827  13.911  0.00  0.00    +0.000 A 
BRANCH   9  12
ATOM     12  O   UNL     1       5.438   3.023  11.467  0.00  0.00    +0.000 OA
ATOM     13  H   UNL     1       4.480   2.861  11.462  0.00  0.00    +0.000 HD
ENDBRANCH   9  12
ENDBRANCH   4   6
ENDBRANCH   1   4
BRANCH   1  14
ATOM     14  C   UNL     1       6.774   5.573  18.833  0.00  0.00    +0.000 C 
BRANCH  14  15
ATOM     15  C   UNL     1       5.412   5.229  19.435  0.00  0.00    +0.000 C 
BRANCH  15  17
ATOM     16  O   UNL     1       4.063   6.408  17.804  0.00  0.00    +0.000 OA
ATOM     17  C   UNL     1       4.173   5.476  18.596  0.00  0.00    +0.000 C 
BRANCH  17  18
ATOM     18  C   UNL     1       3.032   4.521  18.837  0.00  0.00    +0.000 A 
ATOM     19  C   UNL     1       2.132   4.722  19.897  0.00  0.00    +0.000 A 
ATOM     20  C   UNL     1       1.039   3.877  20.077  0.00  0.00    +0.000 A 
ATOM     21  C   UNL     1       0.830   2.820  19.199  0.00  0.00    +0.000 A 
ATOM     22  C   UNL     1       1.725   2.599  18.149  0.00  0.00    +0.000 A 
ATOM     23  C   UNL     1       2.828   3.444  17.970  0.00  0.00    +0.000 A 
ENDBRANCH  17  18
ENDBRANCH  15  17
ENDBRANCH  14  15
ENDBRANCH   1  14
TORSDOF 8
ENDMDL
MODEL 3
REMARK VINA RESULT:      -6.4      1.413      2.049
REMARK  Name = 
REMARK  8 active torsions:
REMARK  status: ('A' for Active; 'I' for Inactive)
REMARK    1  A    between atoms: C_2  and  C_3
REMARK    2  A    between atoms: C_2  and  C_16
REMARK    3  A    between atoms: C_3  and  C_4
REMARK    4  A    between atoms: C_4  and  C_5
REMARK    5  A    between atoms: C_5  and  O_6
REMARK    6  A    between atoms: C_5  and  C_7
REMARK    7  A    between atoms: C_7  and  C_9
REMARK    8  A    between atoms: C_12  and  O_13
REMARK                            x       y       z     vdW  Elec       q    Type
REMARK                         _______ _______ _______ _____ _____    ______ ____
ROOT
ATOM      1  C   UNL     1       4.693   2.356  19.129  0.00  0.00    +0.000 C 
ENDROOT
BRANCH   1   2
ATOM      2  O   UNL     1       4.367   2.276  20.524  0.00  0.00    +0.000 OA
ATOM      3  H   UNL     1       4.209   1.328  20.712  0.00  0.00    +0.000 HD
ENDBRANCH   1   2
BRANCH   1   4
ATOM      4  C   UNL     1       5.044   3.822  18.823  0.00  0.00    +0.000 C 
ATOM      5  O   UNL     1       4.926   4.671  19.709  0.00  0.00    +0.000 OA
BRANCH   4   6
ATOM      6  C   UNL     1       5.572   4.229  17.484  0.00  0.00    +0.000 A 
ATOM      7  C   UNL     1       4.821   4.151  16.306  0.00  0.00    +0.000 A 
ATOM      8  C   UNL     1       5.400   4.476  15.072  0.00  0.00    +0.000 A 
ATOM      9  C   UNL     1       6.725   4.895  15.020  0.00  0.00    +0.000 A 
ATOM     10  C   UNL     1       7.481   4.999  16.180  0.00  0.00    +0.000 A 
ATOM     11  C   UNL     1       6.907   4.664  17.410  0.00  0.00    +0.000 A 
BRANCH   9  12
ATOM     12  O   UNL     1       7.326   5.209  13.839  0.00  0.00    +0.000 OA
ATOM     13  H   UNL     1       7.943   4.499  13.598  0.00  0.00    +0.000 HD
ENDBRANCH   9  12
ENDBRANCH   4   6
ENDBRANCH   1   4
BRANCH   1  14
ATOM     14  C   UNL     1       3.496   1.848  18.300  0.00  0.00    +0.000 C 
BRANCH  14  15
ATOM     15  C   UNL     1       2.230   1.796  19.154  0.00  0.00    +0.000 C 
BRANCH  15  17
ATOM     16  O   UNL     1       0.022   2.536  18.486  0.00  0.00    +0.000 OA
ATOM     17  C   UNL     1       1.145   2.823  18.893  0.00  0.00    +0.000 C 
BRANCH  17  18
ATOM     18  C   UNL     1       1.550   4.257  19.110  0.00  0.00    +0.000 A 
ATOM     19  C   UNL     1       1.895   5.084  18.027  0.00  0.00    +0.000 A 
ATOM     20  C   UNL     1       2.205   6.428  18.224  0.00  0.00    +0.000 A 
ATOM     21  C   UNL     1       2.173   6.964  19.506  0.00  0.00    +0.000 A 
ATOM     22  C   UNL     1       1.846   6.151  20.594  0.00  0.00    +0.000 A 
ATOM     23  C   UNL     1       1.540   4.798  20.399  0.00  0.00    +0.000 A 
ENDBRANCH  17  18
ENDBRANCH  15  17
ENDBRANCH  14  15
ENDBRANCH   1  14
TORSDOF 8
ENDMDL
MODEL 4
REMARK VINA RESULT:      -6.4      2.341      4.393
REMARK  Name = 
REMARK  8 active torsions:
REMARK  status: ('A' for Active; 'I' for Inactive)
REMARK    1  A    between atoms: C_2  and  C_3
REMARK    2  A    between atoms: C_2  and  C_16
REMARK    3  A    between atoms: C_3  and  C_4
REMARK    4  A    between atoms: C_4  and  C_5
REMARK    5  A    between atoms: C_5  and  O_6
REMARK    6  A    between atoms: C_5  and  C_7
REMARK    7  A    between atoms: C_7  and  C_9
REMARK    8  A    between atoms: C_12  and  O_13
REMARK                            x       y       z     vdW  Elec       q    Type
REMARK                         _______ _______ _______ _____ _____    ______ ____
ROOT
ATOM      1  C   UNL     1       6.884   6.612  17.681  0.00  0.00    +0.000 C 
ENDROOT
BRANCH   1   2
ATOM      2  O   UNL     1       7.678   7.560  16.954  0.00  0.00    +0.000 OA
ATOM      3  H   UNL     1       7.054   8.061  16.390  0.00  0.00    +0.000 HD
ENDBRANCH   1   2
BRANCH   1   4
ATOM      4  C   UNL     1       7.288   5.208  17.197  0.00  0.00    +0.000 C 
ATOM      5  O   UNL     1       7.898   4.456  17.960  0.00  0.00    +0.000 OA
BRANCH   4   6
ATOM      6  C   UNL     1       6.914   4.722  15.833  0.00  0.00    +0.000 A 
ATOM      7  C   UNL     1       7.516   5.188  14.659  0.00  0.00    +0.000 A 
ATOM      8  C   UNL     1       7.066   4.747  13.408  0.00  0.00    +0.000 A 
ATOM      9  C   UNL     1       6.025   3.828  13.332  0.00  0.00    +0.000 A 
ATOM     10  C   UNL     1       5.428   3.338  14.486  0.00  0.00    +0.000 A 
ATOM     11  C   UNL     1       5.869   3.786  15.734  0.00  0.00    +0.000 A 
BRANCH   9  12
ATOM     12  O   UNL     1       5.552   3.384  12.135  0.00  0.00    +0.000 OA
ATOM     13  H   UNL     1       5.137   4.124  11.663  0.00  0.00    +0.000 HD
ENDBRANCH   9  12
ENDBRANCH   4   6
ENDBRANCH   1   4
BRANCH   1  14
ATOM     14  C   UNL     1       5.391   6.914  17.443  0.00  0.00    +0.000 C 
BRANCH  14  15
ATOM     15  C   UNL     1       4.513   6.041  18.340  0.00  0.00    +0.000 C 
BRANCH  15  17
ATOM     16  O   UNL     1       2.466   7.233  17.832  0.00  0.00    +0.000 OA
ATOM     17  C   UNL     1       3.009   6.219  18.264  0.00  0.00    +0.000 C 
BRANCH  17  18
ATOM     18  C   UNL     1       2.197   5.077  18.816  0.00  0.00    +0.000 A 
ATOM     19  C   UNL     1       1.733   4.047  17.979  0.00  0.00    +0.000 A 
ATOM     20  C   UNL     1       1.041   2.958  18.502  0.00  0.00    +0.000 A 
ATOM     21  C   UNL     1       0.802   2.882  19.870  0.00  0.00    +0.000 A 
ATOM     22  C   UNL     1       1.245   3.905  20.712  0.00  0.00    +0.000 A 
ATOM     23  C   UNL     1       1.936   5.004  20.188  0.00  0.00    +0.000 A 
ENDBRANCH  17  18
ENDBRANCH  15  17
ENDBRANCH  14  15
ENDBRANCH   1  14
TORSDOF 8
ENDMDL
MODEL 5
REMARK VINA RESULT:      -6.4      2.441      4.400
REMARK  Name = 
REMARK  8 active torsions:
REMARK  status: ('A' for Active; 'I' for Inactive)
REMARK    1  A    between atoms: C_2  and  C_3
REMARK    2  A    between atoms: C_2  and  C_16
REMARK    3  A    between atoms: C_3  and  C_4
REMARK    4  A    between atoms: C_4  and  C_5
REMARK    5  A    between atoms: C_5  and  O_6
REMARK    6  A    between atoms: C_5  and  C_7
REMARK    7  A    between atoms: C_7  and  C_9
REMARK    8  A    between atoms: C_12  and  O_13
REMARK                            x       y       z     vdW  Elec       q    Type
REMARK                         _______ _______ _______ _____ _____    ______ ____
ROOT
ATOM      1  C   UNL     1       6.641   6.221  17.755  0.00  0.00    +0.000 C 
ENDROOT
BRANCH   1   2
ATOM      2  O   UNL     1       6.444   7.277  16.804  0.00  0.00    +0.000 OA
ATOM      3  H   UNL     1       6.541   8.113  17.304  0.00  0.00    +0.000 HD
ENDBRANCH   1   2
BRANCH   1   4
ATOM      4  C   UNL     1       7.246   5.027  16.997  0.00  0.00    +0.000 C 
ATOM      5  O   UNL     1       8.145   4.368  17.522  0.00  0.00    +0.000 OA
BRANCH   4   6
ATOM      6  C   UNL     1       6.732   4.623  15.651  0.00  0.00    +0.000 A 
ATOM      7  C   UNL     1       5.546   3.903  15.466  0.00  0.00    +0.000 A 
ATOM      8  C   UNL     1       5.160   3.489  14.185  0.00  0.00    +0.000 A 
ATOM      9  C   UNL     1       5.952   3.809  13.088  0.00  0.00    +0.000 A 
ATOM     10  C   UNL     1       7.121   4.540  13.248  0.00  0.00    +0.000 A 
ATOM     11  C   UNL     1       7.513   4.944  14.527  0.00  0.00    +0.000 A 
BRANCH   9  12
ATOM     12  O   UNL     1       5.616   3.415  11.828  0.00  0.00    +0.000 OA
ATOM     13  H   UNL     1       5.521   4.201  11.265  0.00  0.00    +0.000 HD
ENDBRANCH   9  12
ENDBRANCH   4   6
ENDBRANCH   1   4
BRANCH   1  14
ATOM     14  C   UNL     1       5.291   5.879  18.418  0.00  0.00    +0.000 C 
BRANCH  14  15
ATOM     15  C   UNL     1       4.130   6.458  17.609  0.00  0.00    +0.000 C 
BRANCH  15  17
ATOM     16  O   UNL     1       2.232   7.697  18.463  0.00  0.00    +0.000 OA
ATOM     17  C   UNL     1       2.786   6.614  18.294  0.00  0.00    +0.000 C 
BRANCH  17  18
ATOM     18  C   UNL     1       2.180   5.340  18.822  0.00  0.00    +0.000 A 
ATOM     19  C   UNL     1       1.885   5.189  20.187  0.00  0.00    +0.000 A 
ATOM     20  C   UNL     1       1.263   4.037  20.662  0.00  0.00    +0.000 A 
ATOM     21  C   UNL     1       0.926   3.018  19.777  0.00  0.00    +0.000 A 
ATOM     22  C   UNL     1       1.226   3.148  18.419  0.00  0.00    +0.000 A 
ATOM     23  C   UNL     1       1.857   4.303  17.940  0.00  0.00    +0.000 A 
ENDBRANCH  17  18
ENDBRANCH  15  17
ENDBRANCH  14  15
ENDBRANCH   1  14
TORSDOF 8
ENDMDL
MODEL 6
REMARK VINA RESULT:      -6.4      1.798      2.648
REMARK  Name = 
REMARK  8 active torsions:
REMARK  status: ('A' for Active; 'I' for Inactive)
REMARK    1  A    between atoms: C_2  and  C_3
REMARK    2  A    between atoms: C_2  and  C_16
REMARK    3  A    between atoms: C_3  and  C_4
REMARK    4  A    between atoms: C_4  and  C_5
REMARK    5  A    between atoms: C_5  and  O_6
REMARK    6  A    between atoms: C_5  and  C_7
REMARK    7  A    between atoms: C_7  and  C_9
REMARK    8  A    between atoms: C_12  and  O_13
REMARK                            x       y       z     vdW  Elec       q    Type
REMARK                         _______ _______ _______ _____ _____    ______ ____
ROOT
ATOM      1  C   UNL     1       2.570   3.018  17.412  0.00  0.00    +0.000 C 
ENDROOT
BRANCH   1   2
ATOM      2  O   UNL     1       1.923   1.960  18.133  0.00  0.00    +0.000 OA
ATOM      3  H   UNL     1       2.639   1.379  18.463  0.00  0.00    +0.000 HD
ENDBRANCH   1   2
BRANCH   1   4
ATOM      4  C   UNL     1       4.027   3.084  17.903  0.00  0.00    +0.000 C 
ATOM      5  O   UNL     1       4.328   2.561  18.978  0.00  0.00    +0.000 OA
BRANCH   4   6
ATOM      6  C   UNL     1       5.095   3.730  17.078  0.00  0.00    +0.000 A 
ATOM      7  C   UNL     1       6.178   4.423  17.629  0.00  0.00    +0.000 A 
ATOM      8  C   UNL     1       7.102   5.070  16.799  0.00  0.00    +0.000 A 
ATOM      9  C   UNL     1       6.951   5.010  15.418  0.00  0.00    +0.000 A 
ATOM     10  C   UNL     1       5.895   4.310  14.851  0.00  0.00    +0.000 A 
ATOM     11  C   UNL     1       4.966   3.673  15.678  0.00  0.00    +0.000 A 
BRANCH   9  12
ATOM     12  O   UNL     1       7.823   5.635  14.579  0.00  0.00    +0.000 OA
ATOM     13  H   UNL     1       8.710   5.619  14.973  0.00  0.00    +0.000 HD
ENDBRANCH   9  12
ENDBRANCH   4   6
ENDBRANCH   1   4
BRANCH   1  14
ATOM     14  C   UNL     1       1.804   4.335  17.649  0.00  0.00    +0.000 C 
BRANCH  14  15
ATOM     15  C   UNL     1       1.931   4.779  19.106  0.00  0.00    +0.000 C 
BRANCH  15  17
ATOM     16  O   UNL     1       3.988   5.826  19.841  0.00  0.00    +0.000 OA
ATOM     17  C   UNL     1       2.840   5.951  19.423  0.00  0.00    +0.000 C 
BRANCH  17  18
ATOM     18  C   UNL     1       2.221   7.312  19.247  0.00  0.00    +0.000 A 
ATOM     19  C   UNL     1       1.562   7.951  20.311  0.00  0.00    +0.000 A 
ATOM     20  C   UNL     1       1.048   9.238  20.166  0.00  0.00    +0.000 A 
ATOM     21  C   UNL     1       1.187   9.905  18.954  0.00  0.00    +0.000 A 
ATOM     22  C   UNL     1       1.827   9.276  17.882  0.00  0.00    +0.000 A 
ATOM     23  C   UNL     1       2.338   7.980  18.024  0.00  0.00    +0.000 A 
ENDBRANCH  17  18
ENDBRANCH  15  17
ENDBRANCH  14  15
ENDBRANCH   1  14
TORSDOF 8
ENDMDL
MODEL 7
REMARK VINA RESULT:      -6.3      2.639      6.447
REMARK  Name = 
REMARK  8 active torsions:
REMARK  status: ('A' for Active; 'I' for Inactive)
REMARK    1  A    between atoms: C_2  and  C_3
REMARK    2  A    between atoms: C_2  and  C_16
REMARK    3  A    between atoms: C_3  and  C_4
REMARK    4  A    between atoms: C_4  and  C_5
REMARK    5  A    between atoms: C_5  and  O_6
REMARK    6  A    between atoms: C_5  and  C_7
REMARK    7  A    between atoms: C_7  and  C_9
REMARK    8  A    between atoms: C_12  and  O_13
REMARK                            x       y       z     vdW  Elec       q    Type
REMARK                         _______ _______ _______ _____ _____    ______ ____
ROOT
ATOM      1  C   UNL     1       4.476   5.323  17.663  0.00  0.00    +0.000 C 
ENDROOT
BRANCH   1   2
ATOM      2  O   UNL     1       3.892   6.420  18.381  0.00  0.00    +0.000 OA
ATOM      3  H   UNL     1       4.602   6.778  18.954  0.00  0.00    +0.000 HD
ENDBRANCH   1   2
BRANCH   1   4
ATOM      4  C   UNL     1       3.482   4.151  17.731  0.00  0.00    +0.000 C 
ATOM      5  O   UNL     1       3.215   3.523  16.704  0.00  0.00    +0.000 OA
BRANCH   4   6
ATOM      6  C   UNL     1       2.870   3.727  19.028  0.00  0.00    +0.000 A 
ATOM      7  C   UNL     1       3.561   2.997  20.002  0.00  0.00    +0.000 A 
ATOM      8  C   UNL     1       2.906   2.566  21.163  0.00  0.00    +0.000 A 
ATOM      9  C   UNL     1       1.565   2.880  21.356  0.00  0.00    +0.000 A 
ATOM     10  C   UNL     1       0.867   3.620  20.412  0.00  0.00    +0.000 A 
ATOM     11  C   UNL     1       1.517   4.041  19.248  0.00  0.00    +0.000 A 
BRANCH   9  12
ATOM     12  O   UNL     1       0.891   2.469  22.466  0.00  0.00    +0.000 OA
ATOM     13  H   UNL     1       0.024   2.121  22.201  0.00  0.00    +0.000 HD
ENDBRANCH   9  12
ENDBRANCH   4   6
ENDBRANCH   1   4
BRANCH   1  14
ATOM     14  C   UNL     1       5.842   4.979  18.289  0.00  0.00    +0.000 C 
BRANCH  14  15
ATOM     15  C   UNL     1       6.817   4.484  17.221  0.00  0.00    +0.000 C 
BRANCH  15  17
ATOM     16  O   UNL     1       7.536   6.577  16.236  0.00  0.00    +0.000 OA
ATOM     17  C   UNL     1       7.165   5.417  16.077  0.00  0.00    +0.000 C 
BRANCH  17  18
ATOM     18  C   UNL     1       6.968   4.845  14.698  0.00  0.00    +0.000 A 
ATOM     19  C   UNL     1       5.942   3.921  14.436  0.00  0.00    +0.000 A 
ATOM     20  C   UNL     1       5.720   3.444  13.147  0.00  0.00    +0.000 A 
ATOM     21  C   UNL     1       6.521   3.886  12.099  0.00  0.00    +0.000 A 
ATOM     22  C   UNL     1       7.554   4.793  12.346  0.00  0.00    +0.000 A 
ATOM     23  C   UNL     1       7.783   5.269  13.643  0.00  0.00    +0.000 A 
ENDBRANCH  17  18
ENDBRANCH  15  17
ENDBRANCH  14  15
ENDBRANCH   1  14
TORSDOF 8
ENDMDL
MODEL 8
REMARK VINA RESULT:      -6.3      2.574      4.451
REMARK  Name = 
REMARK  8 active torsions:
REMARK  status: ('A' for Active; 'I' for Inactive)
REMARK    1  A    between atoms: C_2  and  C_3
REMARK    2  A    between atoms: C_2  and  C_16
REMARK    3  A    between atoms: C_3  and  C_4
REMARK    4  A    between atoms: C_4  and  C_5
REMARK    5  A    between atoms: C_5  and  O_6
REMARK    6  A    between atoms: C_5  and  C_7
REMARK    7  A    between atoms: C_7  and  C_9
REMARK    8  A    between atoms: C_12  and  O_13
REMARK                            x       y       z     vdW  Elec       q    Type
REMARK                         _______ _______ _______ _____ _____    ______ ____
ROOT
ATOM      1  C   UNL     1       6.700   4.831  17.968  0.00  0.00    +0.000 C 
ENDROOT
BRANCH   1   2
ATOM      2  O   UNL     1       7.953   4.701  18.656  0.00  0.00    +0.000 OA
ATOM      3  H   UNL     1       8.234   5.612  18.881  0.00  0.00    +0.000 HD
ENDBRANCH   1   2
BRANCH   1   4
ATOM      4  C   UNL     1       6.982   5.543  16.634  0.00  0.00    +0.000 C 
ATOM      5  O   UNL     1       7.578   6.622  16.636  0.00  0.00    +0.000 OA
BRANCH   4   6
ATOM      6  C   UNL     1       6.589   4.928  15.328  0.00  0.00    +0.000 A 
ATOM      7  C   UNL     1       5.410   4.195  15.149  0.00  0.00    +0.000 A 
ATOM      8  C   UNL     1       5.137   3.580  13.920  0.00  0.00    +0.000 A 
ATOM      9  C   UNL     1       6.036   3.711  12.867  0.00  0.00    +0.000 A 
ATOM     10  C   UNL     1       7.201   4.450  13.019  0.00  0.00    +0.000 A 
ATOM     11  C   UNL     1       7.480   5.055  14.248  0.00  0.00    +0.000 A 
BRANCH   9  12
ATOM     12  O   UNL     1       5.811   3.119  11.661  0.00  0.00    +0.000 OA
ATOM     13  H   UNL     1       4.898   2.790  11.634  0.00  0.00    +0.000 HD
ENDBRANCH   9  12
ENDBRANCH   4   6
ENDBRANCH   1   4
BRANCH   1  14
ATOM     14  C   UNL     1       5.712   5.610  18.858  0.00  0.00    +0.000 C 
BRANCH  14  15
ATOM     15  C   UNL     1       4.505   6.078  18.046  0.00  0.00    +0.000 C 
BRANCH  15  17
ATOM     16  O   UNL     1       2.636   7.057  19.237  0.00  0.00    +0.000 OA
ATOM     17  C   UNL     1       3.143   6.068  18.713  0.00  0.00    +0.000 C 
BRANCH  17  18
ATOM     18  C   UNL     1       2.454   4.729  18.749  0.00  0.00    +0.000 A 
ATOM     19  C   UNL     1       2.718   3.752  17.773  0.00  0.00    +0.000 A 
ATOM     20  C   UNL     1       2.131   2.491  17.846  0.00  0.00    +0.000 A 
ATOM     21  C   UNL     1       1.272   2.189  18.896  0.00  0.00    +0.000 A 
ATOM     22  C   UNL     1       0.988   3.154  19.865  0.00  0.00    +0.000 A 
ATOM     23  C   UNL     1       1.572   4.425  19.791  0.00  0.00    +0.000 A 
ENDBRANCH  17  18
ENDBRANCH  15  17
ENDBRANCH  14  15
ENDBRANCH   1  14
TORSDOF 8
ENDMDL
MODEL 9
REMARK VINA RESULT:      -6.3      1.265      2.041
REMARK  Name = 
REMARK  8 active torsions:
REMARK  status: ('A' for Active; 'I' for Inactive)
REMARK    1  A    between atoms: C_2  and  C_3
REMARK    2  A    between atoms: C_2  and  C_16
REMARK    3  A    between atoms: C_3  and  C_4
REMARK    4  A    between atoms: C_4  and  C_5
REMARK    5  A    between atoms: C_5  and  O_6
REMARK    6  A    between atoms: C_5  and  C_7
REMARK    7  A    between atoms: C_7  and  C_9
REMARK    8  A    between atoms: C_12  and  O_13
REMARK                            x       y       z     vdW  Elec       q    Type
REMARK                         _______ _______ _______ _____ _____    ______ ____
ROOT
ATOM      1  C   UNL     1       2.420   2.631  18.672  0.00  0.00    +0.000 C 
ENDROOT
BRANCH   1   2
ATOM      2  O   UNL     1       2.323   1.386  17.964  0.00  0.00    +0.000 OA
ATOM      3  H   UNL     1       2.314   1.616  17.012  0.00  0.00    +0.000 HD
ENDBRANCH   1   2
BRANCH   1   4
ATOM      4  C   UNL     1       3.899   2.829  19.048  0.00  0.00    +0.000 C 
ATOM      5  O   UNL     1       4.434   2.047  19.837  0.00  0.00    +0.000 OA
BRANCH   4   6
ATOM      6  C   UNL     1       4.713   3.926  18.438  0.00  0.00    +0.000 A 
ATOM      7  C   UNL     1       5.592   4.730  19.172  0.00  0.00    +0.000 A 
ATOM      8  C   UNL     1       6.268   5.790  18.554  0.00  0.00    +0.000 A 
ATOM      9  C   UNL     1       6.076   6.035  17.198  0.00  0.00    +0.000 A 
ATOM     10  C   UNL     1       5.225   5.236  16.448  0.00  0.00    +0.000 A 
ATOM     11  C   UNL     1       4.541   4.185  17.066  0.00  0.00    +0.000 A 
BRANCH   9  12
ATOM     12  O   UNL     1       6.707   7.062  16.565  0.00  0.00    +0.000 OA
ATOM     13  H   UNL     1       7.523   6.730  16.156  0.00  0.00    +0.000 HD
ENDBRANCH   9  12
ENDBRANCH   4   6
ENDBRANCH   1   4
BRANCH   1  14
ATOM     14  C   UNL     1       1.496   2.585  19.905  0.00  0.00    +0.000 C 
BRANCH  14  15
ATOM     15  C   UNL     1       0.939   3.974  20.215  0.00  0.00    +0.000 C 
BRANCH  15  17
ATOM     16  O   UNL     1       2.612   4.800  21.761  0.00  0.00    +0.000 OA
ATOM     17  C   UNL     1       1.879   5.011  20.798  0.00  0.00    +0.000 C 
BRANCH  17  18
ATOM     18  C   UNL     1       1.821   6.370  20.149  0.00  0.00    +0.000 A 
ATOM     19  C   UNL     1       1.249   7.467  20.815  0.00  0.00    +0.000 A 
ATOM     20  C   UNL     1       1.256   8.736  20.241  0.00  0.00    +0.000 A 
ATOM     21  C   UNL     1       1.836   8.926  18.992  0.00  0.00    +0.000 A 
ATOM     22  C   UNL     1       2.396   7.842  18.311  0.00  0.00    +0.000 A 
ATOM     23  C   UNL     1       2.384   6.564  18.884  0.00  0.00    +0.000 A 
ENDBRANCH  17  18
ENDBRANCH  15  17
ENDBRANCH  14  15
ENDBRANCH   1  14
TORSDOF 8
ENDMDL
