MODEL 1
REMARK VINA RESULT:      -7.4      0.000      0.000
REMARK  Name = 
REMARK  4 active torsions:
REMARK  status: ('A' for Active; 'I' for Inactive)
REMARK    1  A    between atoms: C_2  and  C_21
REMARK    2  A    between atoms: N_3  and  C_4
REMARK    3  A    between atoms: C_9  and  C_10
REMARK    4  A    between atoms: C_19  and  O_20
REMARK                            x       y       z     vdW  Elec       q    Type
REMARK                         _______ _______ _______ _____ _____    ______ ____
ROOT
ATOM      1  C   UNL     1       2.204   4.140  18.399  0.00  0.00    +0.000 A 
ATOM      2  C   UNL     1       1.086   3.287  18.516  0.00  0.00    +0.000 A 
ATOM      3  C   UNL     1       1.227   1.906  18.649  0.00  0.00    +0.000 A 
ATOM      4  C   UNL     1       2.492   1.355  18.683  0.00  0.00    +0.000 A 
ATOM      5  C   UNL     1       3.600   2.187  18.543  0.00  0.00    +0.000 A 
ATOM      6  C   UNL     1       3.500   3.597  18.367  0.00  0.00    +0.000 A 
ENDROOT
BRANCH   6   7
ATOM      7  C   UNL     1       4.737   4.368  18.087  0.00  0.00    +0.000 A 
ATOM      8  N   UNL     1       5.534   4.888  19.053  0.00  0.00    +0.000 NA
ATOM      9  C   UNL     1       6.440   5.827  18.641  0.00  0.00    +0.000 A 
ATOM     10  C   UNL     1       7.598   6.167  19.338  0.00  0.00    +0.000 A 
ATOM     11  C   UNL     1       8.482   7.149  18.870  0.00  0.00    +0.000 A 
ATOM     12  C   UNL     1       8.126   7.921  17.764  0.00  0.00    +0.000 A 
ATOM     13  C   UNL     1       7.011   7.554  17.024  0.00  0.00    +0.000 A 
ATOM     14  C   UNL     1       6.311   6.418  17.366  0.00  0.00    +0.000 A 
ATOM     15  N   UNL     1       5.627   5.793  16.408  0.00  0.00    +0.000 NA
ATOM     16  C   UNL     1       5.076   4.627  16.775  0.00  0.00    +0.000 A 
BRANCH  16  17
ATOM     17  O   UNL     1       5.592   3.543  16.077  0.00  0.00    +0.000 OA
ATOM     18  H   UNL     1       6.224   3.088  16.681  0.00  0.00    +0.000 HD
ENDBRANCH  16  17
ENDBRANCH   6   7
BRANCH   1  21
ATOM     19  O   UNL     1       2.455   6.053  20.459  0.00  0.00    +0.000 OA
ATOM     20  C   UNL     1       2.108   6.408  19.334  0.00  0.00    +0.000 C 
ATOM     21  N   UNL     1       1.998   5.530  18.264  0.00  0.00    +0.000 N 
ATOM     22  H   UNL     1       2.146   5.932  17.340  0.00  0.00    +0.000 HD
BRANCH  20  23
ATOM     23  C   UNL     1       1.855   7.812  19.041  0.00  0.00    +0.000 A 
ATOM     24  C   UNL     1       2.203   8.466  17.873  0.00  0.00    +0.000 A 
ATOM     25  C   UNL     1       1.920   9.859  17.918  0.00  0.00    +0.000 A 
ATOM     26  C   UNL     1       1.357  10.226  19.119  0.00  0.00    +0.000 A 
ATOM     27  S   UNL     1       1.138   8.887  20.164  0.00  0.00    +0.000 S 
ENDBRANCH  20  23
ENDBRANCH   1  21
TORSDOF 4
ENDMDL
MODEL 2
REMARK VINA RESULT:      -7.1      2.196      2.655
REMARK  Name = 
REMARK  4 active torsions:
REMARK  status: ('A' for Active; 'I' for Inactive)
REMARK    1  A    between atoms: C_2  and  C_21
REMARK    2  A    between atoms: N_3  and  C_4
REMARK    3  A    between atoms: C_9  and  C_10
REMARK    4  A    between atoms: C_19  and  O_20
REMARK                            x       y       z     vdW  Elec       q    Type
REMARK                         _______ _______ _______ _____ _____    ______ ____
ROOT
ATOM      1  C   UNL     1       2.285   5.089  19.983  0.00  0.00    +0.000 A 
ATOM      2  C   UNL     1       1.305   4.565  20.852  0.00  0.00    +0.000 A 
ATOM      3  C   UNL     1       1.431   3.299  21.422  0.00  0.00    +0.000 A 
ATOM      4  C   UNL     1       2.548   2.539  21.143  0.00  0.00    +0.000 A 
ATOM      5  C   UNL     1       3.508   3.038  20.265  0.00  0.00    +0.000 A 
ATOM      6  C   UNL     1       3.401   4.310  19.633  0.00  0.00    +0.000 A 
ENDROOT
BRANCH   6   7
ATOM      7  C   UNL     1       4.410   4.682  18.608  0.00  0.00    +0.000 A 
ATOM      8  N   UNL     1       4.093   5.063  17.347  0.00  0.00    +0.000 NA
ATOM      9  C   UNL     1       5.122   5.062  16.445  0.00  0.00    +0.000 A 
ATOM     10  C   UNL     1       5.135   5.792  15.258  0.00  0.00    +0.000 A 
ATOM     11  C   UNL     1       6.215   5.738  14.366  0.00  0.00    +0.000 A 
ATOM     12  C   UNL     1       7.238   4.815  14.585  0.00  0.00    +0.000 A 
ATOM     13  C   UNL     1       7.273   4.129  15.791  0.00  0.00    +0.000 A 
ATOM     14  C   UNL     1       6.331   4.403  16.757  0.00  0.00    +0.000 A 
ATOM     15  N   UNL     1       6.656   4.175  18.029  0.00  0.00    +0.000 NA
ATOM     16  C   UNL     1       5.748   4.584  18.927  0.00  0.00    +0.000 A 
BRANCH  16  17
ATOM     17  O   UNL     1       6.227   5.583  19.764  0.00  0.00    +0.000 OA
ATOM     18  H   UNL     1       7.198   5.644  19.609  0.00  0.00    +0.000 HD
ENDBRANCH  16  17
ENDBRANCH   6   7
BRANCH   1  21
ATOM     19  O   UNL     1       1.537   7.402  21.416  0.00  0.00    +0.000 OA
ATOM     20  C   UNL     1       1.698   7.463  20.198  0.00  0.00    +0.000 C 
ATOM     21  N   UNL     1       2.101   6.377  19.434  0.00  0.00    +0.000 N 
ATOM     22  H   UNL     1       2.619   6.595  18.584  0.00  0.00    +0.000 HD
BRANCH  20  23
ATOM     23  C   UNL     1       1.539   8.725  19.488  0.00  0.00    +0.000 A 
ATOM     24  C   UNL     1       2.034   9.006  18.227  0.00  0.00    +0.000 A 
ATOM     25  C   UNL     1       1.811  10.355  17.838  0.00  0.00    +0.000 A 
ATOM     26  C   UNL     1       1.145  11.063  18.813  0.00  0.00    +0.000 A 
ATOM     27  S   UNL     1       0.761  10.089  20.168  0.00  0.00    +0.000 S 
ENDBRANCH  20  23
ENDBRANCH   1  21
TORSDOF 4
ENDMDL
MODEL 3
REMARK VINA RESULT:      -6.8      1.115      1.129
REMARK  Name = 
REMARK  4 active torsions:
REMARK  status: ('A' for Active; 'I' for Inactive)
REMARK    1  A    between atoms: C_2  and  C_21
REMARK    2  A    between atoms: N_3  and  C_4
REMARK    3  A    between atoms: C_9  and  C_10
REMARK    4  A    between atoms: C_19  and  O_20
REMARK                            x       y       z     vdW  Elec       q    Type
REMARK                         _______ _______ _______ _____ _____    ______ ____
ROOT
ATOM      1  C   UNL     1       1.905   4.642  19.699  0.00  0.00    +0.000 A 
ATOM      2  C   UNL     1       0.775   3.957  20.192  0.00  0.00    +0.000 A 
ATOM      3  C   UNL     1       0.861   2.651  20.673  0.00  0.00    +0.000 A 
ATOM      4  C   UNL     1       2.084   2.012  20.684  0.00  0.00    +0.000 A 
ATOM      5  C   UNL     1       3.200   2.673  20.176  0.00  0.00    +0.000 A 
ATOM      6  C   UNL     1       3.150   3.992  19.641  0.00  0.00    +0.000 A 
ENDROOT
BRANCH   6   7
ATOM      7  C   UNL     1       4.368   4.546  18.998  0.00  0.00    +0.000 A 
ATOM      8  N   UNL     1       5.382   5.126  19.685  0.00  0.00    +0.000 NA
ATOM      9  C   UNL     1       6.266   5.861  18.942  0.00  0.00    +0.000 A 
ATOM     10  C   UNL     1       7.564   6.174  19.340  0.00  0.00    +0.000 A 
ATOM     11  C   UNL     1       8.418   6.945  18.539  0.00  0.00    +0.000 A 
ATOM     12  C   UNL     1       7.917   7.548  17.385  0.00  0.00    +0.000 A 
ATOM     13  C   UNL     1       6.650   7.195  16.943  0.00  0.00    +0.000 A 
ATOM     14  C   UNL     1       5.937   6.231  17.620  0.00  0.00    +0.000 A 
ATOM     15  N   UNL     1       5.025   5.536  16.941  0.00  0.00    +0.000 NA
ATOM     16  C   UNL     1       4.460   4.527  17.622  0.00  0.00    +0.000 A 
BRANCH  16  17
ATOM     17  O   UNL     1       4.732   3.283  17.068  0.00  0.00    +0.000 OA
ATOM     18  H   UNL     1       5.587   2.981  17.451  0.00  0.00    +0.000 HD
ENDBRANCH  16  17
ENDBRANCH   6   7
BRANCH   1  21
ATOM     19  O   UNL     1       1.953   6.982  21.275  0.00  0.00    +0.000 OA
ATOM     20  C   UNL     1       1.756   7.066  20.064  0.00  0.00    +0.000 C 
ATOM     21  N   UNL     1       1.755   5.963  19.221  0.00  0.00    +0.000 N 
ATOM     22  H   UNL     1       2.026   6.138  18.255  0.00  0.00    +0.000 HD
BRANCH  20  23
ATOM     23  C   UNL     1       1.579   8.362  19.426  0.00  0.00    +0.000 A 
ATOM     24  C   UNL     1       2.100   8.733  18.199  0.00  0.00    +0.000 A 
ATOM     25  C   UNL     1       1.847  10.096  17.884  0.00  0.00    +0.000 A 
ATOM     26  C   UNL     1       1.133  10.725  18.879  0.00  0.00    +0.000 A 
ATOM     27  S   UNL     1       0.740   9.660  20.162  0.00  0.00    +0.000 S 
ENDBRANCH  20  23
ENDBRANCH   1  21
TORSDOF 4
ENDMDL
MODEL 4
REMARK VINA RESULT:      -6.7      7.436     11.176
REMARK  Name = 
REMARK  4 active torsions:
REMARK  status: ('A' for Active; 'I' for Inactive)
REMARK    1  A    between atoms: C_2  and  C_21
REMARK    2  A    between atoms: N_3  and  C_4
REMARK    3  A    between atoms: C_9  and  C_10
REMARK    4  A    between atoms: C_19  and  O_20
REMARK                            x       y       z     vdW  Elec       q    Type
REMARK                         _______ _______ _______ _____ _____    ______ ____
ROOT
ATOM      1  C   UNL     1      -2.780  10.303  17.477  0.00  0.00    +0.000 A 
ATOM      2  C   UNL     1      -2.060   9.692  16.429  0.00  0.00    +0.000 A 
ATOM      3  C   UNL     1      -2.469   9.796  15.100  0.00  0.00    +0.000 A 
ATOM      4  C   UNL     1      -3.597  10.529  14.793  0.00  0.00    +0.000 A 
ATOM      5  C   UNL     1      -4.328  11.115  15.825  0.00  0.00    +0.000 A 
ATOM      6  C   UNL     1      -3.968  11.001  17.198  0.00  0.00    +0.000 A 
ENDROOT
BRANCH   6   7
ATOM      7  C   UNL     1      -4.894  11.545  18.224  0.00  0.00    +0.000 A 
ATOM      8  N   UNL     1      -4.481  12.167  19.354  0.00  0.00    +0.000 NA
ATOM      9  C   UNL     1      -5.425  12.320  20.333  0.00  0.00    +0.000 A 
ATOM     10  C   UNL     1      -5.358  13.264  21.355  0.00  0.00    +0.000 A 
ATOM     11  C   UNL     1      -6.352  13.363  22.339  0.00  0.00    +0.000 A 
ATOM     12  C   UNL     1      -7.358  12.398  22.396  0.00  0.00    +0.000 A 
ATOM     13  C   UNL     1      -7.475  11.492  21.351  0.00  0.00    +0.000 A 
ATOM     14  C   UNL     1      -6.633  11.592  20.267  0.00  0.00    +0.000 A 
ATOM     15  N   UNL     1      -7.062  11.118  19.097  0.00  0.00    +0.000 NA
ATOM     16  C   UNL     1      -6.251  11.363  18.056  0.00  0.00    +0.000 A 
BRANCH  16  17
ATOM     17  O   UNL     1      -6.838  12.174  17.094  0.00  0.00    +0.000 OA
ATOM     18  H   UNL     1      -6.479  13.081  17.226  0.00  0.00    +0.000 HD
ENDBRANCH  16  17
ENDBRANCH   6   7
BRANCH   1  21
ATOM     19  O   UNL     1      -0.543  11.606  18.597  0.00  0.00    +0.000 OA
ATOM     20  C   UNL     1      -1.188  10.809  19.276  0.00  0.00    +0.000 C 
ATOM     21  N   UNL     1      -2.320  10.159  18.804  0.00  0.00    +0.000 N 
ATOM     22  H   UNL     1      -3.009   9.895  19.506  0.00  0.00    +0.000 HD
BRANCH  20  23
ATOM     23  C   UNL     1      -0.831  10.552  20.664  0.00  0.00    +0.000 A 
ATOM     24  C   UNL     1      -0.189   9.420  21.133  0.00  0.00    +0.000 A 
ATOM     25  C   UNL     1      -0.067   9.404  22.549  0.00  0.00    +0.000 A 
ATOM     26  C   UNL     1      -0.616  10.530  23.120  0.00  0.00    +0.000 A 
ATOM     27  S   UNL     1      -1.235  11.612  21.946  0.00  0.00    +0.000 S 
ENDBRANCH  20  23
ENDBRANCH   1  21
TORSDOF 4
ENDMDL
MODEL 5
REMARK VINA RESULT:      -6.6      5.267      9.072
REMARK  Name = 
REMARK  4 active torsions:
REMARK  status: ('A' for Active; 'I' for Inactive)
REMARK    1  A    between atoms: C_2  and  C_21
REMARK    2  A    between atoms: N_3  and  C_4
REMARK    3  A    between atoms: C_9  and  C_10
REMARK    4  A    between atoms: C_19  and  O_20
REMARK                            x       y       z     vdW  Elec       q    Type
REMARK                         _______ _______ _______ _____ _____    ______ ____
ROOT
ATOM      1  C   UNL     1      -0.514  11.655  21.622  0.00  0.00    +0.000 A 
ATOM      2  C   UNL     1      -1.265  11.207  22.729  0.00  0.00    +0.000 A 
ATOM      3  C   UNL     1      -2.158  12.043  23.398  0.00  0.00    +0.000 A 
ATOM      4  C   UNL     1      -2.328  13.341  22.960  0.00  0.00    +0.000 A 
ATOM      5  C   UNL     1      -1.572  13.799  21.883  0.00  0.00    +0.000 A 
ATOM      6  C   UNL     1      -0.622  12.991  21.196  0.00  0.00    +0.000 A 
ENDROOT
BRANCH   6   7
ATOM      7  C   UNL     1       0.229  13.622  20.156  0.00  0.00    +0.000 A 
ATOM      8  N   UNL     1       1.584  13.635  20.200  0.00  0.00    +0.000 NA
ATOM      9  C   UNL     1       2.201  14.517  19.355  0.00  0.00    +0.000 A 
ATOM     10  C   UNL     1       3.524  14.410  18.930  0.00  0.00    +0.000 A 
ATOM     11  C   UNL     1       4.106  15.354  18.073  0.00  0.00    +0.000 A 
ATOM     12  C   UNL     1       3.402  16.516  17.755  0.00  0.00    +0.000 A 
ATOM     13  C   UNL     1       2.065  16.607  18.116  0.00  0.00    +0.000 A 
ATOM     14  C   UNL     1       1.453  15.540  18.735  0.00  0.00    +0.000 A 
ATOM     15  N   UNL     1       0.134  15.410  18.596  0.00  0.00    +0.000 NA
ATOM     16  C   UNL     1      -0.381  14.283  19.110  0.00  0.00    +0.000 A 
BRANCH  16  17
ATOM     17  O   UNL     1      -0.951  13.461  18.147  0.00  0.00    +0.000 OA
ATOM     18  H   UNL     1      -1.785  13.896  17.857  0.00  0.00    +0.000 HD
ENDBRANCH  16  17
ENDBRANCH   6   7
BRANCH   1  21
ATOM     19  O   UNL     1      -0.915  10.430  19.112  0.00  0.00    +0.000 OA
ATOM     20  C   UNL     1       0.096  10.172  19.764  0.00  0.00    +0.000 C 
ATOM     21  N   UNL     1       0.378  10.763  20.987  0.00  0.00    +0.000 N 
ATOM     22  H   UNL     1       1.364  10.847  21.226  0.00  0.00    +0.000 HD
BRANCH  20  23
ATOM     23  C   UNL     1       1.107   9.264  19.241  0.00  0.00    +0.000 A 
ATOM     24  C   UNL     1       1.655   9.314  17.971  0.00  0.00    +0.000 A 
ATOM     25  C   UNL     1       2.542   8.234  17.712  0.00  0.00    +0.000 A 
ATOM     26  C   UNL     1       2.650   7.393  18.796  0.00  0.00    +0.000 A 
ATOM     27  S   UNL     1       1.716   7.932  20.127  0.00  0.00    +0.000 S 
ENDBRANCH  20  23
ENDBRANCH   1  21
TORSDOF 4
ENDMDL
MODEL 6
REMARK VINA RESULT:      -6.5      4.570      7.961
REMARK  Name = 
REMARK  4 active torsions:
REMARK  status: ('A' for Active; 'I' for Inactive)
REMARK    1  A    between atoms: C_2  and  C_21
REMARK    2  A    between atoms: N_3  and  C_4
REMARK    3  A    between atoms: C_9  and  C_10
REMARK    4  A    between atoms: C_19  and  O_20
REMARK                            x       y       z     vdW  Elec       q    Type
REMARK                         _______ _______ _______ _____ _____    ______ ____
ROOT
ATOM      1  C   UNL     1      -0.421  12.477  21.477  0.00  0.00    +0.000 A 
ATOM      2  C   UNL     1      -1.446  13.236  22.080  0.00  0.00    +0.000 A 
ATOM      3  C   UNL     1      -2.277  12.697  23.062  0.00  0.00    +0.000 A 
ATOM      4  C   UNL     1      -2.087  11.393  23.470  0.00  0.00    +0.000 A 
ATOM      5  C   UNL     1      -1.093  10.629  22.861  0.00  0.00    +0.000 A 
ATOM      6  C   UNL     1      -0.248  11.127  21.829  0.00  0.00    +0.000 A 
ENDROOT
BRANCH   6   7
ATOM      7  C   UNL     1       0.682  10.186  21.154  0.00  0.00    +0.000 A 
ATOM      8  N   UNL     1       0.962  10.228  19.828  0.00  0.00    +0.000 NA
ATOM      9  C   UNL     1       1.571   9.119  19.309  0.00  0.00    +0.000 A 
ATOM     10  C   UNL     1       2.310   9.102  18.129  0.00  0.00    +0.000 A 
ATOM     11  C   UNL     1       2.900   7.928  17.640  0.00  0.00    +0.000 A 
ATOM     12  C   UNL     1       2.616   6.710  18.259  0.00  0.00    +0.000 A 
ATOM     13  C   UNL     1       1.937   6.717  19.469  0.00  0.00    +0.000 A 
ATOM     14  C   UNL     1       1.598   7.918  20.052  0.00  0.00    +0.000 A 
ATOM     15  N   UNL     1       1.453   7.951  21.376  0.00  0.00    +0.000 NA
ATOM     16  C   UNL     1       1.254   9.172  21.894  0.00  0.00    +0.000 A 
BRANCH  16  17
ATOM     17  O   UNL     1       2.275   9.571  22.746  0.00  0.00    +0.000 OA
ATOM     18  H   UNL     1       2.057  10.483  23.046  0.00  0.00    +0.000 HD
ENDBRANCH  16  17
ENDBRANCH   6   7
BRANCH   1  21
ATOM     19  O   UNL     1       1.853  14.080  21.948  0.00  0.00    +0.000 OA
ATOM     20  C   UNL     1       1.474  13.882  20.795  0.00  0.00    +0.000 C 
ATOM     21  N   UNL     1       0.387  13.075  20.486  0.00  0.00    +0.000 N 
ATOM     22  H   UNL     1       0.412  12.622  19.574  0.00  0.00    +0.000 HD
BRANCH  20  23
ATOM     23  C   UNL     1       2.203  14.438  19.665  0.00  0.00    +0.000 A 
ATOM     24  C   UNL     1       3.178  13.783  18.935  0.00  0.00    +0.000 A 
ATOM     25  C   UNL     1       3.786  14.617  17.957  0.00  0.00    +0.000 A 
ATOM     26  C   UNL     1       3.251  15.885  17.965  0.00  0.00    +0.000 A 
ATOM     27  S   UNL     1       1.998  16.048  19.120  0.00  0.00    +0.000 S 
ENDBRANCH  20  23
ENDBRANCH   1  21
TORSDOF 4
ENDMDL
MODEL 7
REMARK VINA RESULT:      -6.5      6.946     10.217
REMARK  Name = 
REMARK  4 active torsions:
REMARK  status: ('A' for Active; 'I' for Inactive)
REMARK    1  A    between atoms: C_2  and  C_21
REMARK    2  A    between atoms: N_3  and  C_4
REMARK    3  A    between atoms: C_9  and  C_10
REMARK    4  A    between atoms: C_19  and  O_20
REMARK                            x       y       z     vdW  Elec       q    Type
REMARK                         _______ _______ _______ _____ _____    ______ ____
ROOT
ATOM      1  C   UNL     1      -3.958  13.283  20.533  0.00  0.00    +0.000 A 
ATOM      2  C   UNL     1      -5.177  13.984  20.641  0.00  0.00    +0.000 A 
ATOM      3  C   UNL     1      -5.576  14.583  21.835  0.00  0.00    +0.000 A 
ATOM      4  C   UNL     1      -4.753  14.506  22.940  0.00  0.00    +0.000 A 
ATOM      5  C   UNL     1      -3.558  13.794  22.849  0.00  0.00    +0.000 A 
ATOM      6  C   UNL     1      -3.132  13.135  21.660  0.00  0.00    +0.000 A 
ENDROOT
BRANCH   6   7
ATOM      7  C   UNL     1      -1.913  12.288  21.715  0.00  0.00    +0.000 A 
ATOM      8  N   UNL     1      -1.466  11.547  20.672  0.00  0.00    +0.000 NA
ATOM      9  C   UNL     1      -0.534  10.591  20.973  0.00  0.00    +0.000 A 
ATOM     10  C   UNL     1       0.347  10.028  20.052  0.00  0.00    +0.000 A 
ATOM     11  C   UNL     1       1.271   9.040  20.419  0.00  0.00    +0.000 A 
ATOM     12  C   UNL     1       1.211   8.487  21.699  0.00  0.00    +0.000 A 
ATOM     13  C   UNL     1       0.385   9.079  22.644  0.00  0.00    +0.000 A 
ATOM     14  C   UNL     1      -0.318  10.217  22.317  0.00  0.00    +0.000 A 
ATOM     15  N   UNL     1      -0.654  11.048  23.302  0.00  0.00    +0.000 NA
ATOM     16  C   UNL     1      -1.220  12.198  22.905  0.00  0.00    +0.000 A 
BRANCH  16  17
ATOM     17  O   UNL     1      -0.461  13.314  23.229  0.00  0.00    +0.000 OA
ATOM     18  H   UNL     1      -0.118  13.683  22.382  0.00  0.00    +0.000 HD
ENDBRANCH  16  17
ENDBRANCH   6   7
BRANCH   1  21
ATOM     19  O   UNL     1      -5.409  11.262  19.201  0.00  0.00    +0.000 OA
ATOM     20  C   UNL     1      -4.356  11.677  18.719  0.00  0.00    +0.000 C 
ATOM     21  N   UNL     1      -3.609  12.693  19.298  0.00  0.00    +0.000 N 
ATOM     22  H   UNL     1      -3.048  13.254  18.660  0.00  0.00    +0.000 HD
BRANCH  20  23
ATOM     23  C   UNL     1      -3.864  11.160  17.450  0.00  0.00    +0.000 A 
ATOM     24  C   UNL     1      -4.430  11.397  16.210  0.00  0.00    +0.000 A 
ATOM     25  C   UNL     1      -3.790  10.675  15.166  0.00  0.00    +0.000 A 
ATOM     26  C   UNL     1      -2.747   9.911  15.641  0.00  0.00    +0.000 A 
ATOM     27  S   UNL     1      -2.524  10.101  17.328  0.00  0.00    +0.000 S 
ENDBRANCH  20  23
ENDBRANCH   1  21
TORSDOF 4
ENDMDL
MODEL 8
REMARK VINA RESULT:      -6.4      2.789      5.216
REMARK  Name = 
REMARK  4 active torsions:
REMARK  status: ('A' for Active; 'I' for Inactive)
REMARK    1  A    between atoms: C_2  and  C_21
REMARK    2  A    between atoms: N_3  and  C_4
REMARK    3  A    between atoms: C_9  and  C_10
REMARK    4  A    between atoms: C_19  and  O_20
REMARK                            x       y       z     vdW  Elec       q    Type
REMARK                         _______ _______ _______ _____ _____    ______ ____
ROOT
ATOM      1  C   UNL     1       2.837   3.554  19.292  0.00  0.00    +0.000 A 
ATOM      2  C   UNL     1       2.802   2.206  19.705  0.00  0.00    +0.000 A 
ATOM      3  C   UNL     1       2.107   1.806  20.845  0.00  0.00    +0.000 A 
ATOM      4  C   UNL     1       1.419   2.747  21.585  0.00  0.00    +0.000 A 
ATOM      5  C   UNL     1       1.469   4.084  21.197  0.00  0.00    +0.000 A 
ATOM      6  C   UNL     1       2.198   4.541  20.062  0.00  0.00    +0.000 A 
ENDROOT
BRANCH   6   7
ATOM      7  C   UNL     1       2.299   6.003  19.823  0.00  0.00    +0.000 A 
ATOM      8  N   UNL     1       1.455   6.913  20.369  0.00  0.00    +0.000 NA
ATOM      9  C   UNL     1       1.477   8.161  19.809  0.00  0.00    +0.000 A 
ATOM     10  C   UNL     1       1.040   9.321  20.445  0.00  0.00    +0.000 A 
ATOM     11  C   UNL     1       1.075  10.572  19.813  0.00  0.00    +0.000 A 
ATOM     12  C   UNL     1       1.407  10.646  18.459  0.00  0.00    +0.000 A 
ATOM     13  C   UNL     1       1.905   9.513  17.831  0.00  0.00    +0.000 A 
ATOM     14  C   UNL     1       2.102   8.362  18.559  0.00  0.00    +0.000 A 
ATOM     15  N   UNL     1       3.028   7.503  18.132  0.00  0.00    +0.000 NA
ATOM     16  C   UNL     1       3.263   6.469  18.954  0.00  0.00    +0.000 A 
BRANCH  16  17
ATOM     17  O   UNL     1       4.558   6.461  19.455  0.00  0.00    +0.000 OA
ATOM     18  H   UNL     1       4.487   6.341  20.429  0.00  0.00    +0.000 HD
ENDBRANCH  16  17
ENDBRANCH   6   7
BRANCH   1  21
ATOM     19  O   UNL     1       5.648   3.619  19.057  0.00  0.00    +0.000 OA
ATOM     20  C   UNL     1       4.948   3.943  18.100  0.00  0.00    +0.000 C 
ATOM     21  N   UNL     1       3.561   3.900  18.129  0.00  0.00    +0.000 N 
ATOM     22  H   UNL     1       3.099   3.748  17.235  0.00  0.00    +0.000 HD
BRANCH  20  23
ATOM     23  C   UNL     1       5.552   4.329  16.832  0.00  0.00    +0.000 A 
ATOM     24  C   UNL     1       4.902   4.373  15.611  0.00  0.00    +0.000 A 
ATOM     25  C   UNL     1       5.776   4.687  14.535  0.00  0.00    +0.000 A 
ATOM     26  C   UNL     1       7.068   4.880  14.968  0.00  0.00    +0.000 A 
ATOM     27  S   UNL     1       7.210   4.722  16.667  0.00  0.00    +0.000 S 
ENDBRANCH  20  23
ENDBRANCH   1  21
TORSDOF 4
ENDMDL
MODEL 9
REMARK VINA RESULT:      -6.4      2.251      5.672
REMARK  Name = 
REMARK  4 active torsions:
REMARK  status: ('A' for Active; 'I' for Inactive)
REMARK    1  A    between atoms: C_2  and  C_21
REMARK    2  A    between atoms: N_3  and  C_4
REMARK    3  A    between atoms: C_9  and  C_10
REMARK    4  A    between atoms: C_19  and  O_20
REMARK                            x       y       z     vdW  Elec       q    Type
REMARK                         _______ _______ _______ _____ _____    ______ ____
ROOT
ATOM      1  C   UNL     1       3.194   4.752  19.950  0.00  0.00    +0.000 A 
ATOM      2  C   UNL     1       3.260   3.368  20.213  0.00  0.00    +0.000 A 
ATOM      3  C   UNL     1       2.123   2.625  20.524  0.00  0.00    +0.000 A 
ATOM      4  C   UNL     1       0.893   3.251  20.562  0.00  0.00    +0.000 A 
ATOM      5  C   UNL     1       0.822   4.623  20.328  0.00  0.00    +0.000 A 
ATOM      6  C   UNL     1       1.964   5.426  20.045  0.00  0.00    +0.000 A 
ENDROOT
BRANCH   6   7
ATOM      7  C   UNL     1       1.792   6.898  19.952  0.00  0.00    +0.000 A 
ATOM      8  N   UNL     1       1.424   7.679  20.998  0.00  0.00    +0.000 NA
ATOM      9  C   UNL     1       1.003   8.942  20.682  0.00  0.00    +0.000 A 
ATOM     10  C   UNL     1       0.988  10.015  21.571  0.00  0.00    +0.000 A 
ATOM     11  C   UNL     1       0.531  11.285  21.192  0.00  0.00    +0.000 A 
ATOM     12  C   UNL     1      -0.071  11.452  19.944  0.00  0.00    +0.000 A 
ATOM     13  C   UNL     1      -0.006  10.413  19.026  0.00  0.00    +0.000 A 
ATOM     14  C   UNL     1       0.684   9.265  19.346  0.00  0.00    +0.000 A 
ATOM     15  N   UNL     1       1.188   8.541  18.347  0.00  0.00    +0.000 NA
ATOM     16  C   UNL     1       1.958   7.511  18.728  0.00  0.00    +0.000 A 
BRANCH  16  17
ATOM     17  O   UNL     1       3.275   7.637  18.308  0.00  0.00    +0.000 OA
ATOM     18  H   UNL     1       3.368   7.097  17.489  0.00  0.00    +0.000 HD
ENDBRANCH  16  17
ENDBRANCH   6   7
BRANCH   1  21
ATOM     19  O   UNL     1       4.871   4.268  17.733  0.00  0.00    +0.000 OA
ATOM     20  C   UNL     1       5.174   5.135  18.551  0.00  0.00    +0.000 C 
ATOM     21  N   UNL     1       4.381   5.454  19.644  0.00  0.00    +0.000 N 
ATOM     22  H   UNL     1       4.454   6.410  19.986  0.00  0.00    +0.000 HD
BRANCH  20  23
ATOM     23  C   UNL     1       6.375   5.939  18.372  0.00  0.00    +0.000 A 
ATOM     24  C   UNL     1       7.486   5.922  19.196  0.00  0.00    +0.000 A 
ATOM     25  C   UNL     1       8.459   6.891  18.829  0.00  0.00    +0.000 A 
ATOM     26  C   UNL     1       8.063   7.617  17.729  0.00  0.00    +0.000 A 
ATOM     27  S   UNL     1       6.547   7.100  17.125  0.00  0.00    +0.000 S 
ENDBRANCH  20  23
ENDBRANCH   1  21
TORSDOF 4
ENDMDL
