MODEL 1
REMARK VINA RESULT:      -7.7      0.000      0.000
REMARK  Name = 
REMARK  8 active torsions:
REMARK  status: ('A' for Active; 'I' for Inactive)
REMARK    1  A    between atoms: C_1  and  O_2
REMARK    2  A    between atoms: O_2  and  C_3
REMARK    3  A    between atoms: C_7  and  C_8
REMARK    4  A    between atoms: C_8  and  O_9
REMARK    5  A    between atoms: O_9  and  C_10
REMARK    6  A    between atoms: C_15  and  C_16
REMARK    7  A    between atoms: C_19  and  C_20
REMARK    8  A    between atoms: C_20  and  O_21
REMARK                            x       y       z     vdW  Elec       q    Type
REMARK                         _______ _______ _______ _____ _____    ______ ____
ROOT
ATOM      1  C   UNL     1       3.083   5.085  18.392  0.00  0.00    +0.000 A 
ATOM      2  C   UNL     1       1.774   4.571  18.391  0.00  0.00    +0.000 A 
ATOM      3  C   UNL     1       1.516   3.243  18.048  0.00  0.00    +0.000 A 
ATOM      4  C   UNL     1       2.565   2.401  17.711  0.00  0.00    +0.000 A 
ATOM      5  C   UNL     1       3.870   2.892  17.706  0.00  0.00    +0.000 A 
ATOM      6  C   UNL     1       4.147   4.233  18.038  0.00  0.00    +0.000 A 
ENDROOT
BRANCH   6   7
ATOM      7  C   UNL     1       5.582   4.646  17.967  0.00  0.00    +0.000 C 
ATOM      8  N   UNL     1       6.302   4.469  16.904  0.00  0.00    +0.000 NA
ATOM      9  O   UNL     1       7.608   4.928  17.161  0.00  0.00    +0.000 OA
ATOM     10  C   UNL     1       7.645   5.546  18.457  0.00  0.00    +0.000 C 
ATOM     11  C   UNL     1       6.304   5.282  19.102  0.00  0.00    +0.000 C 
BRANCH  10  12
ATOM     12  C   UNL     1       7.958   7.031  18.272  0.00  0.00    +0.000 C 
BRANCH  12  13
ATOM     13  O   UNL     1       7.567   7.494  16.980  0.00  0.00    +0.000 OA
ATOM     14  H   UNL     1       8.375   7.869  16.575  0.00  0.00    +0.000 HD
ENDBRANCH  12  13
ENDBRANCH  10  12
ENDBRANCH   6   7
BRANCH   1  15
ATOM     15  O   UNL     1       3.361   6.370  18.788  0.00  0.00    +0.000 OA
BRANCH  15  16
ATOM     16  C   UNL     1       2.912   7.416  17.927  0.00  0.00    +0.000 C 
BRANCH  16  21
ATOM     17  C   UNL     1       0.864   8.939  20.758  0.00  0.00    +0.000 A 
ATOM     18  C   UNL     1       0.157   9.928  20.072  0.00  0.00    +0.000 A 
ATOM     19  C   UNL     1       0.364  10.137  18.707  0.00  0.00    +0.000 A 
ATOM     20  C   UNL     1       1.274   9.343  18.011  0.00  0.00    +0.000 A 
ATOM     21  C   UNL     1       1.980   8.336  18.677  0.00  0.00    +0.000 A 
ATOM     22  C   UNL     1       1.789   8.160  20.062  0.00  0.00    +0.000 A 
BRANCH  17  24
ATOM     23  C   UNL     1      -0.317   9.808  22.635  0.00  0.00    +0.000 C 
ATOM     24  O   UNL     1       0.546   8.821  22.082  0.00  0.00    +0.000 OA
ENDBRANCH  17  24
ENDBRANCH  16  21
ENDBRANCH  15  16
ENDBRANCH   1  15
TORSDOF 7
ENDMDL
MODEL 2
REMARK VINA RESULT:      -7.6      1.471      1.647
REMARK  Name = 
REMARK  8 active torsions:
REMARK  status: ('A' for Active; 'I' for Inactive)
REMARK    1  A    between atoms: C_1  and  O_2
REMARK    2  A    between atoms: O_2  and  C_3
REMARK    3  A    between atoms: C_7  and  C_8
REMARK    4  A    between atoms: C_8  and  O_9
REMARK    5  A    between atoms: O_9  and  C_10
REMARK    6  A    between atoms: C_15  and  C_16
REMARK    7  A    between atoms: C_19  and  C_20
REMARK    8  A    between atoms: C_20  and  O_21
REMARK                            x       y       z     vdW  Elec       q    Type
REMARK                         _______ _______ _______ _____ _____    ______ ____
ROOT
ATOM      1  C   UNL     1       2.554   4.996  19.731  0.00  0.00    +0.000 A 
ATOM      2  C   UNL     1       1.305   4.524  20.175  0.00  0.00    +0.000 A 
ATOM      3  C   UNL     1       0.964   3.174  20.076  0.00  0.00    +0.000 A 
ATOM      4  C   UNL     1       1.869   2.270  19.544  0.00  0.00    +0.000 A 
ATOM      5  C   UNL     1       3.112   2.718  19.098  0.00  0.00    +0.000 A 
ATOM      6  C   UNL     1       3.469   4.078  19.178  0.00  0.00    +0.000 A 
ENDROOT
BRANCH   6   7
ATOM      7  C   UNL     1       4.817   4.439  18.640  0.00  0.00    +0.000 C 
ATOM      8  N   UNL     1       5.915   4.068  19.219  0.00  0.00    +0.000 NA
ATOM      9  O   UNL     1       7.005   4.589  18.496  0.00  0.00    +0.000 OA
ATOM     10  C   UNL     1       6.520   5.232  17.308  0.00  0.00    +0.000 C 
ATOM     11  C   UNL     1       5.012   5.254  17.412  0.00  0.00    +0.000 C 
BRANCH  10  12
ATOM     12  C   UNL     1       7.041   4.459  16.096  0.00  0.00    +0.000 C 
BRANCH  12  13
ATOM     13  O   UNL     1       7.581   5.335  15.106  0.00  0.00    +0.000 OA
ATOM     14  H   UNL     1       7.329   6.238  15.385  0.00  0.00    +0.000 HD
ENDBRANCH  12  13
ENDBRANCH  10  12
ENDBRANCH   6   7
BRANCH   1  15
ATOM     15  O   UNL     1       2.931   6.308  19.878  0.00  0.00    +0.000 OA
BRANCH  15  16
ATOM     16  C   UNL     1       2.493   7.217  18.868  0.00  0.00    +0.000 C 
BRANCH  16  21
ATOM     17  C   UNL     1       0.456   9.193  21.412  0.00  0.00    +0.000 A 
ATOM     18  C   UNL     1       0.041  10.276  20.636  0.00  0.00    +0.000 A 
ATOM     19  C   UNL     1       0.444  10.397  19.305  0.00  0.00    +0.000 A 
ATOM     20  C   UNL     1       1.260   9.422  18.733  0.00  0.00    +0.000 A 
ATOM     21  C   UNL     1       1.674   8.321  19.490  0.00  0.00    +0.000 A 
ATOM     22  C   UNL     1       1.290   8.230  20.842  0.00  0.00    +0.000 A 
BRANCH  17  24
ATOM     23  C   UNL     1      -0.794  10.309  23.105  0.00  0.00    +0.000 C 
ATOM     24  O   UNL     1      -0.033   9.181  22.688  0.00  0.00    +0.000 OA
ENDBRANCH  17  24
ENDBRANCH  16  21
ENDBRANCH  15  16
ENDBRANCH   1  15
TORSDOF 7
ENDMDL
MODEL 3
REMARK VINA RESULT:      -7.5      0.990      1.088
REMARK  Name = 
REMARK  8 active torsions:
REMARK  status: ('A' for Active; 'I' for Inactive)
REMARK    1  A    between atoms: C_1  and  O_2
REMARK    2  A    between atoms: O_2  and  C_3
REMARK    3  A    between atoms: C_7  and  C_8
REMARK    4  A    between atoms: C_8  and  O_9
REMARK    5  A    between atoms: O_9  and  C_10
REMARK    6  A    between atoms: C_15  and  C_16
REMARK    7  A    between atoms: C_19  and  C_20
REMARK    8  A    between atoms: C_20  and  O_21
REMARK                            x       y       z     vdW  Elec       q    Type
REMARK                         _______ _______ _______ _____ _____    ______ ____
ROOT
ATOM      1  C   UNL     1       2.512   4.408  18.111  0.00  0.00    +0.000 A 
ATOM      2  C   UNL     1       1.276   3.825  18.447  0.00  0.00    +0.000 A 
ATOM      3  C   UNL     1       1.143   2.444  18.596  0.00  0.00    +0.000 A 
ATOM      4  C   UNL     1       2.245   1.621  18.424  0.00  0.00    +0.000 A 
ATOM      5  C   UNL     1       3.478   2.179  18.090  0.00  0.00    +0.000 A 
ATOM      6  C   UNL     1       3.629   3.571  17.924  0.00  0.00    +0.000 A 
ENDROOT
BRANCH   6   7
ATOM      7  C   UNL     1       4.993   4.045  17.538  0.00  0.00    +0.000 C 
ATOM      8  N   UNL     1       5.412   4.024  16.311  0.00  0.00    +0.000 NA
ATOM      9  O   UNL     1       6.737   4.499  16.278  0.00  0.00    +0.000 OA
ATOM     10  C   UNL     1       7.108   4.957  17.587  0.00  0.00    +0.000 C 
ATOM     11  C   UNL     1       5.982   4.566  18.518  0.00  0.00    +0.000 C 
BRANCH  10  12
ATOM     12  C   UNL     1       7.353   6.464  17.517  0.00  0.00    +0.000 C 
BRANCH  12  13
ATOM     13  O   UNL     1       6.502   7.091  16.558  0.00  0.00    +0.000 OA
ATOM     14  H   UNL     1       5.694   7.348  17.046  0.00  0.00    +0.000 HD
ENDBRANCH  12  13
ENDBRANCH  10  12
ENDBRANCH   6   7
BRANCH   1  15
ATOM     15  O   UNL     1       2.676   5.768  18.024  0.00  0.00    +0.000 OA
BRANCH  15  16
ATOM     16  C   UNL     1       2.855   6.472  19.253  0.00  0.00    +0.000 C 
BRANCH  16  21
ATOM     17  C   UNL     1       0.750   9.482  20.270  0.00  0.00    +0.000 A 
ATOM     18  C   UNL     1       0.716  10.199  19.072  0.00  0.00    +0.000 A 
ATOM     19  C   UNL     1       1.400   9.739  17.946  0.00  0.00    +0.000 A 
ATOM     20  C   UNL     1       2.116   8.545  18.004  0.00  0.00    +0.000 A 
ATOM     21  C   UNL     1       2.150   7.804  19.191  0.00  0.00    +0.000 A 
ATOM     22  C   UNL     1       1.485   8.297  20.330  0.00  0.00    +0.000 A 
BRANCH  17  24
ATOM     23  C   UNL     1      -0.239   9.207  22.419  0.00  0.00    +0.000 C 
ATOM     24  O   UNL     1       0.016  10.027  21.285  0.00  0.00    +0.000 OA
ENDBRANCH  17  24
ENDBRANCH  16  21
ENDBRANCH  15  16
ENDBRANCH   1  15
TORSDOF 7
ENDMDL
MODEL 4
REMARK VINA RESULT:      -7.5      1.679      2.210
REMARK  Name = 
REMARK  8 active torsions:
REMARK  status: ('A' for Active; 'I' for Inactive)
REMARK    1  A    between atoms: C_1  and  O_2
REMARK    2  A    between atoms: O_2  and  C_3
REMARK    3  A    between atoms: C_7  and  C_8
REMARK    4  A    between atoms: C_8  and  O_9
REMARK    5  A    between atoms: O_9  and  C_10
REMARK    6  A    between atoms: C_15  and  C_16
REMARK    7  A    between atoms: C_19  and  C_20
REMARK    8  A    between atoms: C_20  and  O_21
REMARK                            x       y       z     vdW  Elec       q    Type
REMARK                         _______ _______ _______ _____ _____    ______ ____
ROOT
ATOM      1  C   UNL     1       2.403   4.602  19.701  0.00  0.00    +0.000 A 
ATOM      2  C   UNL     1       1.149   4.063  20.041  0.00  0.00    +0.000 A 
ATOM      3  C   UNL     1       0.791   2.767  19.667  0.00  0.00    +0.000 A 
ATOM      4  C   UNL     1       1.686   1.981  18.957  0.00  0.00    +0.000 A 
ATOM      5  C   UNL     1       2.933   2.498  18.609  0.00  0.00    +0.000 A 
ATOM      6  C   UNL     1       3.307   3.808  18.968  0.00  0.00    +0.000 A 
ENDROOT
BRANCH   6   7
ATOM      7  C   UNL     1       4.659   4.256  18.512  0.00  0.00    +0.000 C 
ATOM      8  N   UNL     1       5.744   3.936  19.145  0.00  0.00    +0.000 NA
ATOM      9  O   UNL     1       6.839   4.534  18.492  0.00  0.00    +0.000 OA
ATOM     10  C   UNL     1       6.383   5.173  17.291  0.00  0.00    +0.000 C 
ATOM     11  C   UNL     1       4.873   5.107  17.312  0.00  0.00    +0.000 C 
BRANCH  10  12
ATOM     12  C   UNL     1       7.014   4.457  16.096  0.00  0.00    +0.000 C 
BRANCH  12  13
ATOM     13  O   UNL     1       7.510   5.382  15.130  0.00  0.00    +0.000 OA
ATOM     14  H   UNL     1       7.271   6.270  15.465  0.00  0.00    +0.000 HD
ENDBRANCH  12  13
ENDBRANCH  10  12
ENDBRANCH   6   7
BRANCH   1  15
ATOM     15  O   UNL     1       2.797   5.851  20.114  0.00  0.00    +0.000 OA
BRANCH  15  16
ATOM     16  C   UNL     1       1.783   6.691  20.667  0.00  0.00    +0.000 C 
BRANCH  16  21
ATOM     17  C   UNL     1       0.778  10.218  19.627  0.00  0.00    +0.000 A 
ATOM     18  C   UNL     1       1.346  10.291  18.354  0.00  0.00    +0.000 A 
ATOM     19  C   UNL     1       2.086   9.225  17.840  0.00  0.00    +0.000 A 
ATOM     20  C   UNL     1       2.253   8.065  18.594  0.00  0.00    +0.000 A 
ATOM     21  C   UNL     1       1.679   7.966  19.866  0.00  0.00    +0.000 A 
ATOM     22  C   UNL     1       0.965   9.062  20.388  0.00  0.00    +0.000 A 
BRANCH  17  24
ATOM     23  C   UNL     1       0.412  12.560  19.404  0.00  0.00    +0.000 C 
ATOM     24  O   UNL     1       0.056  11.317  19.997  0.00  0.00    +0.000 OA
ENDBRANCH  17  24
ENDBRANCH  16  21
ENDBRANCH  15  16
ENDBRANCH   1  15
TORSDOF 7
ENDMDL
MODEL 5
REMARK VINA RESULT:      -7.5      1.062      1.109
REMARK  Name = 
REMARK  8 active torsions:
REMARK  status: ('A' for Active; 'I' for Inactive)
REMARK    1  A    between atoms: C_1  and  O_2
REMARK    2  A    between atoms: O_2  and  C_3
REMARK    3  A    between atoms: C_7  and  C_8
REMARK    4  A    between atoms: C_8  and  O_9
REMARK    5  A    between atoms: O_9  and  C_10
REMARK    6  A    between atoms: C_15  and  C_16
REMARK    7  A    between atoms: C_19  and  C_20
REMARK    8  A    between atoms: C_20  and  O_21
REMARK                            x       y       z     vdW  Elec       q    Type
REMARK                         _______ _______ _______ _____ _____    ______ ____
ROOT
ATOM      1  C   UNL     1       2.693   5.030  18.009  0.00  0.00    +0.000 A 
ATOM      2  C   UNL     1       1.558   4.275  18.357  0.00  0.00    +0.000 A 
ATOM      3  C   UNL     1       1.553   2.883  18.253  0.00  0.00    +0.000 A 
ATOM      4  C   UNL     1       2.688   2.220  17.811  0.00  0.00    +0.000 A 
ATOM      5  C   UNL     1       3.823   2.950  17.462  0.00  0.00    +0.000 A 
ATOM      6  C   UNL     1       3.841   4.357  17.549  0.00  0.00    +0.000 A 
ENDROOT
BRANCH   6   7
ATOM      7  C   UNL     1       5.106   5.027  17.117  0.00  0.00    +0.000 C 
ATOM      8  N   UNL     1       5.223   5.608  15.965  0.00  0.00    +0.000 NA
ATOM      9  O   UNL     1       6.533   6.110  15.843  0.00  0.00    +0.000 OA
ATOM     10  C   UNL     1       7.230   5.918  17.084  0.00  0.00    +0.000 C 
ATOM     11  C   UNL     1       6.330   5.077  17.961  0.00  0.00    +0.000 C 
BRANCH  10  12
ATOM     12  C   UNL     1       7.553   7.292  17.671  0.00  0.00    +0.000 C 
BRANCH  12  13
ATOM     13  O   UNL     1       8.367   7.186  18.839  0.00  0.00    +0.000 OA
ATOM     14  H   UNL     1       7.747   7.173  19.595  0.00  0.00    +0.000 HD
ENDBRANCH  12  13
ENDBRANCH  10  12
ENDBRANCH   6   7
BRANCH   1  15
ATOM     15  O   UNL     1       2.737   6.393  18.165  0.00  0.00    +0.000 OA
BRANCH  15  16
ATOM     16  C   UNL     1       2.892   6.880  19.499  0.00  0.00    +0.000 C 
BRANCH  16  21
ATOM     17  C   UNL     1       0.151   8.872  21.243  0.00  0.00    +0.000 A 
ATOM     18  C   UNL     1      -0.138   9.833  20.272  0.00  0.00    +0.000 A 
ATOM     19  C   UNL     1       0.572   9.869  19.071  0.00  0.00    +0.000 A 
ATOM     20  C   UNL     1       1.573   8.931  18.824  0.00  0.00    +0.000 A 
ATOM     21  C   UNL     1       1.867   7.951  19.778  0.00  0.00    +0.000 A 
ATOM     22  C   UNL     1       1.168   7.948  21.001  0.00  0.00    +0.000 A 
BRANCH  17  24
ATOM     23  C   UNL     1      -0.556  10.109  23.152  0.00  0.00    +0.000 C 
ATOM     24  O   UNL     1      -0.636   8.931  22.359  0.00  0.00    +0.000 OA
ENDBRANCH  17  24
ENDBRANCH  16  21
ENDBRANCH  15  16
ENDBRANCH   1  15
TORSDOF 7
ENDMDL
MODEL 6
REMARK VINA RESULT:      -7.5      1.069      1.630
REMARK  Name = 
REMARK  8 active torsions:
REMARK  status: ('A' for Active; 'I' for Inactive)
REMARK    1  A    between atoms: C_1  and  O_2
REMARK    2  A    between atoms: O_2  and  C_3
REMARK    3  A    between atoms: C_7  and  C_8
REMARK    4  A    between atoms: C_8  and  O_9
REMARK    5  A    between atoms: O_9  and  C_10
REMARK    6  A    between atoms: C_15  and  C_16
REMARK    7  A    between atoms: C_19  and  C_20
REMARK    8  A    between atoms: C_20  and  O_21
REMARK                            x       y       z     vdW  Elec       q    Type
REMARK                         _______ _______ _______ _____ _____    ______ ____
ROOT
ATOM      1  C   UNL     1       3.083   4.989  18.479  0.00  0.00    +0.000 A 
ATOM      2  C   UNL     1       1.786   4.446  18.525  0.00  0.00    +0.000 A 
ATOM      3  C   UNL     1       1.546   3.114  18.188  0.00  0.00    +0.000 A 
ATOM      4  C   UNL     1       2.600   2.296  17.811  0.00  0.00    +0.000 A 
ATOM      5  C   UNL     1       3.892   2.816  17.758  0.00  0.00    +0.000 A 
ATOM      6  C   UNL     1       4.152   4.162  18.083  0.00  0.00    +0.000 A 
ENDROOT
BRANCH   6   7
ATOM      7  C   UNL     1       5.574   4.607  17.960  0.00  0.00    +0.000 C 
ATOM      8  N   UNL     1       6.245   4.484  16.858  0.00  0.00    +0.000 NA
ATOM      9  O   UNL     1       7.552   4.960  17.070  0.00  0.00    +0.000 OA
ATOM     10  C   UNL     1       7.641   5.530  18.384  0.00  0.00    +0.000 C 
ATOM     11  C   UNL     1       6.337   5.216  19.082  0.00  0.00    +0.000 C 
BRANCH  10  12
ATOM     12  C   UNL     1       7.916   7.027  18.241  0.00  0.00    +0.000 C 
BRANCH  12  13
ATOM     13  O   UNL     1       7.673   7.482  16.910  0.00  0.00    +0.000 OA
ATOM     14  H   UNL     1       7.054   6.835  16.516  0.00  0.00    +0.000 HD
ENDBRANCH  12  13
ENDBRANCH  10  12
ENDBRANCH   6   7
BRANCH   1  15
ATOM     15  O   UNL     1       3.347   6.280  18.868  0.00  0.00    +0.000 OA
BRANCH  15  16
ATOM     16  C   UNL     1       2.826   7.318  18.038  0.00  0.00    +0.000 C 
BRANCH  16  21
ATOM     17  C   UNL     1       0.788  10.375  19.050  0.00  0.00    +0.000 A 
ATOM     18  C   UNL     1       0.527  10.088  20.391  0.00  0.00    +0.000 A 
ATOM     19  C   UNL     1       0.971   8.895  20.965  0.00  0.00    +0.000 A 
ATOM     20  C   UNL     1       1.695   7.981  20.201  0.00  0.00    +0.000 A 
ATOM     21  C   UNL     1       1.979   8.257  18.860  0.00  0.00    +0.000 A 
ATOM     22  C   UNL     1       1.495   9.448  18.283  0.00  0.00    +0.000 A 
BRANCH  17  24
ATOM     23  C   UNL     1      -0.889  12.060  19.198  0.00  0.00    +0.000 C 
ATOM     24  O   UNL     1       0.323  11.587  18.623  0.00  0.00    +0.000 OA
ENDBRANCH  17  24
ENDBRANCH  16  21
ENDBRANCH  15  16
ENDBRANCH   1  15
TORSDOF 7
ENDMDL
MODEL 7
REMARK VINA RESULT:      -7.4      2.323      3.989
REMARK  Name = 
REMARK  8 active torsions:
REMARK  status: ('A' for Active; 'I' for Inactive)
REMARK    1  A    between atoms: C_1  and  O_2
REMARK    2  A    between atoms: O_2  and  C_3
REMARK    3  A    between atoms: C_7  and  C_8
REMARK    4  A    between atoms: C_8  and  O_9
REMARK    5  A    between atoms: O_9  and  C_10
REMARK    6  A    between atoms: C_15  and  C_16
REMARK    7  A    between atoms: C_19  and  C_20
REMARK    8  A    between atoms: C_20  and  O_21
REMARK                            x       y       z     vdW  Elec       q    Type
REMARK                         _______ _______ _______ _____ _____    ______ ____
ROOT
ATOM      1  C   UNL     1       4.600   5.760  17.169  0.00  0.00    +0.000 A 
ATOM      2  C   UNL     1       5.174   6.329  16.018  0.00  0.00    +0.000 A 
ATOM      3  C   UNL     1       5.762   5.534  15.033  0.00  0.00    +0.000 A 
ATOM      4  C   UNL     1       5.775   4.155  15.174  0.00  0.00    +0.000 A 
ATOM      5  C   UNL     1       5.211   3.572  16.308  0.00  0.00    +0.000 A 
ATOM      6  C   UNL     1       4.624   4.359  17.319  0.00  0.00    +0.000 A 
ENDROOT
BRANCH   6   7
ATOM      7  C   UNL     1       4.080   3.619  18.498  0.00  0.00    +0.000 C 
ATOM      8  N   UNL     1       4.842   3.168  19.444  0.00  0.00    +0.000 NA
ATOM      9  O   UNL     1       4.042   2.494  20.386  0.00  0.00    +0.000 OA
ATOM     10  C   UNL     1       2.660   2.657  20.035  0.00  0.00    +0.000 C 
ATOM     11  C   UNL     1       2.633   3.332  18.683  0.00  0.00    +0.000 C 
BRANCH  10  12
ATOM     12  C   UNL     1       1.977   3.465  21.139  0.00  0.00    +0.000 C 
BRANCH  12  13
ATOM     13  O   UNL     1       1.630   2.644  22.254  0.00  0.00    +0.000 OA
ATOM     14  H   UNL     1       0.656   2.549  22.222  0.00  0.00    +0.000 HD
ENDBRANCH  12  13
ENDBRANCH  10  12
ENDBRANCH   6   7
BRANCH   1  15
ATOM     15  O   UNL     1       3.961   6.521  18.117  0.00  0.00    +0.000 OA
BRANCH  15  16
ATOM     16  C   UNL     1       3.180   7.616  17.639  0.00  0.00    +0.000 C 
BRANCH  16  21
ATOM     17  C   UNL     1       0.724   9.796  19.573  0.00  0.00    +0.000 A 
ATOM     18  C   UNL     1       0.607   9.073  20.762  0.00  0.00    +0.000 A 
ATOM     19  C   UNL     1       1.285   7.865  20.932  0.00  0.00    +0.000 A 
ATOM     20  C   UNL     1       2.100   7.373  19.914  0.00  0.00    +0.000 A 
ATOM     21  C   UNL     1       2.243   8.091  18.722  0.00  0.00    +0.000 A 
ATOM     22  C   UNL     1       1.525   9.291  18.549  0.00  0.00    +0.000 A 
BRANCH  17  24
ATOM     23  C   UNL     1      -0.745  11.297  20.695  0.00  0.00    +0.000 C 
ATOM     24  O   UNL     1       0.032  10.974  19.549  0.00  0.00    +0.000 OA
ENDBRANCH  17  24
ENDBRANCH  16  21
ENDBRANCH  15  16
ENDBRANCH   1  15
TORSDOF 7
ENDMDL
MODEL 8
REMARK VINA RESULT:      -7.3      1.709      2.312
REMARK  Name = 
REMARK  8 active torsions:
REMARK  status: ('A' for Active; 'I' for Inactive)
REMARK    1  A    between atoms: C_1  and  O_2
REMARK    2  A    between atoms: O_2  and  C_3
REMARK    3  A    between atoms: C_7  and  C_8
REMARK    4  A    between atoms: C_8  and  O_9
REMARK    5  A    between atoms: O_9  and  C_10
REMARK    6  A    between atoms: C_15  and  C_16
REMARK    7  A    between atoms: C_19  and  C_20
REMARK    8  A    between atoms: C_20  and  O_21
REMARK                            x       y       z     vdW  Elec       q    Type
REMARK                         _______ _______ _______ _____ _____    ______ ____
ROOT
ATOM      1  C   UNL     1       2.496   4.799  19.610  0.00  0.00    +0.000 A 
ATOM      2  C   UNL     1       1.241   4.303  20.008  0.00  0.00    +0.000 A 
ATOM      3  C   UNL     1       0.873   2.979  19.761  0.00  0.00    +0.000 A 
ATOM      4  C   UNL     1       1.758   2.124  19.123  0.00  0.00    +0.000 A 
ATOM      5  C   UNL     1       3.006   2.597  18.720  0.00  0.00    +0.000 A 
ATOM      6  C   UNL     1       3.390   3.933  18.951  0.00  0.00    +0.000 A 
ENDROOT
BRANCH   6   7
ATOM      7  C   UNL     1       4.741   4.327  18.446  0.00  0.00    +0.000 C 
ATOM      8  N   UNL     1       5.834   3.983  19.052  0.00  0.00    +0.000 NA
ATOM      9  O   UNL     1       6.928   4.531  18.356  0.00  0.00    +0.000 OA
ATOM     10  C   UNL     1       6.456   5.164  17.157  0.00  0.00    +0.000 C 
ATOM     11  C   UNL     1       4.946   5.149  17.224  0.00  0.00    +0.000 C 
BRANCH  10  12
ATOM     12  C   UNL     1       7.026   4.406  15.958  0.00  0.00    +0.000 C 
BRANCH  12  13
ATOM     13  O   UNL     1       7.659   5.287  15.031  0.00  0.00    +0.000 OA
ATOM     14  H   UNL     1       8.460   5.621  15.485  0.00  0.00    +0.000 HD
ENDBRANCH  12  13
ENDBRANCH  10  12
ENDBRANCH   6   7
BRANCH   1  15
ATOM     15  O   UNL     1       2.899   6.079  19.901  0.00  0.00    +0.000 OA
BRANCH  15  16
ATOM     16  C   UNL     1       2.462   7.105  19.010  0.00  0.00    +0.000 C 
BRANCH  16  21
ATOM     17  C   UNL     1       0.671  10.367  19.837  0.00  0.00    +0.000 A 
ATOM     18  C   UNL     1       0.385  10.177  21.190  0.00  0.00    +0.000 A 
ATOM     19  C   UNL     1       0.731   8.987  21.833  0.00  0.00    +0.000 A 
ATOM     20  C   UNL     1       1.381   7.977  21.126  0.00  0.00    +0.000 A 
ATOM     21  C   UNL     1       1.690   8.154  19.773  0.00  0.00    +0.000 A 
ATOM     22  C   UNL     1       1.304   9.345  19.128  0.00  0.00    +0.000 A 
BRANCH  17  24
ATOM     23  C   UNL     1       1.263  12.635  19.417  0.00  0.00    +0.000 C 
ATOM     24  O   UNL     1       0.305  11.586  19.340  0.00  0.00    +0.000 OA
ENDBRANCH  17  24
ENDBRANCH  16  21
ENDBRANCH  15  16
ENDBRANCH   1  15
TORSDOF 7
ENDMDL
MODEL 9
REMARK VINA RESULT:      -7.3      2.226      4.018
REMARK  Name = 
REMARK  8 active torsions:
REMARK  status: ('A' for Active; 'I' for Inactive)
REMARK    1  A    between atoms: C_1  and  O_2
REMARK    2  A    between atoms: O_2  and  C_3
REMARK    3  A    between atoms: C_7  and  C_8
REMARK    4  A    between atoms: C_8  and  O_9
REMARK    5  A    between atoms: O_9  and  C_10
REMARK    6  A    between atoms: C_15  and  C_16
REMARK    7  A    between atoms: C_19  and  C_20
REMARK    8  A    between atoms: C_20  and  O_21
REMARK                            x       y       z     vdW  Elec       q    Type
REMARK                         _______ _______ _______ _____ _____    ______ ____
ROOT
ATOM      1  C   UNL     1       4.154   6.246  17.380  0.00  0.00    +0.000 A 
ATOM      2  C   UNL     1       5.213   6.584  16.518  0.00  0.00    +0.000 A 
ATOM      3  C   UNL     1       5.812   5.629  15.697  0.00  0.00    +0.000 A 
ATOM      4  C   UNL     1       5.355   4.320  15.712  0.00  0.00    +0.000 A 
ATOM      5  C   UNL     1       4.307   3.965  16.561  0.00  0.00    +0.000 A 
ATOM      6  C   UNL     1       3.698   4.914  17.406  0.00  0.00    +0.000 A 
ENDROOT
BRANCH   6   7
ATOM      7  C   UNL     1       2.605   4.404  18.289  0.00  0.00    +0.000 C 
ATOM      8  N   UNL     1       1.574   3.772  17.821  0.00  0.00    +0.000 NA
ATOM      9  O   UNL     1       0.715   3.455  18.891  0.00  0.00    +0.000 OA
ATOM     10  C   UNL     1       1.344   3.825  20.127  0.00  0.00    +0.000 C 
ATOM     11  C   UNL     1       2.600   4.584  19.765  0.00  0.00    +0.000 C 
BRANCH  10  12
ATOM     12  C   UNL     1       1.604   2.553  20.934  0.00  0.00    +0.000 C 
BRANCH  12  13
ATOM     13  O   UNL     1       1.816   2.839  22.315  0.00  0.00    +0.000 OA
ATOM     14  H   UNL     1       1.223   2.236  22.807  0.00  0.00    +0.000 HD
ENDBRANCH  12  13
ENDBRANCH  10  12
ENDBRANCH   6   7
BRANCH   1  15
ATOM     15  O   UNL     1       3.511   7.186  18.149  0.00  0.00    +0.000 OA
BRANCH  15  16
ATOM     16  C   UNL     1       2.569   8.024  17.479  0.00  0.00    +0.000 C 
BRANCH  16  21
ATOM     17  C   UNL     1       0.915   8.942  20.788  0.00  0.00    +0.000 A 
ATOM     18  C   UNL     1      -0.003   9.906  20.367  0.00  0.00    +0.000 A 
ATOM     19  C   UNL     1      -0.068  10.293  19.027  0.00  0.00    +0.000 A 
ATOM     20  C   UNL     1       0.780   9.706  18.090  0.00  0.00    +0.000 A 
ATOM     21  C   UNL     1       1.696   8.727  18.489  0.00  0.00    +0.000 A 
ATOM     22  C   UNL     1       1.776   8.371  19.850  0.00  0.00    +0.000 A 
BRANCH  17  24
ATOM     23  C   UNL     1       0.045   9.465  22.942  0.00  0.00    +0.000 C 
ATOM     24  O   UNL     1       0.854   8.635  22.118  0.00  0.00    +0.000 OA
ENDBRANCH  17  24
ENDBRANCH  16  21
ENDBRANCH  15  16
ENDBRANCH   1  15
TORSDOF 7
ENDMDL
