MODEL 1
REMARK VINA RESULT:      -8.5      0.000      0.000
REMARK  Name = 
REMARK  4 active torsions:
REMARK  status: ('A' for Active; 'I' for Inactive)
REMARK    1  A    between atoms: N_3  and  C_4
REMARK    2  A    between atoms: N_10  and  C_11
REMARK    3  A    between atoms: C_14  and  O_15
REMARK    4  A    between atoms: O_15  and  C_16
REMARK                            x       y       z     vdW  Elec       q    Type
REMARK                         _______ _______ _______ _____ _____    ______ ____
ROOT
ATOM      1  C   UNL     1       6.478   6.919  17.135  0.00  0.00    +0.000 A 
ATOM      2  C   UNL     1       7.213   5.735  17.205  0.00  0.00    +0.000 A 
ATOM      3  C   UNL     1       6.568   4.501  17.172  0.00  0.00    +0.000 A 
ATOM      4  C   UNL     1       5.188   4.488  17.087  0.00  0.00    +0.000 A 
ATOM      5  N   UNL     1       4.436   5.609  16.990  0.00  0.00    +0.000 NA
ATOM      6  C   UNL     1       5.095   6.789  17.026  0.00  0.00    +0.000 A 
ENDROOT
BRANCH   1  10
ATOM      7  O   UNL     1       8.670   7.879  18.762  0.00  0.00    +0.000 OA
ATOM      8  C   UNL     1       8.078   8.624  17.991  0.00  0.00    +0.000 C 
ATOM      9  N   UNL     1       8.351   9.974  17.848  0.00  0.00    +0.000 N 
ATOM     10  N   UNL     1       7.038   8.218  17.176  0.00  0.00    +0.000 N 
ATOM     11  H   UNL     1       7.651  10.541  17.394  0.00  0.00    +0.000 HD
ATOM     12  H   UNL     1       6.694   8.886  16.502  0.00  0.00    +0.000 HD
BRANCH   9  13
ATOM     13  C   UNL     1       9.373  10.670  18.536  0.00  0.00    +0.000 A 
ATOM     14  C   UNL     1      10.504  11.193  17.900  0.00  0.00    +0.000 A 
ATOM     15  C   UNL     1      11.517  11.812  18.633  0.00  0.00    +0.000 A 
ATOM     16  C   UNL     1      11.401  11.931  20.013  0.00  0.00    +0.000 A 
ATOM     17  C   UNL     1      10.262  11.451  20.655  0.00  0.00    +0.000 A 
ATOM     18  C   UNL     1       9.246  10.830  19.920  0.00  0.00    +0.000 A 
ENDBRANCH   9  13
ENDBRANCH   1  10
BRANCH   4  19
ATOM     19  O   UNL     1       4.574   3.247  17.096  0.00  0.00    +0.000 OA
BRANCH  19  20
ATOM     20  C   UNL     1       3.619   3.029  18.054  0.00  0.00    +0.000 A 
ATOM     21  C   UNL     1       2.254   2.917  17.789  0.00  0.00    +0.000 A 
ATOM     22  C   UNL     1       1.368   2.705  18.838  0.00  0.00    +0.000 A 
ATOM     23  C   UNL     1       1.878   2.656  20.127  0.00  0.00    +0.000 A 
ATOM     24  N   UNL     1       3.187   2.803  20.426  0.00  0.00    +0.000 NA
ATOM     25  C   UNL     1       4.028   2.987  19.379  0.00  0.00    +0.000 A 
ENDBRANCH  19  20
ENDBRANCH   4  19
TORSDOF 4
ENDMDL
MODEL 2
REMARK VINA RESULT:      -8.5      0.595      1.004
REMARK  Name = 
REMARK  4 active torsions:
REMARK  status: ('A' for Active; 'I' for Inactive)
REMARK    1  A    between atoms: N_3  and  C_4
REMARK    2  A    between atoms: N_10  and  C_11
REMARK    3  A    between atoms: C_14  and  O_15
REMARK    4  A    between atoms: O_15  and  C_16
REMARK                            x       y       z     vdW  Elec       q    Type
REMARK                         _______ _______ _______ _____ _____    ______ ____
ROOT
ATOM      1  C   UNL     1       6.452   6.913  17.116  0.00  0.00    +0.000 A 
ATOM      2  C   UNL     1       7.183   5.725  17.084  0.00  0.00    +0.000 A 
ATOM      3  C   UNL     1       6.528   4.495  17.066  0.00  0.00    +0.000 A 
ATOM      4  C   UNL     1       5.146   4.491  17.101  0.00  0.00    +0.000 A 
ATOM      5  N   UNL     1       4.396   5.617  17.106  0.00  0.00    +0.000 NA
ATOM      6  C   UNL     1       5.064   6.793  17.124  0.00  0.00    +0.000 A 
ENDROOT
BRANCH   1  10
ATOM      7  O   UNL     1       8.629   7.872  18.765  0.00  0.00    +0.000 OA
ATOM      8  C   UNL     1       8.055   8.613  17.977  0.00  0.00    +0.000 C 
ATOM      9  N   UNL     1       8.342   9.960  17.823  0.00  0.00    +0.000 N 
ATOM     10  N   UNL     1       7.023   8.207  17.152  0.00  0.00    +0.000 N 
ATOM     11  H   UNL     1       7.653  10.528  17.353  0.00  0.00    +0.000 HD
ATOM     12  H   UNL     1       6.695   8.871  16.465  0.00  0.00    +0.000 HD
BRANCH   9  13
ATOM     13  C   UNL     1       9.359  10.655  18.519  0.00  0.00    +0.000 A 
ATOM     14  C   UNL     1      10.512  11.146  17.898  0.00  0.00    +0.000 A 
ATOM     15  C   UNL     1      11.519  11.764  18.639  0.00  0.00    +0.000 A 
ATOM     16  C   UNL     1      11.375  11.916  20.013  0.00  0.00    +0.000 A 
ATOM     17  C   UNL     1      10.214  11.467  20.640  0.00  0.00    +0.000 A 
ATOM     18  C   UNL     1       9.205  10.846  19.896  0.00  0.00    +0.000 A 
ENDBRANCH   9  13
ENDBRANCH   1  10
BRANCH   4  19
ATOM     19  O   UNL     1       4.526   3.253  17.122  0.00  0.00    +0.000 OA
BRANCH  19  20
ATOM     20  C   UNL     1       3.665   3.003  18.159  0.00  0.00    +0.000 A 
ATOM     21  C   UNL     1       4.030   3.034  19.505  0.00  0.00    +0.000 A 
ATOM     22  C   UNL     1       3.079   2.755  20.478  0.00  0.00    +0.000 A 
ATOM     23  C   UNL     1       1.799   2.410  20.065  0.00  0.00    +0.000 A 
ATOM     24  N   UNL     1       1.422   2.329  18.771  0.00  0.00    +0.000 NA
ATOM     25  C   UNL     1       2.367   2.627  17.847  0.00  0.00    +0.000 A 
ENDBRANCH  19  20
ENDBRANCH   4  19
TORSDOF 4
ENDMDL
MODEL 3
REMARK VINA RESULT:      -8.4      0.667      1.436
REMARK  Name = 
REMARK  4 active torsions:
REMARK  status: ('A' for Active; 'I' for Inactive)
REMARK    1  A    between atoms: N_3  and  C_4
REMARK    2  A    between atoms: N_10  and  C_11
REMARK    3  A    between atoms: C_14  and  O_15
REMARK    4  A    between atoms: O_15  and  C_16
REMARK                            x       y       z     vdW  Elec       q    Type
REMARK                         _______ _______ _______ _____ _____    ______ ____
ROOT
ATOM      1  C   UNL     1       6.570   6.960  17.160  0.00  0.00    +0.000 A 
ATOM      2  C   UNL     1       7.285   5.776  17.343  0.00  0.00    +0.000 A 
ATOM      3  C   UNL     1       6.639   4.544  17.275  0.00  0.00    +0.000 A 
ATOM      4  C   UNL     1       5.275   4.535  17.043  0.00  0.00    +0.000 A 
ATOM      5  N   UNL     1       4.547   5.656  16.834  0.00  0.00    +0.000 NA
ATOM      6  C   UNL     1       5.207   6.834  16.907  0.00  0.00    +0.000 A 
ENDROOT
BRANCH   1  10
ATOM      7  O   UNL     1       8.720   7.904  18.854  0.00  0.00    +0.000 OA
ATOM      8  C   UNL     1       8.151   8.655  18.071  0.00  0.00    +0.000 C 
ATOM      9  N   UNL     1       8.431  10.006  17.944  0.00  0.00    +0.000 N 
ATOM     10  N   UNL     1       7.132   8.257  17.225  0.00  0.00    +0.000 N 
ATOM     11  H   UNL     1       7.746  10.578  17.474  0.00  0.00    +0.000 HD
ATOM     12  H   UNL     1       6.809   8.930  16.546  0.00  0.00    +0.000 HD
BRANCH   9  13
ATOM     13  C   UNL     1       9.436  10.695  18.664  0.00  0.00    +0.000 A 
ATOM     14  C   UNL     1       9.381  10.898  20.047  0.00  0.00    +0.000 A 
ATOM     15  C   UNL     1      10.362  11.644  20.702  0.00  0.00    +0.000 A 
ATOM     16  C   UNL     1      11.422  12.180  19.980  0.00  0.00    +0.000 A 
ATOM     17  C   UNL     1      11.511  11.952  18.609  0.00  0.00    +0.000 A 
ATOM     18  C   UNL     1      10.527  11.205  17.952  0.00  0.00    +0.000 A 
ENDBRANCH   9  13
ENDBRANCH   1  10
BRANCH   4  19
ATOM     19  O   UNL     1       4.655   3.297  17.020  0.00  0.00    +0.000 OA
BRANCH  19  20
ATOM     20  C   UNL     1       3.654   3.084  17.932  0.00  0.00    +0.000 A 
ATOM     21  C   UNL     1       3.860   2.953  19.305  0.00  0.00    +0.000 A 
ATOM     22  C   UNL     1       2.774   2.728  20.142  0.00  0.00    +0.000 A 
ATOM     23  C   UNL     1       1.518   2.599  19.566  0.00  0.00    +0.000 A 
ATOM     24  N   UNL     1       1.286   2.678  18.238  0.00  0.00    +0.000 NA
ATOM     25  C   UNL     1       2.363   2.918  17.451  0.00  0.00    +0.000 A 
ENDBRANCH  19  20
ENDBRANCH   4  19
TORSDOF 4
ENDMDL
MODEL 4
REMARK VINA RESULT:      -8.4      1.524      1.702
REMARK  Name = 
REMARK  4 active torsions:
REMARK  status: ('A' for Active; 'I' for Inactive)
REMARK    1  A    between atoms: N_3  and  C_4
REMARK    2  A    between atoms: N_10  and  C_11
REMARK    3  A    between atoms: C_14  and  O_15
REMARK    4  A    between atoms: O_15  and  C_16
REMARK                            x       y       z     vdW  Elec       q    Type
REMARK                         _______ _______ _______ _____ _____    ______ ____
ROOT
ATOM      1  C   UNL     1       7.532   6.494  18.304  0.00  0.00    +0.000 A 
ATOM      2  C   UNL     1       7.142   6.437  16.965  0.00  0.00    +0.000 A 
ATOM      3  C   UNL     1       6.293   5.426  16.520  0.00  0.00    +0.000 A 
ATOM      4  C   UNL     1       5.870   4.480  17.436  0.00  0.00    +0.000 A 
ATOM      5  N   UNL     1       6.200   4.510  18.748  0.00  0.00    +0.000 NA
ATOM      6  C   UNL     1       7.026   5.505  19.144  0.00  0.00    +0.000 A 
ENDROOT
BRANCH   1  10
ATOM      7  O   UNL     1       7.640   9.327  17.721  0.00  0.00    +0.000 OA
ATOM      8  C   UNL     1       8.416   8.812  18.516  0.00  0.00    +0.000 C 
ATOM      9  N   UNL     1       9.429   9.494  19.169  0.00  0.00    +0.000 N 
ATOM     10  N   UNL     1       8.400   7.470  18.847  0.00  0.00    +0.000 N 
ATOM     11  H   UNL     1      10.162   8.943  19.589  0.00  0.00    +0.000 HD
ATOM     12  H   UNL     1       9.012   7.173  19.593  0.00  0.00    +0.000 HD
BRANCH   9  13
ATOM     13  C   UNL     1       9.682  10.882  19.045  0.00  0.00    +0.000 A 
ATOM     14  C   UNL     1      10.238  11.457  17.899  0.00  0.00    +0.000 A 
ATOM     15  C   UNL     1      10.531  12.821  17.850  0.00  0.00    +0.000 A 
ATOM     16  C   UNL     1      10.252  13.629  18.946  0.00  0.00    +0.000 A 
ATOM     17  C   UNL     1       9.661  13.076  20.080  0.00  0.00    +0.000 A 
ATOM     18  C   UNL     1       9.368  11.710  20.128  0.00  0.00    +0.000 A 
ENDBRANCH   9  13
ENDBRANCH   1  10
BRANCH   4  19
ATOM     19  O   UNL     1       5.059   3.466  16.955  0.00  0.00    +0.000 OA
BRANCH  19  20
ATOM     20  C   UNL     1       3.780   3.403  17.443  0.00  0.00    +0.000 A 
ATOM     21  C   UNL     1       2.900   4.485  17.474  0.00  0.00    +0.000 A 
ATOM     22  C   UNL     1       1.625   4.316  18.001  0.00  0.00    +0.000 A 
ATOM     23  C   UNL     1       1.290   3.073  18.519  0.00  0.00    +0.000 A 
ATOM     24  N   UNL     1       2.130   2.016  18.545  0.00  0.00    +0.000 NA
ATOM     25  C   UNL     1       3.358   2.207  18.006  0.00  0.00    +0.000 A 
ENDBRANCH  19  20
ENDBRANCH   4  19
TORSDOF 4
ENDMDL
MODEL 5
REMARK VINA RESULT:      -8.3      0.854      1.426
REMARK  Name = 
REMARK  4 active torsions:
REMARK  status: ('A' for Active; 'I' for Inactive)
REMARK    1  A    between atoms: N_3  and  C_4
REMARK    2  A    between atoms: N_10  and  C_11
REMARK    3  A    between atoms: C_14  and  O_15
REMARK    4  A    between atoms: O_15  and  C_16
REMARK                            x       y       z     vdW  Elec       q    Type
REMARK                         _______ _______ _______ _____ _____    ______ ____
ROOT
ATOM      1  C   UNL     1       6.386   7.068  17.144  0.00  0.00    +0.000 A 
ATOM      2  C   UNL     1       5.003   6.889  17.204  0.00  0.00    +0.000 A 
ATOM      3  C   UNL     1       4.456   5.608  17.198  0.00  0.00    +0.000 A 
ATOM      4  C   UNL     1       5.320   4.531  17.113  0.00  0.00    +0.000 A 
ATOM      5  N   UNL     1       6.667   4.655  17.080  0.00  0.00    +0.000 NA
ATOM      6  C   UNL     1       7.163   5.913  17.086  0.00  0.00    +0.000 A 
ENDROOT
BRANCH   1  10
ATOM      7  O   UNL     1       8.566   7.984  18.813  0.00  0.00    +0.000 OA
ATOM      8  C   UNL     1       8.064   8.713  17.967  0.00  0.00    +0.000 C 
ATOM      9  N   UNL     1       8.439  10.029  17.751  0.00  0.00    +0.000 N 
ATOM     10  N   UNL     1       7.035   8.325  17.130  0.00  0.00    +0.000 N 
ATOM     11  H   UNL     1       7.802  10.611  17.228  0.00  0.00    +0.000 HD
ATOM     12  H   UNL     1       6.770   8.968  16.398  0.00  0.00    +0.000 HD
BRANCH   9  13
ATOM     13  C   UNL     1       9.476  10.699  18.443  0.00  0.00    +0.000 A 
ATOM     14  C   UNL     1      10.638  11.161  17.817  0.00  0.00    +0.000 A 
ATOM     15  C   UNL     1      11.663  11.754  18.555  0.00  0.00    +0.000 A 
ATOM     16  C   UNL     1      11.527  11.910  19.929  0.00  0.00    +0.000 A 
ATOM     17  C   UNL     1      10.358  11.491  20.560  0.00  0.00    +0.000 A 
ATOM     18  C   UNL     1       9.331  10.895  19.821  0.00  0.00    +0.000 A 
ENDBRANCH   9  13
ENDBRANCH   1  10
BRANCH   4  19
ATOM     19  O   UNL     1       4.744   3.272  17.069  0.00  0.00    +0.000 OA
BRANCH  19  20
ATOM     20  C   UNL     1       3.840   2.964  18.053  0.00  0.00    +0.000 A 
ATOM     21  C   UNL     1       4.135   2.967  19.416  0.00  0.00    +0.000 A 
ATOM     22  C   UNL     1       3.145   2.629  20.331  0.00  0.00    +0.000 A 
ATOM     23  C   UNL     1       1.901   2.257  19.843  0.00  0.00    +0.000 A 
ATOM     24  N   UNL     1       1.592   2.202  18.530  0.00  0.00    +0.000 NA
ATOM     25  C   UNL     1       2.572   2.557  17.664  0.00  0.00    +0.000 A 
ENDBRANCH  19  20
ENDBRANCH   4  19
TORSDOF 4
ENDMDL
MODEL 6
REMARK VINA RESULT:      -8.2      0.558      1.153
REMARK  Name = 
REMARK  4 active torsions:
REMARK  status: ('A' for Active; 'I' for Inactive)
REMARK    1  A    between atoms: N_3  and  C_4
REMARK    2  A    between atoms: N_10  and  C_11
REMARK    3  A    between atoms: C_14  and  O_15
REMARK    4  A    between atoms: O_15  and  C_16
REMARK                            x       y       z     vdW  Elec       q    Type
REMARK                         _______ _______ _______ _____ _____    ______ ____
ROOT
ATOM      1  C   UNL     1       6.434   6.843  17.091  0.00  0.00    +0.000 A 
ATOM      2  C   UNL     1       6.936   5.753  16.379  0.00  0.00    +0.000 A 
ATOM      3  C   UNL     1       6.289   4.520  16.427  0.00  0.00    +0.000 A 
ATOM      4  C   UNL     1       5.156   4.409  17.212  0.00  0.00    +0.000 A 
ATOM      5  N   UNL     1       4.618   5.443  17.898  0.00  0.00    +0.000 NA
ATOM      6  C   UNL     1       5.272   6.625  17.829  0.00  0.00    +0.000 A 
ENDROOT
BRANCH   1  10
ATOM      7  O   UNL     1       8.568   7.802  18.795  0.00  0.00    +0.000 OA
ATOM      8  C   UNL     1       8.035   8.535  17.971  0.00  0.00    +0.000 C 
ATOM      9  N   UNL     1       8.350   9.872  17.798  0.00  0.00    +0.000 N 
ATOM     10  N   UNL     1       7.025   8.128  17.118  0.00  0.00    +0.000 N 
ATOM     11  H   UNL     1       7.689  10.441  17.291  0.00  0.00    +0.000 HD
ATOM     12  H   UNL     1       6.733   8.781  16.407  0.00  0.00    +0.000 HD
BRANCH   9  13
ATOM     13  C   UNL     1       9.356  10.566  18.513  0.00  0.00    +0.000 A 
ATOM     14  C   UNL     1       9.291  10.798  19.891  0.00  0.00    +0.000 A 
ATOM     15  C   UNL     1      10.274  11.547  20.539  0.00  0.00    +0.000 A 
ATOM     16  C   UNL     1      11.346  12.057  19.817  0.00  0.00    +0.000 A 
ATOM     17  C   UNL     1      11.445  11.799  18.451  0.00  0.00    +0.000 A 
ATOM     18  C   UNL     1      10.459  11.049  17.801  0.00  0.00    +0.000 A 
ENDBRANCH   9  13
ENDBRANCH   1  10
BRANCH   4  19
ATOM     19  O   UNL     1       4.558   3.161  17.270  0.00  0.00    +0.000 OA
BRANCH  19  20
ATOM     20  C   UNL     1       3.384   3.062  17.971  0.00  0.00    +0.000 A 
ATOM     21  C   UNL     1       2.171   3.603  17.546  0.00  0.00    +0.000 A 
ATOM     22  C   UNL     1       1.039   3.454  18.339  0.00  0.00    +0.000 A 
ATOM     23  C   UNL     1       1.174   2.801  19.556  0.00  0.00    +0.000 A 
ATOM     24  N   UNL     1       2.340   2.303  20.019  0.00  0.00    +0.000 NA
ATOM     25  C   UNL     1       3.420   2.447  19.213  0.00  0.00    +0.000 A 
ENDBRANCH  19  20
ENDBRANCH   4  19
TORSDOF 4
ENDMDL
MODEL 7
REMARK VINA RESULT:      -8.1      1.558      1.763
REMARK  Name = 
REMARK  4 active torsions:
REMARK  status: ('A' for Active; 'I' for Inactive)
REMARK    1  A    between atoms: N_3  and  C_4
REMARK    2  A    between atoms: N_10  and  C_11
REMARK    3  A    between atoms: C_14  and  O_15
REMARK    4  A    between atoms: O_15  and  C_16
REMARK                            x       y       z     vdW  Elec       q    Type
REMARK                         _______ _______ _______ _____ _____    ______ ____
ROOT
ATOM      1  C   UNL     1       7.533   6.482  18.276  0.00  0.00    +0.000 A 
ATOM      2  C   UNL     1       7.161   6.414  16.933  0.00  0.00    +0.000 A 
ATOM      3  C   UNL     1       6.313   5.403  16.485  0.00  0.00    +0.000 A 
ATOM      4  C   UNL     1       5.872   4.468  17.404  0.00  0.00    +0.000 A 
ATOM      5  N   UNL     1       6.184   4.509  18.720  0.00  0.00    +0.000 NA
ATOM      6  C   UNL     1       7.010   5.503  19.119  0.00  0.00    +0.000 A 
ENDROOT
BRANCH   1  10
ATOM      7  O   UNL     1       7.635   9.317  17.701  0.00  0.00    +0.000 OA
ATOM      8  C   UNL     1       8.412   8.801  18.495  0.00  0.00    +0.000 C 
ATOM      9  N   UNL     1       9.424   9.484  19.151  0.00  0.00    +0.000 N 
ATOM     10  N   UNL     1       8.399   7.458  18.823  0.00  0.00    +0.000 N 
ATOM     11  H   UNL     1      10.157   8.932  19.569  0.00  0.00    +0.000 HD
ATOM     12  H   UNL     1       9.012   7.160  19.568  0.00  0.00    +0.000 HD
BRANCH   9  13
ATOM     13  C   UNL     1       9.673  10.872  19.030  0.00  0.00    +0.000 A 
ATOM     14  C   UNL     1      10.185  11.458  17.869  0.00  0.00    +0.000 A 
ATOM     15  C   UNL     1      10.478  12.821  17.823  0.00  0.00    +0.000 A 
ATOM     16  C   UNL     1      10.243  13.619  18.936  0.00  0.00    +0.000 A 
ATOM     17  C   UNL     1       9.696  13.056  20.087  0.00  0.00    +0.000 A 
ATOM     18  C   UNL     1       9.403  11.689  20.133  0.00  0.00    +0.000 A 
ENDBRANCH   9  13
ENDBRANCH   1  10
BRANCH   4  19
ATOM     19  O   UNL     1       5.063   3.454  16.921  0.00  0.00    +0.000 OA
BRANCH  19  20
ATOM     20  C   UNL     1       3.827   3.312  17.497  0.00  0.00    +0.000 A 
ATOM     21  C   UNL     1       3.339   2.115  18.020  0.00  0.00    +0.000 A 
ATOM     22  C   UNL     1       2.065   2.079  18.575  0.00  0.00    +0.000 A 
ATOM     23  C   UNL     1       1.306   3.240  18.548  0.00  0.00    +0.000 A 
ATOM     24  N   UNL     1       1.729   4.405  18.014  0.00  0.00    +0.000 NA
ATOM     25  C   UNL     1       2.983   4.413  17.499  0.00  0.00    +0.000 A 
ENDBRANCH  19  20
ENDBRANCH   4  19
TORSDOF 4
ENDMDL
MODEL 8
REMARK VINA RESULT:      -8.1      1.612      2.069
REMARK  Name = 
REMARK  4 active torsions:
REMARK  status: ('A' for Active; 'I' for Inactive)
REMARK    1  A    between atoms: N_3  and  C_4
REMARK    2  A    between atoms: N_10  and  C_11
REMARK    3  A    between atoms: C_14  and  O_15
REMARK    4  A    between atoms: O_15  and  C_16
REMARK                            x       y       z     vdW  Elec       q    Type
REMARK                         _______ _______ _______ _____ _____    ______ ____
ROOT
ATOM      1  C   UNL     1       7.552   6.596  18.329  0.00  0.00    +0.000 A 
ATOM      2  C   UNL     1       7.105   6.555  17.008  0.00  0.00    +0.000 A 
ATOM      3  C   UNL     1       6.256   5.535  16.582  0.00  0.00    +0.000 A 
ATOM      4  C   UNL     1       5.893   4.564  17.498  0.00  0.00    +0.000 A 
ATOM      5  N   UNL     1       6.280   4.578  18.794  0.00  0.00    +0.000 NA
ATOM      6  C   UNL     1       7.104   5.582  19.172  0.00  0.00    +0.000 A 
ENDROOT
BRANCH   1  10
ATOM      7  O   UNL     1       7.662   9.419  17.700  0.00  0.00    +0.000 OA
ATOM      8  C   UNL     1       8.442   8.915  18.500  0.00  0.00    +0.000 C 
ATOM      9  N   UNL     1       9.459   9.606  19.137  0.00  0.00    +0.000 N 
ATOM     10  N   UNL     1       8.425   7.579  18.853  0.00  0.00    +0.000 N 
ATOM     11  H   UNL     1      10.193   9.060  19.561  0.00  0.00    +0.000 HD
ATOM     12  H   UNL     1       9.041   7.293  19.599  0.00  0.00    +0.000 HD
BRANCH   9  13
ATOM     13  C   UNL     1       9.713  10.991  18.989  0.00  0.00    +0.000 A 
ATOM     14  C   UNL     1       9.260  11.953  19.897  0.00  0.00    +0.000 A 
ATOM     15  C   UNL     1       9.477  13.312  19.670  0.00  0.00    +0.000 A 
ATOM     16  C   UNL     1      10.169  13.724  18.538  0.00  0.00    +0.000 A 
ATOM     17  C   UNL     1      10.661  12.775  17.645  0.00  0.00    +0.000 A 
ATOM     18  C   UNL     1      10.443  11.412  17.872  0.00  0.00    +0.000 A 
ENDBRANCH   9  13
ENDBRANCH   1  10
BRANCH   4  19
ATOM     19  O   UNL     1       5.081   3.543  17.034  0.00  0.00    +0.000 OA
BRANCH  19  20
ATOM     20  C   UNL     1       3.859   3.393  17.636  0.00  0.00    +0.000 A 
ATOM     21  C   UNL     1       3.466   2.254  18.338  0.00  0.00    +0.000 A 
ATOM     22  C   UNL     1       2.197   2.201  18.903  0.00  0.00    +0.000 A 
ATOM     23  C   UNL     1       1.348   3.282  18.709  0.00  0.00    +0.000 A 
ATOM     24  N   UNL     1       1.679   4.383  18.001  0.00  0.00    +0.000 NA
ATOM     25  C   UNL     1       2.930   4.412  17.480  0.00  0.00    +0.000 A 
ENDBRANCH  19  20
ENDBRANCH   4  19
TORSDOF 4
ENDMDL
MODEL 9
REMARK VINA RESULT:      -7.9      0.716      1.022
REMARK  Name = 
REMARK  4 active torsions:
REMARK  status: ('A' for Active; 'I' for Inactive)
REMARK    1  A    between atoms: N_3  and  C_4
REMARK    2  A    between atoms: N_10  and  C_11
REMARK    3  A    between atoms: C_14  and  O_15
REMARK    4  A    between atoms: O_15  and  C_16
REMARK                            x       y       z     vdW  Elec       q    Type
REMARK                         _______ _______ _______ _____ _____    ______ ____
ROOT
ATOM      1  C   UNL     1       6.488   6.975  17.373  0.00  0.00    +0.000 A 
ATOM      2  C   UNL     1       5.297   6.627  16.733  0.00  0.00    +0.000 A 
ATOM      3  C   UNL     1       4.790   5.334  16.840  0.00  0.00    +0.000 A 
ATOM      4  C   UNL     1       5.509   4.411  17.577  0.00  0.00    +0.000 A 
ATOM      5  N   UNL     1       6.653   4.709  18.236  0.00  0.00    +0.000 NA
ATOM      6  C   UNL     1       7.116   5.974  18.109  0.00  0.00    +0.000 A 
ENDROOT
BRANCH   1  10
ATOM      7  O   UNL     1       8.688   8.001  18.949  0.00  0.00    +0.000 OA
ATOM      8  C   UNL     1       8.132   8.695  18.107  0.00  0.00    +0.000 C 
ATOM      9  N   UNL     1       8.452  10.019  17.853  0.00  0.00    +0.000 N 
ATOM     10  N   UNL     1       7.090   8.254  17.312  0.00  0.00    +0.000 N 
ATOM     11  H   UNL     1       7.777  10.567  17.341  0.00  0.00    +0.000 HD
ATOM     12  H   UNL     1       6.779   8.872  16.578  0.00  0.00    +0.000 HD
BRANCH   9  13
ATOM     13  C   UNL     1       9.486  10.739  18.497  0.00  0.00    +0.000 A 
ATOM     14  C   UNL     1      10.594  11.256  17.818  0.00  0.00    +0.000 A 
ATOM     15  C   UNL     1      11.622  11.899  18.508  0.00  0.00    +0.000 A 
ATOM     16  C   UNL     1      11.543  12.050  19.887  0.00  0.00    +0.000 A 
ATOM     17  C   UNL     1      10.427  11.575  20.572  0.00  0.00    +0.000 A 
ATOM     18  C   UNL     1       9.396  10.929  19.880  0.00  0.00    +0.000 A 
ENDBRANCH   9  13
ENDBRANCH   1  10
BRANCH   4  19
ATOM     19  O   UNL     1       5.000   3.125  17.632  0.00  0.00    +0.000 OA
BRANCH  19  20
ATOM     20  C   UNL     1       3.844   2.940  18.345  0.00  0.00    +0.000 A 
ATOM     21  C   UNL     1       2.616   2.609  17.773  0.00  0.00    +0.000 A 
ATOM     22  C   UNL     1       1.500   2.454  18.587  0.00  0.00    +0.000 A 
ATOM     23  C   UNL     1       1.647   2.679  19.949  0.00  0.00    +0.000 A 
ATOM     24  N   UNL     1       2.810   3.041  20.532  0.00  0.00    +0.000 NA
ATOM     25  C   UNL     1       3.883   3.164  19.713  0.00  0.00    +0.000 A 
ENDBRANCH  19  20
ENDBRANCH   4  19
TORSDOF 4
ENDMDL
