MODEL 1
REMARK VINA RESULT:      -7.6      0.000      0.000
REMARK  Name = 
REMARK  11 active torsions:
REMARK  status: ('A' for Active; 'I' for Inactive)
REMARK    1  A    between atoms: C_1  and  O_2
REMARK    2  A    between atoms: O_2  and  C_3
REMARK    3  A    between atoms: C_8  and  C_9
REMARK    4  A    between atoms: C_12  and  N_13
REMARK    5  A    between atoms: C_17  and  C_18
REMARK    6  A    between atoms: C_20  and  O_21
REMARK    7  A    between atoms: O_21  and  C_22
REMARK    8  A    between atoms: C_23  and  O_24
REMARK    9  A    between atoms: O_24  and  C_25
REMARK   10  A    between atoms: C_26  and  O_27
REMARK   11  A    between atoms: O_27  and  C_28
REMARK                            x       y       z     vdW  Elec       q    Type
REMARK                         _______ _______ _______ _____ _____    ______ ____
ROOT
ATOM      1  C   UNL     1       1.700   8.319  19.569  0.00  0.00    +0.000 A 
ATOM      2  C   UNL     1       1.966   8.995  18.365  0.00  0.00    +0.000 A 
ATOM      3  C   UNL     1       1.595  10.331  18.185  0.00  0.00    +0.000 A 
ATOM      4  C   UNL     1       0.976  11.020  19.231  0.00  0.00    +0.000 A 
ATOM      5  C   UNL     1       0.655  10.345  20.415  0.00  0.00    +0.000 A 
ATOM      6  C   UNL     1       1.023   9.009  20.584  0.00  0.00    +0.000 A 
ENDROOT
BRANCH   1  12
ATOM      7  C   UNL     1       3.734   2.485  20.128  0.00  0.00    +0.000 A 
ATOM      8  C   UNL     1       2.849   2.606  21.197  0.00  0.00    +0.000 A 
ATOM      9  C   UNL     1       2.183   3.812  21.445  0.00  0.00    +0.000 A 
ATOM     10  C   UNL     1       2.401   4.917  20.599  0.00  0.00    +0.000 A 
ATOM     11  N   UNL     1       1.806   6.158  20.722  0.00  0.00    +0.000 NA
ATOM     12  C   UNL     1       2.195   6.948  19.743  0.00  0.00    +0.000 A 
ATOM     13  S   UNL     1       3.348   6.265  18.666  0.00  0.00    +0.000 S 
ATOM     14  C   UNL     1       3.282   4.779  19.528  0.00  0.00    +0.000 A 
ATOM     15  C   UNL     1       3.958   3.576  19.276  0.00  0.00    +0.000 A 
BRANCH   7  17
ATOM     16  C   UNL     1       4.238   0.852  18.478  0.00  0.00    +0.000 C 
ATOM     17  O   UNL     1       4.432   1.358  19.793  0.00  0.00    +0.000 OA
ENDBRANCH   7  17
ENDBRANCH   1  12
BRANCH   4  18
ATOM     18  N   UNL     1       0.736  12.412  19.110  0.00  0.00    +0.000 N 
ATOM     19  C   UNL     1       1.668  13.405  19.284  0.00  0.00    +0.000 A 
ATOM     20  N   UNL     1       1.156  14.571  18.973  0.00  0.00    +0.000 NA
ATOM     21  N   UNL     1      -0.159  14.370  18.652  0.00  0.00    +0.000 NA
ATOM     22  C   UNL     1      -0.446  13.087  18.802  0.00  0.00    +0.000 A 
BRANCH  22  23
ATOM     23  C   UNL     1      -1.804  12.528  18.715  0.00  0.00    +0.000 A 
ATOM     24  C   UNL     1      -2.707  12.775  19.750  0.00  0.00    +0.000 A 
ATOM     25  C   UNL     1      -4.025  12.314  19.677  0.00  0.00    +0.000 A 
ATOM     26  C   UNL     1      -4.458  11.573  18.552  0.00  0.00    +0.000 A 
ATOM     27  C   UNL     1      -3.544  11.279  17.523  0.00  0.00    +0.000 A 
ATOM     28  C   UNL     1      -2.221  11.729  17.644  0.00  0.00    +0.000 A 
BRANCH  25  29
ATOM     29  O   UNL     1      -4.954  12.545  20.666  0.00  0.00    +0.000 OA
ATOM     30  C   UNL     1      -4.588  13.488  21.668  0.00  0.00    +0.000 C 
ENDBRANCH  25  29
BRANCH  26  31
ATOM     31  O   UNL     1      -5.763  11.138  18.604  0.00  0.00    +0.000 OA
ATOM     32  C   UNL     1      -6.733  11.898  17.895  0.00  0.00    +0.000 C 
ENDBRANCH  26  31
BRANCH  27  33
ATOM     33  O   UNL     1      -3.971  10.540  16.452  0.00  0.00    +0.000 OA
ATOM     34  C   UNL     1      -3.406  10.810  15.172  0.00  0.00    +0.000 C 
ENDBRANCH  27  33
ENDBRANCH  22  23
ENDBRANCH   4  18
TORSDOF 7
ENDMDL
MODEL 2
REMARK VINA RESULT:      -7.4      2.112      2.729
REMARK  Name = 
REMARK  11 active torsions:
REMARK  status: ('A' for Active; 'I' for Inactive)
REMARK    1  A    between atoms: C_1  and  O_2
REMARK    2  A    between atoms: O_2  and  C_3
REMARK    3  A    between atoms: C_8  and  C_9
REMARK    4  A    between atoms: C_12  and  N_13
REMARK    5  A    between atoms: C_17  and  C_18
REMARK    6  A    between atoms: C_20  and  O_21
REMARK    7  A    between atoms: O_21  and  C_22
REMARK    8  A    between atoms: C_23  and  O_24
REMARK    9  A    between atoms: O_24  and  C_25
REMARK   10  A    between atoms: C_26  and  O_27
REMARK   11  A    between atoms: O_27  and  C_28
REMARK                            x       y       z     vdW  Elec       q    Type
REMARK                         _______ _______ _______ _____ _____    ______ ____
ROOT
ATOM      1  C   UNL     1       0.736   9.627  20.325  0.00  0.00    +0.000 A 
ATOM      2  C   UNL     1       0.775  10.785  19.529  0.00  0.00    +0.000 A 
ATOM      3  C   UNL     1       0.187  11.979  19.955  0.00  0.00    +0.000 A 
ATOM      4  C   UNL     1      -0.425  12.035  21.211  0.00  0.00    +0.000 A 
ATOM      5  C   UNL     1      -0.520  10.876  21.990  0.00  0.00    +0.000 A 
ATOM      6  C   UNL     1       0.065   9.686  21.554  0.00  0.00    +0.000 A 
ENDROOT
BRANCH   1  12
ATOM      7  C   UNL     1       3.640   4.542  18.275  0.00  0.00    +0.000 A 
ATOM      8  C   UNL     1       3.263   4.182  19.567  0.00  0.00    +0.000 A 
ATOM      9  C   UNL     1       2.590   5.085  20.398  0.00  0.00    +0.000 A 
ATOM     10  C   UNL     1       2.281   6.374  19.921  0.00  0.00    +0.000 A 
ATOM     11  N   UNL     1       1.615   7.358  20.627  0.00  0.00    +0.000 NA
ATOM     12  C   UNL     1       1.451   8.426  19.875  0.00  0.00    +0.000 A 
ATOM     13  S   UNL     1       2.149   8.330  18.307  0.00  0.00    +0.000 S 
ATOM     14  C   UNL     1       2.657   6.719  18.624  0.00  0.00    +0.000 A 
ATOM     15  C   UNL     1       3.336   5.821  17.787  0.00  0.00    +0.000 A 
BRANCH   7  17
ATOM     16  C   UNL     1       5.264   4.368  16.550  0.00  0.00    +0.000 C 
ATOM     17  O   UNL     1       4.295   3.741  17.382  0.00  0.00    +0.000 OA
ENDBRANCH   7  17
ENDBRANCH   1  12
BRANCH   4  18
ATOM     18  N   UNL     1      -0.888  13.279  21.711  0.00  0.00    +0.000 N 
ATOM     19  C   UNL     1      -0.132  14.199  22.395  0.00  0.00    +0.000 A 
ATOM     20  N   UNL     1      -0.823  15.293  22.602  0.00  0.00    +0.000 NA
ATOM     21  N   UNL     1      -2.084  15.081  22.113  0.00  0.00    +0.000 NA
ATOM     22  C   UNL     1      -2.159  13.847  21.641  0.00  0.00    +0.000 A 
BRANCH  22  23
ATOM     23  C   UNL     1      -3.407  13.208  21.194  0.00  0.00    +0.000 A 
ATOM     24  C   UNL     1      -4.443  13.027  22.112  0.00  0.00    +0.000 A 
ATOM     25  C   UNL     1      -5.667  12.479  21.713  0.00  0.00    +0.000 A 
ATOM     26  C   UNL     1      -5.865  12.086  20.368  0.00  0.00    +0.000 A 
ATOM     27  C   UNL     1      -4.812  12.222  19.444  0.00  0.00    +0.000 A 
ATOM     28  C   UNL     1      -3.587  12.745  19.886  0.00  0.00    +0.000 A 
BRANCH  25  29
ATOM     29  O   UNL     1      -6.720  12.295  22.578  0.00  0.00    +0.000 OA
ATOM     30  C   UNL     1      -6.505  12.689  23.930  0.00  0.00    +0.000 C 
ENDBRANCH  25  29
BRANCH  26  31
ATOM     31  O   UNL     1      -7.093  11.526  20.097  0.00  0.00    +0.000 OA
ATOM     32  C   UNL     1      -7.170  10.106  20.067  0.00  0.00    +0.000 C 
ENDBRANCH  26  31
BRANCH  27  33
ATOM     33  O   UNL     1      -5.011  11.815  18.152  0.00  0.00    +0.000 OA
ATOM     34  C   UNL     1      -3.883  11.397  17.390  0.00  0.00    +0.000 C 
ENDBRANCH  27  33
ENDBRANCH  22  23
ENDBRANCH   4  18
TORSDOF 7
ENDMDL
MODEL 3
REMARK VINA RESULT:      -7.4      2.355      3.141
REMARK  Name = 
REMARK  11 active torsions:
REMARK  status: ('A' for Active; 'I' for Inactive)
REMARK    1  A    between atoms: C_1  and  O_2
REMARK    2  A    between atoms: O_2  and  C_3
REMARK    3  A    between atoms: C_8  and  C_9
REMARK    4  A    between atoms: C_12  and  N_13
REMARK    5  A    between atoms: C_17  and  C_18
REMARK    6  A    between atoms: C_20  and  O_21
REMARK    7  A    between atoms: O_21  and  C_22
REMARK    8  A    between atoms: C_23  and  O_24
REMARK    9  A    between atoms: O_24  and  C_25
REMARK   10  A    between atoms: C_26  and  O_27
REMARK   11  A    between atoms: O_27  and  C_28
REMARK                            x       y       z     vdW  Elec       q    Type
REMARK                         _______ _______ _______ _____ _____    ______ ____
ROOT
ATOM      1  C   UNL     1       0.656   9.804  21.142  0.00  0.00    +0.000 A 
ATOM      2  C   UNL     1      -0.192   9.668  22.255  0.00  0.00    +0.000 A 
ATOM      3  C   UNL     1      -0.849  10.772  22.806  0.00  0.00    +0.000 A 
ATOM      4  C   UNL     1      -0.686  12.031  22.223  0.00  0.00    +0.000 A 
ATOM      5  C   UNL     1       0.198  12.192  21.150  0.00  0.00    +0.000 A 
ATOM      6  C   UNL     1       0.855  11.085  20.609  0.00  0.00    +0.000 A 
ENDROOT
BRANCH   1  12
ATOM      7  C   UNL     1       3.031   4.740  18.458  0.00  0.00    +0.000 A 
ATOM      8  C   UNL     1       2.608   4.262  19.697  0.00  0.00    +0.000 A 
ATOM      9  C   UNL     1       2.026   5.120  20.637  0.00  0.00    +0.000 A 
ATOM     10  C   UNL     1       1.857   6.484  20.327  0.00  0.00    +0.000 A 
ATOM     11  N   UNL     1       1.292   7.436  21.154  0.00  0.00    +0.000 NA
ATOM     12  C   UNL     1       1.246   8.601  20.542  0.00  0.00    +0.000 A 
ATOM     13  S   UNL     1       1.943   8.629  18.971  0.00  0.00    +0.000 S 
ATOM     14  C   UNL     1       2.277   6.947  19.081  0.00  0.00    +0.000 A 
ATOM     15  C   UNL     1       2.866   6.095  18.136  0.00  0.00    +0.000 A 
BRANCH   7  17
ATOM     16  C   UNL     1       4.650   4.609  16.726  0.00  0.00    +0.000 C 
ATOM     17  O   UNL     1       3.606   3.992  17.468  0.00  0.00    +0.000 OA
ENDBRANCH   7  17
ENDBRANCH   1  12
BRANCH   4  18
ATOM     18  N   UNL     1      -1.466  13.123  22.682  0.00  0.00    +0.000 N 
ATOM     19  C   UNL     1      -1.145  13.954  23.728  0.00  0.00    +0.000 A 
ATOM     20  N   UNL     1      -2.007  14.937  23.810  0.00  0.00    +0.000 NA
ATOM     21  N   UNL     1      -2.961  14.729  22.851  0.00  0.00    +0.000 NA
ATOM     22  C   UNL     1      -2.689  13.601  22.214  0.00  0.00    +0.000 A 
BRANCH  22  23
ATOM     23  C   UNL     1      -3.588  12.967  21.236  0.00  0.00    +0.000 A 
ATOM     24  C   UNL     1      -4.919  12.737  21.588  0.00  0.00    +0.000 A 
ATOM     25  C   UNL     1      -5.820  12.192  20.667  0.00  0.00    +0.000 A 
ATOM     26  C   UNL     1      -5.387  11.852  19.364  0.00  0.00    +0.000 A 
ATOM     27  C   UNL     1      -4.036  12.038  19.013  0.00  0.00    +0.000 A 
ATOM     28  C   UNL     1      -3.152  12.556  19.971  0.00  0.00    +0.000 A 
BRANCH  25  29
ATOM     29  O   UNL     1      -7.143  11.961  20.964  0.00  0.00    +0.000 OA
ATOM     30  C   UNL     1      -7.914  13.096  21.345  0.00  0.00    +0.000 C 
ENDBRANCH  25  29
BRANCH  26  31
ATOM     31  O   UNL     1      -6.348  11.290  18.555  0.00  0.00    +0.000 OA
ATOM     32  C   UNL     1      -6.969  12.136  17.595  0.00  0.00    +0.000 C 
ENDBRANCH  26  31
BRANCH  27  33
ATOM     33  O   UNL     1      -3.626  11.682  17.755  0.00  0.00    +0.000 OA
ATOM     34  C   UNL     1      -2.548  10.759  17.628  0.00  0.00    +0.000 C 
ENDBRANCH  27  33
ENDBRANCH  22  23
ENDBRANCH   4  18
TORSDOF 7
ENDMDL
MODEL 4
REMARK VINA RESULT:      -7.3      2.558      3.881
REMARK  Name = 
REMARK  11 active torsions:
REMARK  status: ('A' for Active; 'I' for Inactive)
REMARK    1  A    between atoms: C_1  and  O_2
REMARK    2  A    between atoms: O_2  and  C_3
REMARK    3  A    between atoms: C_8  and  C_9
REMARK    4  A    between atoms: C_12  and  N_13
REMARK    5  A    between atoms: C_17  and  C_18
REMARK    6  A    between atoms: C_20  and  O_21
REMARK    7  A    between atoms: O_21  and  C_22
REMARK    8  A    between atoms: C_23  and  O_24
REMARK    9  A    between atoms: O_24  and  C_25
REMARK   10  A    between atoms: C_26  and  O_27
REMARK   11  A    between atoms: O_27  and  C_28
REMARK                            x       y       z     vdW  Elec       q    Type
REMARK                         _______ _______ _______ _____ _____    ______ ____
ROOT
ATOM      1  C   UNL     1       0.262  10.791  20.905  0.00  0.00    +0.000 A 
ATOM      2  C   UNL     1      -0.373  10.689  22.155  0.00  0.00    +0.000 A 
ATOM      3  C   UNL     1      -1.106  11.755  22.685  0.00  0.00    +0.000 A 
ATOM      4  C   UNL     1      -1.238  12.935  21.948  0.00  0.00    +0.000 A 
ATOM      5  C   UNL     1      -0.565  13.071  20.728  0.00  0.00    +0.000 A 
ATOM      6  C   UNL     1       0.170  12.004  20.208  0.00  0.00    +0.000 A 
ENDROOT
BRANCH   1  12
ATOM      7  C   UNL     1       3.237   5.813  18.702  0.00  0.00    +0.000 A 
ATOM      8  C   UNL     1       3.325   6.717  17.645  0.00  0.00    +0.000 A 
ATOM      9  C   UNL     1       2.739   7.985  17.734  0.00  0.00    +0.000 A 
ATOM     10  C   UNL     1       2.057   8.358  18.908  0.00  0.00    +0.000 A 
ATOM     11  N   UNL     1       1.443   9.575  19.133  0.00  0.00    +0.000 NA
ATOM     12  C   UNL     1       0.938   9.612  20.349  0.00  0.00    +0.000 A 
ATOM     13  S   UNL     1       1.112   8.164  21.258  0.00  0.00    +0.000 S 
ATOM     14  C   UNL     1       1.984   7.447  19.961  0.00  0.00    +0.000 A 
ATOM     15  C   UNL     1       2.564   6.173  19.878  0.00  0.00    +0.000 A 
BRANCH   7  17
ATOM     16  C   UNL     1       3.450   3.741  19.844  0.00  0.00    +0.000 C 
ATOM     17  O   UNL     1       3.774   4.555  18.724  0.00  0.00    +0.000 OA
ENDBRANCH   7  17
ENDBRANCH   1  12
BRANCH   4  18
ATOM     18  N   UNL     1      -2.102  13.959  22.411  0.00  0.00    +0.000 N 
ATOM     19  C   UNL     1      -1.760  14.964  23.282  0.00  0.00    +0.000 A 
ATOM     20  N   UNL     1      -2.747  15.817  23.404  0.00  0.00    +0.000 NA
ATOM     21  N   UNL     1      -3.794  15.345  22.658  0.00  0.00    +0.000 NA
ATOM     22  C   UNL     1      -3.446  14.189  22.116  0.00  0.00    +0.000 A 
BRANCH  22  23
ATOM     23  C   UNL     1      -4.372  13.305  21.392  0.00  0.00    +0.000 A 
ATOM     24  C   UNL     1      -5.514  12.837  22.045  0.00  0.00    +0.000 A 
ATOM     25  C   UNL     1      -6.449  12.044  21.373  0.00  0.00    +0.000 A 
ATOM     26  C   UNL     1      -6.242  11.692  20.019  0.00  0.00    +0.000 A 
ATOM     27  C   UNL     1      -5.072  12.120  19.363  0.00  0.00    +0.000 A 
ATOM     28  C   UNL     1      -4.138  12.887  20.076  0.00  0.00    +0.000 A 
BRANCH  25  29
ATOM     29  O   UNL     1      -7.595  11.572  21.971  0.00  0.00    +0.000 OA
ATOM     30  C   UNL     1      -7.902  12.103  23.257  0.00  0.00    +0.000 C 
ENDBRANCH  25  29
BRANCH  26  31
ATOM     31  O   UNL     1      -7.207  10.878  19.470  0.00  0.00    +0.000 OA
ATOM     32  C   UNL     1      -6.981   9.475  19.516  0.00  0.00    +0.000 C 
ENDBRANCH  26  31
BRANCH  27  33
ATOM     33  O   UNL     1      -4.873  11.751  18.059  0.00  0.00    +0.000 OA
ATOM     34  C   UNL     1      -3.539  11.532  17.611  0.00  0.00    +0.000 C 
ENDBRANCH  27  33
ENDBRANCH  22  23
ENDBRANCH   4  18
TORSDOF 7
ENDMDL
MODEL 5
REMARK VINA RESULT:      -7.3      0.971      1.403
REMARK  Name = 
REMARK  11 active torsions:
REMARK  status: ('A' for Active; 'I' for Inactive)
REMARK    1  A    between atoms: C_1  and  O_2
REMARK    2  A    between atoms: O_2  and  C_3
REMARK    3  A    between atoms: C_8  and  C_9
REMARK    4  A    between atoms: C_12  and  N_13
REMARK    5  A    between atoms: C_17  and  C_18
REMARK    6  A    between atoms: C_20  and  O_21
REMARK    7  A    between atoms: O_21  and  C_22
REMARK    8  A    between atoms: C_23  and  O_24
REMARK    9  A    between atoms: O_24  and  C_25
REMARK   10  A    between atoms: C_26  and  O_27
REMARK   11  A    between atoms: O_27  and  C_28
REMARK                            x       y       z     vdW  Elec       q    Type
REMARK                         _______ _______ _______ _____ _____    ______ ____
ROOT
ATOM      1  C   UNL     1       1.734   8.352  19.240  0.00  0.00    +0.000 A 
ATOM      2  C   UNL     1       1.889   9.214  18.141  0.00  0.00    +0.000 A 
ATOM      3  C   UNL     1       1.481  10.550  18.203  0.00  0.00    +0.000 A 
ATOM      4  C   UNL     1       0.937  11.049  19.389  0.00  0.00    +0.000 A 
ATOM      5  C   UNL     1       0.725  10.188  20.473  0.00  0.00    +0.000 A 
ATOM      6  C   UNL     1       1.130   8.854  20.400  0.00  0.00    +0.000 A 
ENDROOT
BRANCH   1  12
ATOM      7  C   UNL     1       4.088   2.615  19.044  0.00  0.00    +0.000 A 
ATOM      8  C   UNL     1       4.408   3.122  17.787  0.00  0.00    +0.000 A 
ATOM      9  C   UNL     1       4.018   4.414  17.412  0.00  0.00    +0.000 A 
ATOM     10  C   UNL     1       3.302   5.217  18.320  0.00  0.00    +0.000 A 
ATOM     11  N   UNL     1       2.865   6.507  18.087  0.00  0.00    +0.000 NA
ATOM     12  C   UNL     1       2.266   6.986  19.157  0.00  0.00    +0.000 A 
ATOM     13  S   UNL     1       2.134   5.888  20.474  0.00  0.00    +0.000 S 
ATOM     14  C   UNL     1       2.996   4.700  19.579  0.00  0.00    +0.000 A 
ATOM     15  C   UNL     1       3.377   3.406  19.959  0.00  0.00    +0.000 A 
BRANCH   7  17
ATOM     16  C   UNL     1       5.083   1.321  20.770  0.00  0.00    +0.000 C 
ATOM     17  O   UNL     1       4.420   1.374  19.513  0.00  0.00    +0.000 OA
ENDBRANCH   7  17
ENDBRANCH   1  12
BRANCH   4  18
ATOM     18  N   UNL     1       0.663  12.435  19.507  0.00  0.00    +0.000 N 
ATOM     19  C   UNL     1       1.558  13.399  19.901  0.00  0.00    +0.000 A 
ATOM     20  N   UNL     1       1.027  14.591  19.779  0.00  0.00    +0.000 NA
ATOM     21  N   UNL     1      -0.267  14.425  19.364  0.00  0.00    +0.000 NA
ATOM     22  C   UNL     1      -0.523  13.130  19.268  0.00  0.00    +0.000 A 
BRANCH  22  23
ATOM     23  C   UNL     1      -1.859  12.569  19.018  0.00  0.00    +0.000 A 
ATOM     24  C   UNL     1      -2.855  12.728  19.984  0.00  0.00    +0.000 A 
ATOM     25  C   UNL     1      -4.154  12.262  19.758  0.00  0.00    +0.000 A 
ATOM     26  C   UNL     1      -4.474  11.608  18.545  0.00  0.00    +0.000 A 
ATOM     27  C   UNL     1      -3.468  11.402  17.583  0.00  0.00    +0.000 A 
ATOM     28  C   UNL     1      -2.168  11.853  17.855  0.00  0.00    +0.000 A 
BRANCH  25  29
ATOM     29  O   UNL     1      -5.170  12.409  20.675  0.00  0.00    +0.000 OA
ATOM     30  C   UNL     1      -4.811  12.975  21.931  0.00  0.00    +0.000 C 
ENDBRANCH  25  29
BRANCH  26  31
ATOM     31  O   UNL     1      -5.772  11.159  18.446  0.00  0.00    +0.000 OA
ATOM     32  C   UNL     1      -6.688  11.968  17.719  0.00  0.00    +0.000 C 
ENDBRANCH  26  31
BRANCH  27  33
ATOM     33  O   UNL     1      -3.788  10.745  16.424  0.00  0.00    +0.000 OA
ATOM     34  C   UNL     1      -2.761  10.030  15.743  0.00  0.00    +0.000 C 
ENDBRANCH  27  33
ENDBRANCH  22  23
ENDBRANCH   4  18
TORSDOF 7
ENDMDL
MODEL 6
REMARK VINA RESULT:      -7.3      1.615      2.249
REMARK  Name = 
REMARK  11 active torsions:
REMARK  status: ('A' for Active; 'I' for Inactive)
REMARK    1  A    between atoms: C_1  and  O_2
REMARK    2  A    between atoms: O_2  and  C_3
REMARK    3  A    between atoms: C_8  and  C_9
REMARK    4  A    between atoms: C_12  and  N_13
REMARK    5  A    between atoms: C_17  and  C_18
REMARK    6  A    between atoms: C_20  and  O_21
REMARK    7  A    between atoms: O_21  and  C_22
REMARK    8  A    between atoms: C_23  and  O_24
REMARK    9  A    between atoms: O_24  and  C_25
REMARK   10  A    between atoms: C_26  and  O_27
REMARK   11  A    between atoms: O_27  and  C_28
REMARK                            x       y       z     vdW  Elec       q    Type
REMARK                         _______ _______ _______ _____ _____    ______ ____
ROOT
ATOM      1  C   UNL     1       1.107   9.534  19.865  0.00  0.00    +0.000 A 
ATOM      2  C   UNL     1       1.059  10.435  18.787  0.00  0.00    +0.000 A 
ATOM      3  C   UNL     1       0.622  11.751  18.960  0.00  0.00    +0.000 A 
ATOM      4  C   UNL     1       0.255  12.193  20.234  0.00  0.00    +0.000 A 
ATOM      5  C   UNL     1       0.244  11.292  21.306  0.00  0.00    +0.000 A 
ATOM      6  C   UNL     1       0.677   9.978  21.123  0.00  0.00    +0.000 A 
ENDROOT
BRANCH   1  12
ATOM      7  C   UNL     1       3.353   3.849  18.806  0.00  0.00    +0.000 A 
ATOM      8  C   UNL     1       2.843   3.742  20.098  0.00  0.00    +0.000 A 
ATOM      9  C   UNL     1       2.259   4.845  20.733  0.00  0.00    +0.000 A 
ATOM     10  C   UNL     1       2.176   6.077  20.055  0.00  0.00    +0.000 A 
ATOM     11  N   UNL     1       1.619   7.238  20.557  0.00  0.00    +0.000 NA
ATOM     12  C   UNL     1       1.664   8.193  19.651  0.00  0.00    +0.000 A 
ATOM     13  S   UNL     1       2.441   7.766  18.178  0.00  0.00    +0.000 S 
ATOM     14  C   UNL     1       2.682   6.167  18.759  0.00  0.00    +0.000 A 
ATOM     15  C   UNL     1       3.274   5.069  18.119  0.00  0.00    +0.000 A 
BRANCH   7  17
ATOM     16  C   UNL     1       3.583   1.511  18.454  0.00  0.00    +0.000 C 
ATOM     17  O   UNL     1       3.939   2.839  18.093  0.00  0.00    +0.000 OA
ENDBRANCH   7  17
ENDBRANCH   1  12
BRANCH   4  18
ATOM     18  N   UNL     1      -0.043  13.564  20.443  0.00  0.00    +0.000 N 
ATOM     19  C   UNL     1       0.875  14.583  20.510  0.00  0.00    +0.000 A 
ATOM     20  N   UNL     1       0.266  15.740  20.582  0.00  0.00    +0.000 NA
ATOM     21  N   UNL     1      -1.080  15.495  20.633  0.00  0.00    +0.000 NA
ATOM     22  C   UNL     1      -1.278  14.187  20.626  0.00  0.00    +0.000 A 
BRANCH  22  23
ATOM     23  C   UNL     1      -2.584  13.548  20.844  0.00  0.00    +0.000 A 
ATOM     24  C   UNL     1      -3.156  13.590  22.117  0.00  0.00    +0.000 A 
ATOM     25  C   UNL     1      -4.424  13.048  22.352  0.00  0.00    +0.000 A 
ATOM     26  C   UNL     1      -5.141  12.432  21.299  0.00  0.00    +0.000 A 
ATOM     27  C   UNL     1      -4.555  12.344  20.022  0.00  0.00    +0.000 A 
ATOM     28  C   UNL     1      -3.269  12.869  19.829  0.00  0.00    +0.000 A 
BRANCH  25  29
ATOM     29  O   UNL     1      -5.033  13.079  23.586  0.00  0.00    +0.000 OA
ATOM     30  C   UNL     1      -4.345  12.425  24.647  0.00  0.00    +0.000 C 
ENDBRANCH  25  29
BRANCH  26  31
ATOM     31  O   UNL     1      -6.360  11.901  21.652  0.00  0.00    +0.000 OA
ATOM     32  C   UNL     1      -7.524  12.609  21.242  0.00  0.00    +0.000 C 
ENDBRANCH  26  31
BRANCH  27  33
ATOM     33  O   UNL     1      -5.251  11.724  19.018  0.00  0.00    +0.000 OA
ATOM     34  C   UNL     1      -4.750  11.815  17.688  0.00  0.00    +0.000 C 
ENDBRANCH  27  33
ENDBRANCH  22  23
ENDBRANCH   4  18
TORSDOF 7
ENDMDL
MODEL 7
REMARK VINA RESULT:      -7.3      2.274      3.092
REMARK  Name = 
REMARK  11 active torsions:
REMARK  status: ('A' for Active; 'I' for Inactive)
REMARK    1  A    between atoms: C_1  and  O_2
REMARK    2  A    between atoms: O_2  and  C_3
REMARK    3  A    between atoms: C_8  and  C_9
REMARK    4  A    between atoms: C_12  and  N_13
REMARK    5  A    between atoms: C_17  and  C_18
REMARK    6  A    between atoms: C_20  and  O_21
REMARK    7  A    between atoms: O_21  and  C_22
REMARK    8  A    between atoms: C_23  and  O_24
REMARK    9  A    between atoms: O_24  and  C_25
REMARK   10  A    between atoms: C_26  and  O_27
REMARK   11  A    between atoms: O_27  and  C_28
REMARK                            x       y       z     vdW  Elec       q    Type
REMARK                         _______ _______ _______ _____ _____    ______ ____
ROOT
ATOM      1  C   UNL     1       0.619   9.777  20.438  0.00  0.00    +0.000 A 
ATOM      2  C   UNL     1       0.589  10.940  19.650  0.00  0.00    +0.000 A 
ATOM      3  C   UNL     1      -0.040  12.105  20.099  0.00  0.00    +0.000 A 
ATOM      4  C   UNL     1      -0.625  12.126  21.368  0.00  0.00    +0.000 A 
ATOM      5  C   UNL     1      -0.652  10.959  22.141  0.00  0.00    +0.000 A 
ATOM      6  C   UNL     1      -0.026   9.798  21.682  0.00  0.00    +0.000 A 
ENDROOT
BRANCH   1  12
ATOM      7  C   UNL     1       3.919   4.860  18.590  0.00  0.00    +0.000 A 
ATOM      8  C   UNL     1       4.090   5.758  17.538  0.00  0.00    +0.000 A 
ATOM      9  C   UNL     1       3.466   7.011  17.556  0.00  0.00    +0.000 A 
ATOM     10  C   UNL     1       2.663   7.375  18.653  0.00  0.00    +0.000 A 
ATOM     11  N   UNL     1       1.999   8.578  18.804  0.00  0.00    +0.000 NA
ATOM     12  C   UNL     1       1.375   8.611  19.963  0.00  0.00    +0.000 A 
ATOM     13  S   UNL     1       1.495   7.174  20.900  0.00  0.00    +0.000 S 
ATOM     14  C   UNL     1       2.508   6.471  19.703  0.00  0.00    +0.000 A 
ATOM     15  C   UNL     1       3.124   5.211  19.690  0.00  0.00    +0.000 A 
BRANCH   7  17
ATOM     16  C   UNL     1       3.656   2.514  18.324  0.00  0.00    +0.000 C 
ATOM     17  O   UNL     1       4.482   3.616  18.677  0.00  0.00    +0.000 OA
ENDBRANCH   7  17
ENDBRANCH   1  12
BRANCH   4  18
ATOM     18  N   UNL     1      -1.130  13.345  21.889  0.00  0.00    +0.000 N 
ATOM     19  C   UNL     1      -0.410  14.272  22.601  0.00  0.00    +0.000 A 
ATOM     20  N   UNL     1      -1.136  15.341  22.822  0.00  0.00    +0.000 NA
ATOM     21  N   UNL     1      -2.384  15.103  22.312  0.00  0.00    +0.000 NA
ATOM     22  C   UNL     1      -2.417  13.878  21.814  0.00  0.00    +0.000 A 
BRANCH  22  23
ATOM     23  C   UNL     1      -3.640  13.213  21.337  0.00  0.00    +0.000 A 
ATOM     24  C   UNL     1      -4.664  12.942  22.247  0.00  0.00    +0.000 A 
ATOM     25  C   UNL     1      -5.866  12.367  21.823  0.00  0.00    +0.000 A 
ATOM     26  C   UNL     1      -6.055  12.036  20.461  0.00  0.00    +0.000 A 
ATOM     27  C   UNL     1      -5.012  12.262  19.542  0.00  0.00    +0.000 A 
ATOM     28  C   UNL     1      -3.807  12.811  20.007  0.00  0.00    +0.000 A 
BRANCH  25  29
ATOM     29  O   UNL     1      -6.907  12.096  22.681  0.00  0.00    +0.000 OA
ATOM     30  C   UNL     1      -6.812  12.655  23.987  0.00  0.00    +0.000 C 
ENDBRANCH  25  29
BRANCH  26  31
ATOM     31  O   UNL     1      -7.260  11.441  20.164  0.00  0.00    +0.000 OA
ATOM     32  C   UNL     1      -7.287  10.021  20.094  0.00  0.00    +0.000 C 
ENDBRANCH  26  31
BRANCH  27  33
ATOM     33  O   UNL     1      -5.201  11.915  18.231  0.00  0.00    +0.000 OA
ATOM     34  C   UNL     1      -4.383  10.888  17.676  0.00  0.00    +0.000 C 
ENDBRANCH  27  33
ENDBRANCH  22  23
ENDBRANCH   4  18
TORSDOF 7
ENDMDL
MODEL 8
REMARK VINA RESULT:      -7.3      2.499      3.912
REMARK  Name = 
REMARK  11 active torsions:
REMARK  status: ('A' for Active; 'I' for Inactive)
REMARK    1  A    between atoms: C_1  and  O_2
REMARK    2  A    between atoms: O_2  and  C_3
REMARK    3  A    between atoms: C_8  and  C_9
REMARK    4  A    between atoms: C_12  and  N_13
REMARK    5  A    between atoms: C_17  and  C_18
REMARK    6  A    between atoms: C_20  and  O_21
REMARK    7  A    between atoms: O_21  and  C_22
REMARK    8  A    between atoms: C_23  and  O_24
REMARK    9  A    between atoms: O_24  and  C_25
REMARK   10  A    between atoms: C_26  and  O_27
REMARK   11  A    between atoms: O_27  and  C_28
REMARK                            x       y       z     vdW  Elec       q    Type
REMARK                         _______ _______ _______ _____ _____    ______ ____
ROOT
ATOM      1  C   UNL     1       0.481  10.124  21.236  0.00  0.00    +0.000 A 
ATOM      2  C   UNL     1      -0.405   9.934  22.311  0.00  0.00    +0.000 A 
ATOM      3  C   UNL     1      -1.076  11.011  22.897  0.00  0.00    +0.000 A 
ATOM      4  C   UNL     1      -0.888  12.299  22.387  0.00  0.00    +0.000 A 
ATOM      5  C   UNL     1       0.032  12.511  21.354  0.00  0.00    +0.000 A 
ATOM      6  C   UNL     1       0.703  11.430  20.778  0.00  0.00    +0.000 A 
ENDROOT
BRANCH   1  12
ATOM      7  C   UNL     1       2.911   5.183  18.378  0.00  0.00    +0.000 A 
ATOM      8  C   UNL     1       2.575   4.678  19.632  0.00  0.00    +0.000 A 
ATOM      9  C   UNL     1       2.010   5.505  20.611  0.00  0.00    +0.000 A 
ATOM     10  C   UNL     1       1.769   6.862  20.324  0.00  0.00    +0.000 A 
ATOM     11  N   UNL     1       1.211   7.784  21.190  0.00  0.00    +0.000 NA
ATOM     12  C   UNL     1       1.086   8.951  20.593  0.00  0.00    +0.000 A 
ATOM     13  S   UNL     1       1.695   9.020  18.987  0.00  0.00    +0.000 S 
ATOM     14  C   UNL     1       2.103   7.352  19.062  0.00  0.00    +0.000 A 
ATOM     15  C   UNL     1       2.674   6.532  18.078  0.00  0.00    +0.000 A 
BRANCH   7  17
ATOM     16  C   UNL     1       4.866   4.590  17.167  0.00  0.00    +0.000 C 
ATOM     17  O   UNL     1       3.461   4.467  17.351  0.00  0.00    +0.000 OA
ENDBRANCH   7  17
ENDBRANCH   1  12
BRANCH   4  18
ATOM     18  N   UNL     1      -1.679  13.370  22.877  0.00  0.00    +0.000 N 
ATOM     19  C   UNL     1      -1.363  14.178  23.942  0.00  0.00    +0.000 A 
ATOM     20  N   UNL     1      -2.236  15.148  24.053  0.00  0.00    +0.000 NA
ATOM     21  N   UNL     1      -3.192  14.952  23.093  0.00  0.00    +0.000 NA
ATOM     22  C   UNL     1      -2.910  13.844  22.427  0.00  0.00    +0.000 A 
BRANCH  22  23
ATOM     23  C   UNL     1      -3.806  13.224  21.438  0.00  0.00    +0.000 A 
ATOM     24  C   UNL     1      -3.280  12.800  20.217  0.00  0.00    +0.000 A 
ATOM     25  C   UNL     1      -4.085  12.151  19.276  0.00  0.00    +0.000 A 
ATOM     26  C   UNL     1      -5.456  11.928  19.545  0.00  0.00    +0.000 A 
ATOM     27  C   UNL     1      -6.008  12.392  20.754  0.00  0.00    +0.000 A 
ATOM     28  C   UNL     1      -5.179  13.068  21.662  0.00  0.00    +0.000 A 
BRANCH  25  29
ATOM     29  O   UNL     1      -3.607  11.703  18.066  0.00  0.00    +0.000 OA
ATOM     30  C   UNL     1      -2.242  11.299  18.036  0.00  0.00    +0.000 C 
ENDBRANCH  25  29
BRANCH  26  31
ATOM     31  O   UNL     1      -6.161  11.315  18.534  0.00  0.00    +0.000 OA
ATOM     32  C   UNL     1      -6.967  12.144  17.706  0.00  0.00    +0.000 C 
ENDBRANCH  26  31
BRANCH  27  33
ATOM     33  O   UNL     1      -7.342  12.191  20.991  0.00  0.00    +0.000 OA
ATOM     34  C   UNL     1      -7.738  11.688  22.264  0.00  0.00    +0.000 C 
ENDBRANCH  27  33
ENDBRANCH  22  23
ENDBRANCH   4  18
TORSDOF 7
ENDMDL
MODEL 9
REMARK VINA RESULT:      -7.2      3.948     10.684
REMARK  Name = 
REMARK  11 active torsions:
REMARK  status: ('A' for Active; 'I' for Inactive)
REMARK    1  A    between atoms: C_1  and  O_2
REMARK    2  A    between atoms: O_2  and  C_3
REMARK    3  A    between atoms: C_8  and  C_9
REMARK    4  A    between atoms: C_12  and  N_13
REMARK    5  A    between atoms: C_17  and  C_18
REMARK    6  A    between atoms: C_20  and  O_21
REMARK    7  A    between atoms: O_21  and  C_22
REMARK    8  A    between atoms: C_23  and  O_24
REMARK    9  A    between atoms: O_24  and  C_25
REMARK   10  A    between atoms: C_26  and  O_27
REMARK   11  A    between atoms: O_27  and  C_28
REMARK                            x       y       z     vdW  Elec       q    Type
REMARK                         _______ _______ _______ _____ _____    ______ ____
ROOT
ATOM      1  C   UNL     1       1.930   8.017  19.037  0.00  0.00    +0.000 A 
ATOM      2  C   UNL     1       2.287   7.479  17.788  0.00  0.00    +0.000 A 
ATOM      3  C   UNL     1       2.701   6.150  17.662  0.00  0.00    +0.000 A 
ATOM      4  C   UNL     1       2.731   5.328  18.792  0.00  0.00    +0.000 A 
ATOM      5  C   UNL     1       2.433   5.865  20.050  0.00  0.00    +0.000 A 
ATOM      6  C   UNL     1       2.026   7.196  20.168  0.00  0.00    +0.000 A 
ENDROOT
BRANCH   1  12
ATOM      7  C   UNL     1      -0.088  13.876  19.341  0.00  0.00    +0.000 A 
ATOM      8  C   UNL     1      -0.843  13.239  20.324  0.00  0.00    +0.000 A 
ATOM      9  C   UNL     1      -0.704  11.865  20.559  0.00  0.00    +0.000 A 
ATOM     10  C   UNL     1       0.217  11.117  19.800  0.00  0.00    +0.000 A 
ATOM     11  N   UNL     1       0.461   9.764  19.933  0.00  0.00    +0.000 NA
ATOM     12  C   UNL     1       1.411   9.389  19.102  0.00  0.00    +0.000 A 
ATOM     13  S   UNL     1       2.009  10.627  18.070  0.00  0.00    +0.000 S 
ATOM     14  C   UNL     1       0.972  11.769  18.826  0.00  0.00    +0.000 A 
ATOM     15  C   UNL     1       0.834  13.143  18.581  0.00  0.00    +0.000 A 
BRANCH   7  17
ATOM     16  C   UNL     1       1.101  15.857  18.792  0.00  0.00    +0.000 C 
ATOM     17  O   UNL     1      -0.141  15.207  19.032  0.00  0.00    +0.000 OA
ENDBRANCH   7  17
ENDBRANCH   1  12
BRANCH   4  18
ATOM     18  N   UNL     1       3.003   3.944  18.647  0.00  0.00    +0.000 N 
ATOM     19  C   UNL     1       2.434   2.933  19.383  0.00  0.00    +0.000 A 
ATOM     20  N   UNL     1       2.801   1.767  18.914  0.00  0.00    +0.000 NA
ATOM     21  N   UNL     1       3.683   1.992  17.892  0.00  0.00    +0.000 NA
ATOM     22  C   UNL     1       3.871   3.296  17.769  0.00  0.00    +0.000 A 
BRANCH  22  23
ATOM     23  C   UNL     1       4.883   3.905  16.892  0.00  0.00    +0.000 A 
ATOM     24  C   UNL     1       5.779   4.831  17.429  0.00  0.00    +0.000 A 
ATOM     25  C   UNL     1       6.794   5.387  16.643  0.00  0.00    +0.000 A 
ATOM     26  C   UNL     1       6.916   5.026  15.281  0.00  0.00    +0.000 A 
ATOM     27  C   UNL     1       5.991   4.128  14.716  0.00  0.00    +0.000 A 
ATOM     28  C   UNL     1       4.966   3.615  15.525  0.00  0.00    +0.000 A 
BRANCH  25  29
ATOM     29  O   UNL     1       7.707   6.292  17.133  0.00  0.00    +0.000 OA
ATOM     30  C   UNL     1       7.816   6.376  18.551  0.00  0.00    +0.000 C 
ENDBRANCH  25  29
BRANCH  26  31
ATOM     31  O   UNL     1       7.926   5.662  14.594  0.00  0.00    +0.000 OA
ATOM     32  C   UNL     1       8.004   5.436  13.192  0.00  0.00    +0.000 C 
ENDBRANCH  26  31
BRANCH  27  33
ATOM     33  O   UNL     1       6.108   3.807  13.390  0.00  0.00    +0.000 OA
ATOM     34  C   UNL     1       4.932   3.442  12.673  0.00  0.00    +0.000 C 
ENDBRANCH  27  33
ENDBRANCH  22  23
ENDBRANCH   4  18
TORSDOF 7
ENDMDL
