MODEL 1
REMARK VINA RESULT:      -7.6      0.000      0.000
REMARK  Name = 
REMARK  3 active torsions:
REMARK  status: ('A' for Active; 'I' for Inactive)
REMARK    1  A    between atoms: C_1  and  C_2
REMARK    2  A    between atoms: C_5  and  C_6
REMARK    3  A    between atoms: N_8  and  N_9
REMARK                            x       y       z     vdW  Elec       q    Type
REMARK                         _______ _______ _______ _____ _____    ______ ____
ROOT
ATOM      1  N   UNL     1       5.671   6.290  18.066  0.00  0.00    +0.000 N 
ATOM      2  C   UNL     1       5.991   5.159  18.769  0.00  0.00    +0.000 C 
ATOM      3  O   UNL     1       6.806   5.066  19.678  0.00  0.00    +0.000 OA
ATOM      4  C   UNL     1       5.147   4.026  18.247  0.00  0.00    +0.000 C 
ATOM      5  C   UNL     1       4.281   4.702  17.129  0.00  0.00    +0.000 C 
ATOM      6  C   UNL     1       4.484   6.173  17.385  0.00  0.00    +0.000 C 
ATOM      7  O   UNL     1       3.681   7.051  17.096  0.00  0.00    +0.000 OA
ATOM      8  C   UNL     1       2.860   4.223  17.457  0.00  0.00    +0.000 C 
ATOM      9  C   UNL     1       2.869   2.686  17.333  0.00  0.00    +0.000 C 
ATOM     10  C   UNL     1       3.569   2.203  18.385  0.00  0.00    +0.000 C 
ATOM     11  C   UNL     1       4.066   3.403  19.179  0.00  0.00    +0.000 C 
ATOM     12  C   UNL     1       2.877   4.324  18.963  0.00  0.00    +0.000 C 
ATOM     13  C   UNL     1       1.547   4.203  19.678  0.00  0.00    +0.000 C 
ATOM     14  C   UNL     1       2.413   5.419  19.889  0.00  0.00    +0.000 C 
ENDROOT
BRANCH   1  17
ATOM     15  C   UNL     1       7.389   7.886  17.632  0.00  0.00    +0.000 C 
ATOM     16  O   UNL     1       7.840   7.191  16.724  0.00  0.00    +0.000 OA
ATOM     17  N   UNL     1       6.261   7.531  18.359  0.00  0.00    +0.000 N 
ATOM     18  H   UNL     1       6.041   7.923  19.267  0.00  0.00    +0.000 HD
BRANCH  15  23
ATOM     19  C   UNL     1      10.212  12.746  19.177  0.00  0.00    +0.000 C 
ATOM     20  C   UNL     1       9.481  11.501  18.763  0.00  0.00    +0.000 A 
ATOM     21  C   UNL     1       9.685  10.295  19.435  0.00  0.00    +0.000 A 
ATOM     22  C   UNL     1       8.996   9.145  19.042  0.00  0.00    +0.000 A 
ATOM     23  C   UNL     1       8.090   9.169  17.969  0.00  0.00    +0.000 A 
ATOM     24  C   UNL     1       7.886  10.376  17.293  0.00  0.00    +0.000 A 
ATOM     25  C   UNL     1       8.578  11.532  17.693  0.00  0.00    +0.000 A 
ENDBRANCH  15  23
ENDBRANCH   1  17
TORSDOF 2
ENDMDL
MODEL 2
REMARK VINA RESULT:      -7.5      4.404      5.552
REMARK  Name = 
REMARK  3 active torsions:
REMARK  status: ('A' for Active; 'I' for Inactive)
REMARK    1  A    between atoms: C_1  and  C_2
REMARK    2  A    between atoms: C_5  and  C_6
REMARK    3  A    between atoms: N_8  and  N_9
REMARK                            x       y       z     vdW  Elec       q    Type
REMARK                         _______ _______ _______ _____ _____    ______ ____
ROOT
ATOM      1  N   UNL     1       3.896   2.642  17.967  0.00  0.00    +0.000 N 
ATOM      2  C   UNL     1       4.455   2.753  19.212  0.00  0.00    +0.000 C 
ATOM      3  O   UNL     1       5.633   2.963  19.471  0.00  0.00    +0.000 OA
ATOM      4  C   UNL     1       3.361   2.590  20.234  0.00  0.00    +0.000 C 
ATOM      5  C   UNL     1       2.077   2.375  19.362  0.00  0.00    +0.000 C 
ATOM      6  C   UNL     1       2.530   2.781  17.984  0.00  0.00    +0.000 C 
ATOM      7  O   UNL     1       1.797   3.220  17.107  0.00  0.00    +0.000 OA
ATOM      8  C   UNL     1       1.072   3.357  19.981  0.00  0.00    +0.000 C 
ATOM      9  C   UNL     1       0.861   2.916  21.443  0.00  0.00    +0.000 C 
ATOM     10  C   UNL     1       1.991   3.220  22.121  0.00  0.00    +0.000 C 
ATOM     11  C   UNL     1       2.969   3.812  21.116  0.00  0.00    +0.000 C 
ATOM     12  C   UNL     1       1.970   4.544  20.235  0.00  0.00    +0.000 C 
ATOM     13  C   UNL     1       1.298   5.854  20.591  0.00  0.00    +0.000 C 
ATOM     14  C   UNL     1       2.237   5.780  19.414  0.00  0.00    +0.000 C 
ENDROOT
BRANCH   1  17
ATOM     15  C   UNL     1       4.955   4.094  16.399  0.00  0.00    +0.000 C 
ATOM     16  O   UNL     1       4.623   5.082  17.052  0.00  0.00    +0.000 OA
ATOM     17  N   UNL     1       4.662   2.798  16.798  0.00  0.00    +0.000 N 
ATOM     18  H   UNL     1       4.668   2.008  16.164  0.00  0.00    +0.000 HD
BRANCH  15  23
ATOM     19  C   UNL     1       7.704   4.702  11.294  0.00  0.00    +0.000 C 
ATOM     20  C   UNL     1       7.004   4.559  12.616  0.00  0.00    +0.000 A 
ATOM     21  C   UNL     1       5.835   3.806  12.728  0.00  0.00    +0.000 A 
ATOM     22  C   UNL     1       5.195   3.679  13.964  0.00  0.00    +0.000 A 
ATOM     23  C   UNL     1       5.705   4.302  15.117  0.00  0.00    +0.000 A 
ATOM     24  C   UNL     1       6.876   5.058  15.004  0.00  0.00    +0.000 A 
ATOM     25  C   UNL     1       7.519   5.181  13.761  0.00  0.00    +0.000 A 
ENDBRANCH  15  23
ENDBRANCH   1  17
TORSDOF 2
ENDMDL
MODEL 3
REMARK VINA RESULT:      -7.4      0.196      1.001
REMARK  Name = 
REMARK  3 active torsions:
REMARK  status: ('A' for Active; 'I' for Inactive)
REMARK    1  A    between atoms: C_1  and  C_2
REMARK    2  A    between atoms: C_5  and  C_6
REMARK    3  A    between atoms: N_8  and  N_9
REMARK                            x       y       z     vdW  Elec       q    Type
REMARK                         _______ _______ _______ _____ _____    ______ ____
ROOT
ATOM      1  N   UNL     1       5.733   6.302  18.015  0.00  0.00    +0.000 N 
ATOM      2  C   UNL     1       6.086   5.100  18.567  0.00  0.00    +0.000 C 
ATOM      3  O   UNL     1       6.963   4.903  19.398  0.00  0.00    +0.000 OA
ATOM      4  C   UNL     1       5.189   4.037  17.988  0.00  0.00    +0.000 C 
ATOM      5  C   UNL     1       4.255   4.836  17.017  0.00  0.00    +0.000 C 
ATOM      6  C   UNL     1       4.498   6.269  17.414  0.00  0.00    +0.000 C 
ATOM      7  O   UNL     1       3.690   7.179  17.282  0.00  0.00    +0.000 OA
ATOM      8  C   UNL     1       2.855   4.334  17.393  0.00  0.00    +0.000 C 
ATOM      9  C   UNL     1       2.832   2.820  17.105  0.00  0.00    +0.000 C 
ATOM     10  C   UNL     1       3.598   2.221  18.044  0.00  0.00    +0.000 C 
ATOM     11  C   UNL     1       4.169   3.323  18.924  0.00  0.00    +0.000 C 
ATOM     12  C   UNL     1       2.982   4.271  18.897  0.00  0.00    +0.000 C 
ATOM     13  C   UNL     1       1.705   4.082  19.690  0.00  0.00    +0.000 C 
ATOM     14  C   UNL     1       2.602   5.262  19.967  0.00  0.00    +0.000 C 
ENDROOT
BRANCH   1  17
ATOM     15  C   UNL     1       7.447   7.918  17.639  0.00  0.00    +0.000 C 
ATOM     16  O   UNL     1       7.828   7.316  16.636  0.00  0.00    +0.000 OA
ATOM     17  N   UNL     1       6.361   7.501  18.396  0.00  0.00    +0.000 N 
ATOM     18  H   UNL     1       6.205   7.797  19.352  0.00  0.00    +0.000 HD
BRANCH  15  23
ATOM     19  C   UNL     1      10.245  12.837  19.037  0.00  0.00    +0.000 C 
ATOM     20  C   UNL     1       9.527  11.562  18.693  0.00  0.00    +0.000 A 
ATOM     21  C   UNL     1       8.640  11.510  17.617  0.00  0.00    +0.000 A 
ATOM     22  C   UNL     1       7.981  10.318  17.306  0.00  0.00    +0.000 A 
ATOM     23  C   UNL     1       8.189   9.151  18.061  0.00  0.00    +0.000 A 
ATOM     24  C   UNL     1       9.076   9.203  19.140  0.00  0.00    +0.000 A 
ATOM     25  C   UNL     1       9.740  10.403  19.449  0.00  0.00    +0.000 A 
ENDBRANCH  15  23
ENDBRANCH   1  17
TORSDOF 2
ENDMDL
MODEL 4
REMARK VINA RESULT:      -7.2      4.115      5.005
REMARK  Name = 
REMARK  3 active torsions:
REMARK  status: ('A' for Active; 'I' for Inactive)
REMARK    1  A    between atoms: C_1  and  C_2
REMARK    2  A    between atoms: C_5  and  C_6
REMARK    3  A    between atoms: N_8  and  N_9
REMARK                            x       y       z     vdW  Elec       q    Type
REMARK                         _______ _______ _______ _____ _____    ______ ____
ROOT
ATOM      1  N   UNL     1       3.229   5.735  17.987  0.00  0.00    +0.000 N 
ATOM      2  C   UNL     1       4.328   5.320  18.691  0.00  0.00    +0.000 C 
ATOM      3  O   UNL     1       5.121   6.028  19.298  0.00  0.00    +0.000 OA
ATOM      4  C   UNL     1       4.396   3.818  18.611  0.00  0.00    +0.000 C 
ATOM      5  C   UNL     1       3.143   3.441  17.749  0.00  0.00    +0.000 C 
ATOM      6  C   UNL     1       2.342   4.717  17.738  0.00  0.00    +0.000 C 
ATOM      7  O   UNL     1       1.126   4.779  17.609  0.00  0.00    +0.000 OA
ATOM      8  C   UNL     1       2.485   2.322  18.568  0.00  0.00    +0.000 C 
ATOM      9  C   UNL     1       3.505   1.168  18.646  0.00  0.00    +0.000 C 
ATOM     10  C   UNL     1       4.497   1.564  19.475  0.00  0.00    +0.000 C 
ATOM     11  C   UNL     1       4.175   2.986  19.910  0.00  0.00    +0.000 C 
ATOM     12  C   UNL     1       2.661   2.866  19.966  0.00  0.00    +0.000 C 
ATOM     13  C   UNL     1       1.887   2.183  21.075  0.00  0.00    +0.000 C 
ATOM     14  C   UNL     1       1.731   3.664  20.844  0.00  0.00    +0.000 C 
ENDROOT
BRANCH   1  17
ATOM     15  C   UNL     1       2.237   7.641  19.023  0.00  0.00    +0.000 C 
ATOM     16  O   UNL     1       2.041   7.006  20.059  0.00  0.00    +0.000 OA
ATOM     17  N   UNL     1       2.868   7.092  17.917  0.00  0.00    +0.000 N 
ATOM     18  H   UNL     1       2.790   7.481  16.984  0.00  0.00    +0.000 HD
BRANCH  15  23
ATOM     19  C   UNL     1       0.216  13.108  18.949  0.00  0.00    +0.000 C 
ATOM     20  C   UNL     1       0.751  11.704  18.958  0.00  0.00    +0.000 A 
ATOM     21  C   UNL     1       0.301  10.774  19.897  0.00  0.00    +0.000 A 
ATOM     22  C   UNL     1       0.804   9.471  19.893  0.00  0.00    +0.000 A 
ATOM     23  C   UNL     1       1.769   9.064  18.956  0.00  0.00    +0.000 A 
ATOM     24  C   UNL     1       2.222   9.996  18.017  0.00  0.00    +0.000 A 
ATOM     25  C   UNL     1       1.712  11.305  18.020  0.00  0.00    +0.000 A 
ENDBRANCH  15  23
ENDBRANCH   1  17
TORSDOF 2
ENDMDL
MODEL 5
REMARK VINA RESULT:      -7.1      6.215      8.812
REMARK  Name = 
REMARK  3 active torsions:
REMARK  status: ('A' for Active; 'I' for Inactive)
REMARK    1  A    between atoms: C_1  and  C_2
REMARK    2  A    between atoms: C_5  and  C_6
REMARK    3  A    between atoms: N_8  and  N_9
REMARK                            x       y       z     vdW  Elec       q    Type
REMARK                         _______ _______ _______ _____ _____    ______ ____
ROOT
ATOM      1  N   UNL     1       0.477  10.472  19.604  0.00  0.00    +0.000 N 
ATOM      2  C   UNL     1      -0.807  10.712  19.192  0.00  0.00    +0.000 C 
ATOM      3  O   UNL     1      -1.558   9.923  18.634  0.00  0.00    +0.000 OA
ATOM      4  C   UNL     1      -1.162  12.128  19.563  0.00  0.00    +0.000 C 
ATOM      5  C   UNL     1       0.135  12.658  20.265  0.00  0.00    +0.000 C 
ATOM      6  C   UNL     1       0.925  11.398  20.513  0.00  0.00    +0.000 C 
ATOM      7  O   UNL     1       1.740  11.250  21.414  0.00  0.00    +0.000 OA
ATOM      8  C   UNL     1      -0.405  13.295  21.553  0.00  0.00    +0.000 C 
ATOM      9  C   UNL     1      -1.342  14.442  21.123  0.00  0.00    +0.000 C 
ATOM     10  C   UNL     1      -2.458  13.877  20.609  0.00  0.00    +0.000 C 
ATOM     11  C   UNL     1      -2.254  12.370  20.647  0.00  0.00    +0.000 C 
ATOM     12  C   UNL     1      -1.458  12.283  21.938  0.00  0.00    +0.000 C 
ATOM     13  C   UNL     1      -2.048  12.397  23.329  0.00  0.00    +0.000 C 
ATOM     14  C   UNL     1      -1.406  11.108  22.882  0.00  0.00    +0.000 C 
ENDROOT
BRANCH   1  17
ATOM     15  C   UNL     1       1.885   9.034  18.325  0.00  0.00    +0.000 C 
ATOM     16  O   UNL     1       2.127   9.938  17.527  0.00  0.00    +0.000 OA
ATOM     17  N   UNL     1       1.080   9.213  19.440  0.00  0.00    +0.000 N 
ATOM     18  H   UNL     1       0.644   8.446  19.939  0.00  0.00    +0.000 HD
BRANCH  15  23
ATOM     19  C   UNL     1       4.414   3.903  17.205  0.00  0.00    +0.000 C 
ATOM     20  C   UNL     1       3.752   5.217  17.505  0.00  0.00    +0.000 A 
ATOM     21  C   UNL     1       4.367   6.422  17.163  0.00  0.00    +0.000 A 
ATOM     22  C   UNL     1       3.739   7.638  17.445  0.00  0.00    +0.000 A 
ATOM     23  C   UNL     1       2.484   7.681  18.077  0.00  0.00    +0.000 A 
ATOM     24  C   UNL     1       1.868   6.474  18.422  0.00  0.00    +0.000 A 
ATOM     25  C   UNL     1       2.501   5.253  18.134  0.00  0.00    +0.000 A 
ENDBRANCH  15  23
ENDBRANCH   1  17
TORSDOF 2
ENDMDL
MODEL 6
REMARK VINA RESULT:      -6.9      4.264      5.542
REMARK  Name = 
REMARK  3 active torsions:
REMARK  status: ('A' for Active; 'I' for Inactive)
REMARK    1  A    between atoms: C_1  and  C_2
REMARK    2  A    between atoms: C_5  and  C_6
REMARK    3  A    between atoms: N_8  and  N_9
REMARK                            x       y       z     vdW  Elec       q    Type
REMARK                         _______ _______ _______ _____ _____    ______ ____
ROOT
ATOM      1  N   UNL     1       4.467   3.936  17.685  0.00  0.00    +0.000 N 
ATOM      2  C   UNL     1       4.069   5.011  18.433  0.00  0.00    +0.000 C 
ATOM      3  O   UNL     1       4.006   6.177  18.067  0.00  0.00    +0.000 OA
ATOM      4  C   UNL     1       3.694   4.515  19.805  0.00  0.00    +0.000 C 
ATOM      5  C   UNL     1       3.937   2.970  19.714  0.00  0.00    +0.000 C 
ATOM      6  C   UNL     1       4.082   2.736  18.232  0.00  0.00    +0.000 C 
ATOM      7  O   UNL     1       3.819   1.686  17.660  0.00  0.00    +0.000 OA
ATOM      8  C   UNL     1       2.642   2.382  20.293  0.00  0.00    +0.000 C 
ATOM      9  C   UNL     1       2.547   2.869  21.753  0.00  0.00    +0.000 C 
ATOM     10  C   UNL     1       2.255   4.189  21.718  0.00  0.00    +0.000 C 
ATOM     11  C   UNL     1       2.204   4.596  20.253  0.00  0.00    +0.000 C 
ATOM     12  C   UNL     1       1.622   3.313  19.683  0.00  0.00    +0.000 C 
ATOM     13  C   UNL     1       0.166   2.903  19.783  0.00  0.00    +0.000 C 
ATOM     14  C   UNL     1       0.783   3.186  18.437  0.00  0.00    +0.000 C 
ENDROOT
BRANCH   1  17
ATOM     15  C   UNL     1       6.182   4.251  16.058  0.00  0.00    +0.000 C 
ATOM     16  O   UNL     1       7.048   4.235  16.931  0.00  0.00    +0.000 OA
ATOM     17  N   UNL     1       4.834   4.073  16.335  0.00  0.00    +0.000 N 
ATOM     18  H   UNL     1       4.095   4.357  15.702  0.00  0.00    +0.000 HD
BRANCH  15  23
ATOM     19  C   UNL     1       7.655   4.906  10.456  0.00  0.00    +0.000 C 
ATOM     20  C   UNL     1       7.283   4.752  11.904  0.00  0.00    +0.000 A 
ATOM     21  C   UNL     1       6.272   3.873  12.293  0.00  0.00    +0.000 A 
ATOM     22  C   UNL     1       5.938   3.738  13.643  0.00  0.00    +0.000 A 
ATOM     23  C   UNL     1       6.602   4.477  14.636  0.00  0.00    +0.000 A 
ATOM     24  C   UNL     1       7.614   5.360  14.247  0.00  0.00    +0.000 A 
ATOM     25  C   UNL     1       7.950   5.492  12.889  0.00  0.00    +0.000 A 
ENDBRANCH  15  23
ENDBRANCH   1  17
TORSDOF 2
ENDMDL
MODEL 7
REMARK VINA RESULT:      -6.8      3.642      6.311
REMARK  Name = 
REMARK  3 active torsions:
REMARK  status: ('A' for Active; 'I' for Inactive)
REMARK    1  A    between atoms: C_1  and  C_2
REMARK    2  A    between atoms: C_5  and  C_6
REMARK    3  A    between atoms: N_8  and  N_9
REMARK                            x       y       z     vdW  Elec       q    Type
REMARK                         _______ _______ _______ _____ _____    ______ ____
ROOT
ATOM      1  N   UNL     1       3.336   6.552  18.355  0.00  0.00    +0.000 N 
ATOM      2  C   UNL     1       4.065   7.241  17.423  0.00  0.00    +0.000 C 
ATOM      3  O   UNL     1       4.207   8.455  17.353  0.00  0.00    +0.000 OA
ATOM      4  C   UNL     1       4.694   6.242  16.488  0.00  0.00    +0.000 C 
ATOM      5  C   UNL     1       4.209   4.862  17.048  0.00  0.00    +0.000 C 
ATOM      6  C   UNL     1       3.662   5.219  18.406  0.00  0.00    +0.000 C 
ATOM      7  O   UNL     1       3.613   4.458  19.363  0.00  0.00    +0.000 OA
ATOM      8  C   UNL     1       5.505   4.042  17.115  0.00  0.00    +0.000 C 
ATOM      9  C   UNL     1       6.035   3.928  15.672  0.00  0.00    +0.000 C 
ATOM     10  C   UNL     1       6.502   5.147  15.319  0.00  0.00    +0.000 C 
ATOM     11  C   UNL     1       6.244   6.081  16.492  0.00  0.00    +0.000 C 
ATOM     12  C   UNL     1       6.466   5.090  17.622  0.00  0.00    +0.000 C 
ATOM     13  C   UNL     1       7.822   4.610  18.100  0.00  0.00    +0.000 C 
ATOM     14  C   UNL     1       6.936   5.413  19.018  0.00  0.00    +0.000 C 
ENDROOT
BRANCH   1  17
ATOM     15  C   UNL     1       1.661   8.101  19.050  0.00  0.00    +0.000 C 
ATOM     16  O   UNL     1       1.309   8.281  17.885  0.00  0.00    +0.000 OA
ATOM     17  N   UNL     1       2.666   7.211  19.400  0.00  0.00    +0.000 N 
ATOM     18  H   UNL     1       3.158   7.251  20.286  0.00  0.00    +0.000 HD
BRANCH  15  23
ATOM     19  C   UNL     1      -1.083  11.314  23.065  0.00  0.00    +0.000 C 
ATOM     20  C   UNL     1      -0.373  10.473  22.043  0.00  0.00    +0.000 A 
ATOM     21  C   UNL     1      -0.519  10.732  20.679  0.00  0.00    +0.000 A 
ATOM     22  C   UNL     1       0.149   9.944  19.738  0.00  0.00    +0.000 A 
ATOM     23  C   UNL     1       0.976   8.879  20.134  0.00  0.00    +0.000 A 
ATOM     24  C   UNL     1       1.120   8.618  21.500  0.00  0.00    +0.000 A 
ATOM     25  C   UNL     1       0.450   9.414  22.444  0.00  0.00    +0.000 A 
ENDBRANCH  15  23
ENDBRANCH   1  17
TORSDOF 2
ENDMDL
MODEL 8
REMARK VINA RESULT:      -6.8      6.492      8.932
REMARK  Name = 
REMARK  3 active torsions:
REMARK  status: ('A' for Active; 'I' for Inactive)
REMARK    1  A    between atoms: C_1  and  C_2
REMARK    2  A    between atoms: C_5  and  C_6
REMARK    3  A    between atoms: N_8  and  N_9
REMARK                            x       y       z     vdW  Elec       q    Type
REMARK                         _______ _______ _______ _____ _____    ______ ____
ROOT
ATOM      1  N   UNL     1       0.155  11.187  18.638  0.00  0.00    +0.000 N 
ATOM      2  C   UNL     1      -1.207  11.057  18.691  0.00  0.00    +0.000 C 
ATOM      3  O   UNL     1      -1.863  10.070  18.385  0.00  0.00    +0.000 OA
ATOM      4  C   UNL     1      -1.781  12.346  19.217  0.00  0.00    +0.000 C 
ATOM      5  C   UNL     1      -0.515  13.235  19.464  0.00  0.00    +0.000 C 
ATOM      6  C   UNL     1       0.618  12.245  19.381  0.00  0.00    +0.000 C 
ATOM      7  O   UNL     1       1.695  12.364  19.950  0.00  0.00    +0.000 OA
ATOM      8  C   UNL     1      -0.743  13.774  20.884  0.00  0.00    +0.000 C 
ATOM      9  C   UNL     1      -2.038  14.608  20.840  0.00  0.00    +0.000 C 
ATOM     10  C   UNL     1      -3.069  13.743  20.709  0.00  0.00    +0.000 C 
ATOM     11  C   UNL     1      -2.471  12.347  20.614  0.00  0.00    +0.000 C 
ATOM     12  C   UNL     1      -1.296  12.541  21.558  0.00  0.00    +0.000 C 
ATOM     13  C   UNL     1      -1.396  12.567  23.070  0.00  0.00    +0.000 C 
ATOM     14  C   UNL     1      -0.622  11.473  22.381  0.00  0.00    +0.000 C 
ENDROOT
BRANCH   1  17
ATOM     15  C   UNL     1       1.273   9.149  19.171  0.00  0.00    +0.000 C 
ATOM     16  O   UNL     1       0.796   9.155  20.305  0.00  0.00    +0.000 OA
ATOM     17  N   UNL     1       0.981  10.125  18.230  0.00  0.00    +0.000 N 
ATOM     18  H   UNL     1       1.559  10.302  17.416  0.00  0.00    +0.000 HD
BRANCH  15  23
ATOM     19  C   UNL     1       4.881   4.731  17.967  0.00  0.00    +0.000 C 
ATOM     20  C   UNL     1       3.952   5.875  18.261  0.00  0.00    +0.000 A 
ATOM     21  C   UNL     1       3.151   5.870  19.403  0.00  0.00    +0.000 A 
ATOM     22  C   UNL     1       2.294   6.942  19.666  0.00  0.00    +0.000 A 
ATOM     23  C   UNL     1       2.212   8.042  18.795  0.00  0.00    +0.000 A 
ATOM     24  C   UNL     1       3.013   8.046  17.649  0.00  0.00    +0.000 A 
ATOM     25  C   UNL     1       3.877   6.969  17.389  0.00  0.00    +0.000 A 
ENDBRANCH  15  23
ENDBRANCH   1  17
TORSDOF 2
ENDMDL
MODEL 9
REMARK VINA RESULT:      -6.6      3.452      9.331
REMARK  Name = 
REMARK  3 active torsions:
REMARK  status: ('A' for Active; 'I' for Inactive)
REMARK    1  A    between atoms: C_1  and  C_2
REMARK    2  A    between atoms: C_5  and  C_6
REMARK    3  A    between atoms: N_8  and  N_9
REMARK                            x       y       z     vdW  Elec       q    Type
REMARK                         _______ _______ _______ _____ _____    ______ ____
ROOT
ATOM      1  N   UNL     1      10.236  11.225  19.952  0.00  0.00    +0.000 N 
ATOM      2  C   UNL     1      11.177  11.802  19.142  0.00  0.00    +0.000 C 
ATOM      3  O   UNL     1      11.707  11.300  18.159  0.00  0.00    +0.000 OA
ATOM      4  C   UNL     1      11.448  13.193  19.654  0.00  0.00    +0.000 C 
ATOM      5  C   UNL     1      10.495  13.318  20.891  0.00  0.00    +0.000 C 
ATOM      6  C   UNL     1       9.568  12.141  20.727  0.00  0.00    +0.000 C 
ATOM      7  O   UNL     1       8.421  12.090  21.150  0.00  0.00    +0.000 OA
ATOM      8  C   UNL     1       9.804  14.668  20.659  0.00  0.00    +0.000 C 
ATOM      9  C   UNL     1      10.910  15.742  20.668  0.00  0.00    +0.000 C 
ATOM     10  C   UNL     1      11.618  15.598  19.524  0.00  0.00    +0.000 C 
ATOM     11  C   UNL     1      11.027  14.411  18.779  0.00  0.00    +0.000 C 
ATOM     12  C   UNL     1       9.570  14.604  19.168  0.00  0.00    +0.000 C 
ATOM     13  C   UNL     1       8.644  15.642  18.569  0.00  0.00    +0.000 C 
ATOM     14  C   UNL     1       8.365  14.174  18.371  0.00  0.00    +0.000 C 
ENDROOT
BRANCH   1  17
ATOM     15  C   UNL     1       8.847   9.793  18.645  0.00  0.00    +0.000 C 
ATOM     16  O   UNL     1       8.535  10.727  17.908  0.00  0.00    +0.000 OA
ATOM     17  N   UNL     1       9.737   9.935  19.700  0.00  0.00    +0.000 N 
ATOM     18  H   UNL     1       9.792   9.281  20.472  0.00  0.00    +0.000 HD
BRANCH  15  23
ATOM     19  C   UNL     1       6.291   4.684  17.485  0.00  0.00    +0.000 C 
ATOM     20  C   UNL     1       6.962   5.992  17.793  0.00  0.00    +0.000 A 
ATOM     21  C   UNL     1       6.683   7.134  17.040  0.00  0.00    +0.000 A 
ATOM     22  C   UNL     1       7.312   8.345  17.339  0.00  0.00    +0.000 A 
ATOM     23  C   UNL     1       8.236   8.447  18.394  0.00  0.00    +0.000 A 
ATOM     24  C   UNL     1       8.517   7.303  19.147  0.00  0.00    +0.000 A 
ATOM     25  C   UNL     1       7.880   6.087  18.847  0.00  0.00    +0.000 A 
ENDBRANCH  15  23
ENDBRANCH   1  17
TORSDOF 2
ENDMDL
