MODEL 1
REMARK VINA RESULT:      -6.9      0.000      0.000
REMARK  Name = 
REMARK  9 active torsions:
REMARK  status: ('A' for Active; 'I' for Inactive)
REMARK    1  A    between atoms: C_1  and  O_2
REMARK    2  A    between atoms: O_2  and  C_3
REMARK    3  A    between atoms: C_6  and  S_7
REMARK    4  A    between atoms: S_7  and  N_10
REMARK    5  A    between atoms: N_10  and  C_11
REMARK    6  A    between atoms: C_11  and  C_12
REMARK    7  A    between atoms: C_12  and  C_13
REMARK    8  A    between atoms: C_15  and  C_16
REMARK    9  A    between atoms: C_18  and  C_19
REMARK                            x       y       z     vdW  Elec       q    Type
REMARK                         _______ _______ _______ _____ _____    ______ ____
ROOT
ATOM      1  S   UNL     1       3.189   2.709  18.135  0.00  0.00    +0.000 S 
ATOM      2  O   UNL     1       2.100   2.851  17.197  0.00  0.00    +0.000 OA
ATOM      3  O   UNL     1       3.765   1.430  18.470  0.00  0.00    +0.000 OA
ENDROOT
BRANCH   1   7
ATOM      4  C   UNL     1       6.497   5.589  16.865  0.00  0.00    +0.000 A 
ATOM      5  C   UNL     1       6.420   5.135  18.186  0.00  0.00    +0.000 A 
ATOM      6  C   UNL     1       5.437   4.222  18.569  0.00  0.00    +0.000 A 
ATOM      7  C   UNL     1       4.511   3.773  17.619  0.00  0.00    +0.000 A 
ATOM      8  C   UNL     1       4.579   4.205  16.298  0.00  0.00    +0.000 A 
ATOM      9  C   UNL     1       5.574   5.107  15.929  0.00  0.00    +0.000 A 
ATOM     10  F   UNL     1       5.598   5.500  14.648  0.00  0.00    +0.000 F 
BRANCH   4  12
ATOM     11  C   UNL     1       7.613   7.569  17.561  0.00  0.00    +0.000 C 
ATOM     12  O   UNL     1       7.503   6.492  16.639  0.00  0.00    +0.000 OA
ENDBRANCH   4  12
ENDBRANCH   1   7
BRANCH   1  13
ATOM     13  N   UNL     1       2.710   3.428  19.586  0.00  0.00    +0.000 NA
ATOM     14  H   UNL     1       3.413   3.323  20.316  0.00  0.00    +0.000 HD
BRANCH  13  15
ATOM     15  C   UNL     1       1.950   4.684  19.512  0.00  0.00    +0.000 C 
BRANCH  15  16
ATOM     16  C   UNL     1       2.689   5.796  20.256  0.00  0.00    +0.000 C 
BRANCH  16  17
ATOM     17  C   UNL     1       2.138   7.140  19.891  0.00  0.00    +0.000 A 
ATOM     18  S   UNL     1       1.139   8.012  20.982  0.00  0.00    +0.000 S 
ATOM     19  C   UNL     1       1.026   9.293  19.846  0.00  0.00    +0.000 A 
ATOM     20  C   UNL     1       0.231  10.515  20.146  0.00  0.00    +0.000 C 
ATOM     21  N   UNL     1       1.685   9.107  18.724  0.00  0.00    +0.000 NA
ATOM     22  C   UNL     1       2.325   7.879  18.735  0.00  0.00    +0.000 A 
ATOM     23  C   UNL     1       3.128   7.487  17.548  0.00  0.00    +0.000 C 
ENDBRANCH  16  17
ENDBRANCH  15  16
ENDBRANCH  13  15
ENDBRANCH   1  13
TORSDOF 6
ENDMDL
MODEL 2
REMARK VINA RESULT:      -6.6      1.672      2.153
REMARK  Name = 
REMARK  9 active torsions:
REMARK  status: ('A' for Active; 'I' for Inactive)
REMARK    1  A    between atoms: C_1  and  O_2
REMARK    2  A    between atoms: O_2  and  C_3
REMARK    3  A    between atoms: C_6  and  S_7
REMARK    4  A    between atoms: S_7  and  N_10
REMARK    5  A    between atoms: N_10  and  C_11
REMARK    6  A    between atoms: C_11  and  C_12
REMARK    7  A    between atoms: C_12  and  C_13
REMARK    8  A    between atoms: C_15  and  C_16
REMARK    9  A    between atoms: C_18  and  C_19
REMARK                            x       y       z     vdW  Elec       q    Type
REMARK                         _______ _______ _______ _____ _____    ______ ____
ROOT
ATOM      1  S   UNL     1       4.084   3.296  19.062  0.00  0.00    +0.000 S 
ATOM      2  O   UNL     1       3.002   2.623  18.381  0.00  0.00    +0.000 OA
ATOM      3  O   UNL     1       4.951   2.623  19.998  0.00  0.00    +0.000 OA
ENDROOT
BRANCH   1   7
ATOM      4  C   UNL     1       6.837   5.146  15.923  0.00  0.00    +0.000 A 
ATOM      5  C   UNL     1       5.820   4.263  15.543  0.00  0.00    +0.000 A 
ATOM      6  C   UNL     1       4.949   3.728  16.494  0.00  0.00    +0.000 A 
ATOM      7  C   UNL     1       5.112   4.071  17.842  0.00  0.00    +0.000 A 
ATOM      8  C   UNL     1       6.110   4.957  18.237  0.00  0.00    +0.000 A 
ATOM      9  C   UNL     1       6.963   5.491  17.274  0.00  0.00    +0.000 A 
ATOM     10  F   UNL     1       7.914   6.334  17.700  0.00  0.00    +0.000 F 
BRANCH   4  12
ATOM     11  C   UNL     1       7.378   4.992  13.614  0.00  0.00    +0.000 C 
ATOM     12  O   UNL     1       7.621   5.579  14.887  0.00  0.00    +0.000 OA
ENDBRANCH   4  12
ENDBRANCH   1   7
BRANCH   1  13
ATOM     13  N   UNL     1       3.431   4.630  19.865  0.00  0.00    +0.000 NA
ATOM     14  H   UNL     1       4.141   5.158  20.370  0.00  0.00    +0.000 HD
BRANCH  13  15
ATOM     15  C   UNL     1       2.340   5.362  19.206  0.00  0.00    +0.000 C 
BRANCH  15  16
ATOM     16  C   UNL     1       2.790   6.779  18.852  0.00  0.00    +0.000 C 
BRANCH  16  17
ATOM     17  C   UNL     1       1.946   7.798  19.554  0.00  0.00    +0.000 A 
ATOM     18  S   UNL     1       1.348   7.512  21.137  0.00  0.00    +0.000 S 
ATOM     19  C   UNL     1       0.601   9.057  21.128  0.00  0.00    +0.000 A 
ATOM     20  C   UNL     1      -0.180   9.536  22.301  0.00  0.00    +0.000 C 
ATOM     21  N   UNL     1       0.777   9.757  20.031  0.00  0.00    +0.000 NA
ATOM     22  C   UNL     1       1.542   9.050  19.120  0.00  0.00    +0.000 A 
ATOM     23  C   UNL     1       1.854   9.682  17.813  0.00  0.00    +0.000 C 
ENDBRANCH  16  17
ENDBRANCH  15  16
ENDBRANCH  13  15
ENDBRANCH   1  13
TORSDOF 6
ENDMDL
MODEL 3
REMARK VINA RESULT:      -6.6      2.770      5.161
REMARK  Name = 
REMARK  9 active torsions:
REMARK  status: ('A' for Active; 'I' for Inactive)
REMARK    1  A    between atoms: C_1  and  O_2
REMARK    2  A    between atoms: O_2  and  C_3
REMARK    3  A    between atoms: C_6  and  S_7
REMARK    4  A    between atoms: S_7  and  N_10
REMARK    5  A    between atoms: N_10  and  C_11
REMARK    6  A    between atoms: C_11  and  C_12
REMARK    7  A    between atoms: C_12  and  C_13
REMARK    8  A    between atoms: C_15  and  C_16
REMARK    9  A    between atoms: C_18  and  C_19
REMARK                            x       y       z     vdW  Elec       q    Type
REMARK                         _______ _______ _______ _____ _____    ______ ____
ROOT
ATOM      1  S   UNL     1       2.076   3.042  18.589  0.00  0.00    +0.000 S 
ATOM      2  O   UNL     1       1.116   2.322  19.393  0.00  0.00    +0.000 OA
ATOM      3  O   UNL     1       2.042   3.035  17.147  0.00  0.00    +0.000 OA
ENDROOT
BRANCH   1   7
ATOM      4  C   UNL     1       1.927   7.408  19.917  0.00  0.00    +0.000 A 
ATOM      5  C   UNL     1       1.626   6.381  20.819  0.00  0.00    +0.000 A 
ATOM      6  C   UNL     1       1.712   5.043  20.429  0.00  0.00    +0.000 A 
ATOM      7  C   UNL     1       2.087   4.735  19.116  0.00  0.00    +0.000 A 
ATOM      8  C   UNL     1       2.400   5.742  18.209  0.00  0.00    +0.000 A 
ATOM      9  C   UNL     1       2.322   7.072  18.617  0.00  0.00    +0.000 A 
ATOM     10  F   UNL     1       2.626   8.009  17.709  0.00  0.00    +0.000 F 
BRANCH   4  12
ATOM     11  C   UNL     1       1.031   8.785  21.635  0.00  0.00    +0.000 C 
ATOM     12  O   UNL     1       1.786   8.668  20.435  0.00  0.00    +0.000 OA
ENDBRANCH   4  12
ENDBRANCH   1   7
BRANCH   1  13
ATOM     13  N   UNL     1       3.616   2.525  19.048  0.00  0.00    +0.000 NA
ATOM     14  H   UNL     1       3.805   1.570  18.746  0.00  0.00    +0.000 HD
BRANCH  13  15
ATOM     15  C   UNL     1       4.709   3.507  19.014  0.00  0.00    +0.000 C 
BRANCH  15  16
ATOM     16  C   UNL     1       5.290   3.607  17.604  0.00  0.00    +0.000 C 
BRANCH  16  17
ATOM     17  C   UNL     1       6.050   4.885  17.428  0.00  0.00    +0.000 A 
ATOM     18  S   UNL     1       6.830   5.640  18.758  0.00  0.00    +0.000 S 
ATOM     19  C   UNL     1       7.395   6.879  17.715  0.00  0.00    +0.000 A 
ATOM     20  C   UNL     1       8.227   7.998  18.237  0.00  0.00    +0.000 C 
ATOM     21  N   UNL     1       7.043   6.757  16.456  0.00  0.00    +0.000 NA
ATOM     22  C   UNL     1       6.272   5.621  16.276  0.00  0.00    +0.000 A 
ATOM     23  C   UNL     1       5.778   5.308  14.911  0.00  0.00    +0.000 C 
ENDBRANCH  16  17
ENDBRANCH  15  16
ENDBRANCH  13  15
ENDBRANCH   1  13
TORSDOF 6
ENDMDL
MODEL 4
REMARK VINA RESULT:      -6.5      1.490      1.777
REMARK  Name = 
REMARK  9 active torsions:
REMARK  status: ('A' for Active; 'I' for Inactive)
REMARK    1  A    between atoms: C_1  and  O_2
REMARK    2  A    between atoms: O_2  and  C_3
REMARK    3  A    between atoms: C_6  and  S_7
REMARK    4  A    between atoms: S_7  and  N_10
REMARK    5  A    between atoms: N_10  and  C_11
REMARK    6  A    between atoms: C_11  and  C_12
REMARK    7  A    between atoms: C_12  and  C_13
REMARK    8  A    between atoms: C_15  and  C_16
REMARK    9  A    between atoms: C_18  and  C_19
REMARK                            x       y       z     vdW  Elec       q    Type
REMARK                         _______ _______ _______ _____ _____    ______ ____
ROOT
ATOM      1  S   UNL     1       2.794   4.150  19.181  0.00  0.00    +0.000 S 
ATOM      2  O   UNL     1       1.610   4.405  18.393  0.00  0.00    +0.000 OA
ATOM      3  O   UNL     1       3.219   2.818  19.537  0.00  0.00    +0.000 OA
ENDROOT
BRANCH   1   7
ATOM      4  C   UNL     1       6.281   6.388  17.261  0.00  0.00    +0.000 A 
ATOM      5  C   UNL     1       6.402   5.856  18.549  0.00  0.00    +0.000 A 
ATOM      6  C   UNL     1       5.354   5.134  19.123  0.00  0.00    +0.000 A 
ATOM      7  C   UNL     1       4.167   4.960  18.403  0.00  0.00    +0.000 A 
ATOM      8  C   UNL     1       4.032   5.471  17.116  0.00  0.00    +0.000 A 
ATOM      9  C   UNL     1       5.091   6.179  16.552  0.00  0.00    +0.000 A 
ATOM     10  F   UNL     1       4.915   6.659  15.314  0.00  0.00    +0.000 F 
BRANCH   4  12
ATOM     11  C   UNL     1       7.883   8.086  17.708  0.00  0.00    +0.000 C 
ATOM     12  O   UNL     1       7.382   7.081  16.834  0.00  0.00    +0.000 OA
ENDBRANCH   4  12
ENDBRANCH   1   7
BRANCH   1  13
ATOM     13  N   UNL     1       2.647   5.021  20.620  0.00  0.00    +0.000 NA
ATOM     14  H   UNL     1       3.547   5.162  21.076  0.00  0.00    +0.000 HD
BRANCH  13  15
ATOM     15  C   UNL     1       1.651   6.101  20.671  0.00  0.00    +0.000 C 
BRANCH  15  16
ATOM     16  C   UNL     1       2.220   7.377  20.050  0.00  0.00    +0.000 C 
BRANCH  16  17
ATOM     17  C   UNL     1       1.357   8.557  20.370  0.00  0.00    +0.000 A 
ATOM     18  S   UNL     1       0.883   8.894  21.985  0.00  0.00    +0.000 S 
ATOM     19  C   UNL     1       0.035  10.283  21.441  0.00  0.00    +0.000 A 
ATOM     20  C   UNL     1      -0.699  11.155  22.398  0.00  0.00    +0.000 C 
ATOM     21  N   UNL     1       0.092  10.503  20.147  0.00  0.00    +0.000 NA
ATOM     22  C   UNL     1       0.844   9.524  19.521  0.00  0.00    +0.000 A 
ATOM     23  C   UNL     1       1.027   9.603  18.049  0.00  0.00    +0.000 C 
ENDBRANCH  16  17
ENDBRANCH  15  16
ENDBRANCH  13  15
ENDBRANCH   1  13
TORSDOF 6
ENDMDL
MODEL 5
REMARK VINA RESULT:      -6.5      3.656      6.727
REMARK  Name = 
REMARK  9 active torsions:
REMARK  status: ('A' for Active; 'I' for Inactive)
REMARK    1  A    between atoms: C_1  and  O_2
REMARK    2  A    between atoms: O_2  and  C_3
REMARK    3  A    between atoms: C_6  and  S_7
REMARK    4  A    between atoms: S_7  and  N_10
REMARK    5  A    between atoms: N_10  and  C_11
REMARK    6  A    between atoms: C_11  and  C_12
REMARK    7  A    between atoms: C_12  and  C_13
REMARK    8  A    between atoms: C_15  and  C_16
REMARK    9  A    between atoms: C_18  and  C_19
REMARK                            x       y       z     vdW  Elec       q    Type
REMARK                         _______ _______ _______ _____ _____    ______ ____
ROOT
ATOM      1  S   UNL     1       3.061   6.586  18.170  0.00  0.00    +0.000 S 
ATOM      2  O   UNL     1       2.200   5.458  17.900  0.00  0.00    +0.000 OA
ATOM      3  O   UNL     1       3.931   7.156  17.171  0.00  0.00    +0.000 OA
ENDROOT
BRANCH   1   7
ATOM      4  C   UNL     1       0.653  10.066  19.887  0.00  0.00    +0.000 A 
ATOM      5  C   UNL     1       1.018  10.053  18.535  0.00  0.00    +0.000 A 
ATOM      6  C   UNL     1       1.717   8.972  17.997  0.00  0.00    +0.000 A 
ATOM      7  C   UNL     1       2.067   7.900  18.827  0.00  0.00    +0.000 A 
ATOM      8  C   UNL     1       1.703   7.890  20.170  0.00  0.00    +0.000 A 
ATOM      9  C   UNL     1       0.995   8.971  20.689  0.00  0.00    +0.000 A 
ATOM     10  F   UNL     1       0.670   8.922  21.989  0.00  0.00    +0.000 F 
BRANCH   4  12
ATOM     11  C   UNL     1       0.748  12.191  20.947  0.00  0.00    +0.000 C 
ATOM     12  O   UNL     1      -0.016  11.195  20.277  0.00  0.00    +0.000 OA
ENDBRANCH   4  12
ENDBRANCH   1   7
BRANCH   1  13
ATOM     13  N   UNL     1       4.028   6.186  19.495  0.00  0.00    +0.000 NA
ATOM     14  H   UNL     1       3.645   6.541  20.370  0.00  0.00    +0.000 HD
BRANCH  13  15
ATOM     15  C   UNL     1       4.688   4.872  19.492  0.00  0.00    +0.000 C 
BRANCH  15  16
ATOM     16  C   UNL     1       6.197   5.037  19.317  0.00  0.00    +0.000 C 
BRANCH  16  17
ATOM     17  C   UNL     1       6.551   5.210  17.873  0.00  0.00    +0.000 A 
ATOM     18  S   UNL     1       6.046   4.068  16.695  0.00  0.00    +0.000 S 
ATOM     19  C   UNL     1       6.804   5.002  15.472  0.00  0.00    +0.000 A 
ATOM     20  C   UNL     1       6.770   4.570  14.048  0.00  0.00    +0.000 C 
ATOM     21  N   UNL     1       7.396   6.097  15.889  0.00  0.00    +0.000 NA
ATOM     22  C   UNL     1       7.262   6.230  17.261  0.00  0.00    +0.000 A 
ATOM     23  C   UNL     1       7.865   7.415  17.922  0.00  0.00    +0.000 C 
ENDBRANCH  16  17
ENDBRANCH  15  16
ENDBRANCH  13  15
ENDBRANCH   1  13
TORSDOF 6
ENDMDL
MODEL 6
REMARK VINA RESULT:      -6.5      2.957      5.430
REMARK  Name = 
REMARK  9 active torsions:
REMARK  status: ('A' for Active; 'I' for Inactive)
REMARK    1  A    between atoms: C_1  and  O_2
REMARK    2  A    between atoms: O_2  and  C_3
REMARK    3  A    between atoms: C_6  and  S_7
REMARK    4  A    between atoms: S_7  and  N_10
REMARK    5  A    between atoms: N_10  and  C_11
REMARK    6  A    between atoms: C_11  and  C_12
REMARK    7  A    between atoms: C_12  and  C_13
REMARK    8  A    between atoms: C_15  and  C_16
REMARK    9  A    between atoms: C_18  and  C_19
REMARK                            x       y       z     vdW  Elec       q    Type
REMARK                         _______ _______ _______ _____ _____    ______ ____
ROOT
ATOM      1  S   UNL     1       1.662   2.760  18.958  0.00  0.00    +0.000 S 
ATOM      2  O   UNL     1       2.503   2.016  19.868  0.00  0.00    +0.000 OA
ATOM      3  O   UNL     1       0.255   2.485  18.800  0.00  0.00    +0.000 OA
ENDROOT
BRANCH   1   7
ATOM      4  C   UNL     1       1.922   7.223  19.888  0.00  0.00    +0.000 A 
ATOM      5  C   UNL     1       1.616   6.304  20.898  0.00  0.00    +0.000 A 
ATOM      6  C   UNL     1       1.577   4.935  20.627  0.00  0.00    +0.000 A 
ATOM      7  C   UNL     1       1.832   4.486  19.326  0.00  0.00    +0.000 A 
ATOM      8  C   UNL     1       2.150   5.384  18.312  0.00  0.00    +0.000 A 
ATOM      9  C   UNL     1       2.196   6.746  18.600  0.00  0.00    +0.000 A 
ATOM     10  F   UNL     1       2.499   7.575  17.592  0.00  0.00    +0.000 F 
BRANCH   4  12
ATOM     11  C   UNL     1       1.020   8.861  21.355  0.00  0.00    +0.000 C 
ATOM     12  O   UNL     1       1.910   8.530  20.296  0.00  0.00    +0.000 OA
ENDBRANCH   4  12
ENDBRANCH   1   7
BRANCH   1  13
ATOM     13  N   UNL     1       2.359   2.661  17.424  0.00  0.00    +0.000 NA
ATOM     14  H   UNL     1       1.862   3.231  16.740  0.00  0.00    +0.000 HD
BRANCH  13  15
ATOM     15  C   UNL     1       3.824   2.570  17.339  0.00  0.00    +0.000 C 
BRANCH  15  16
ATOM     16  C   UNL     1       4.360   3.581  16.325  0.00  0.00    +0.000 C 
BRANCH  16  17
ATOM     17  C   UNL     1       5.561   4.293  16.865  0.00  0.00    +0.000 A 
ATOM     18  S   UNL     1       5.741   4.572  18.550  0.00  0.00    +0.000 S 
ATOM     19  C   UNL     1       7.249   5.335  18.257  0.00  0.00    +0.000 A 
ATOM     20  C   UNL     1       8.059   5.885  19.378  0.00  0.00    +0.000 C 
ATOM     21  N   UNL     1       7.616   5.386  16.997  0.00  0.00    +0.000 NA
ATOM     22  C   UNL     1       6.660   4.795  16.188  0.00  0.00    +0.000 A 
ATOM     23  C   UNL     1       6.899   4.752  14.723  0.00  0.00    +0.000 C 
ENDBRANCH  16  17
ENDBRANCH  15  16
ENDBRANCH  13  15
ENDBRANCH   1  13
TORSDOF 6
ENDMDL
MODEL 7
REMARK VINA RESULT:      -6.4      3.264      6.413
REMARK  Name = 
REMARK  9 active torsions:
REMARK  status: ('A' for Active; 'I' for Inactive)
REMARK    1  A    between atoms: C_1  and  O_2
REMARK    2  A    between atoms: O_2  and  C_3
REMARK    3  A    between atoms: C_6  and  S_7
REMARK    4  A    between atoms: S_7  and  N_10
REMARK    5  A    between atoms: N_10  and  C_11
REMARK    6  A    between atoms: C_11  and  C_12
REMARK    7  A    between atoms: C_12  and  C_13
REMARK    8  A    between atoms: C_15  and  C_16
REMARK    9  A    between atoms: C_18  and  C_19
REMARK                            x       y       z     vdW  Elec       q    Type
REMARK                         _______ _______ _______ _____ _____    ______ ____
ROOT
ATOM      1  S   UNL     1       2.414   5.447  19.875  0.00  0.00    +0.000 S 
ATOM      2  O   UNL     1       2.182   4.952  21.212  0.00  0.00    +0.000 OA
ATOM      3  O   UNL     1       1.868   4.806  18.704  0.00  0.00    +0.000 OA
ENDROOT
BRANCH   1   7
ATOM      4  C   UNL     1       1.015   9.791  19.693  0.00  0.00    +0.000 A 
ATOM      5  C   UNL     1       0.803   9.025  20.845  0.00  0.00    +0.000 A 
ATOM      6  C   UNL     1       1.267   7.710  20.920  0.00  0.00    +0.000 A 
ATOM      7  C   UNL     1       1.935   7.154  19.823  0.00  0.00    +0.000 A 
ATOM      8  C   UNL     1       2.164   7.905  18.674  0.00  0.00    +0.000 A 
ATOM      9  C   UNL     1       1.706   9.219  18.618  0.00  0.00    +0.000 A 
ATOM     10  F   UNL     1       1.944   9.902  17.490  0.00  0.00    +0.000 F 
BRANCH   4  12
ATOM     11  C   UNL     1      -0.786  11.250  19.167  0.00  0.00    +0.000 C 
ATOM     12  O   UNL     1       0.494  11.056  19.756  0.00  0.00    +0.000 OA
ENDBRANCH   4  12
ENDBRANCH   1   7
BRANCH   1  13
ATOM     13  N   UNL     1       4.084   5.548  19.650  0.00  0.00    +0.000 NA
ATOM     14  H   UNL     1       4.523   6.182  20.315  0.00  0.00    +0.000 HD
BRANCH  13  15
ATOM     15  C   UNL     1       4.799   4.324  19.261  0.00  0.00    +0.000 C 
BRANCH  15  16
ATOM     16  C   UNL     1       6.280   4.626  19.028  0.00  0.00    +0.000 C 
BRANCH  16  17
ATOM     17  C   UNL     1       6.550   4.888  17.580  0.00  0.00    +0.000 A 
ATOM     18  S   UNL     1       6.061   3.770  16.372  0.00  0.00    +0.000 S 
ATOM     19  C   UNL     1       6.697   4.806  15.162  0.00  0.00    +0.000 A 
ATOM     20  C   UNL     1       6.620   4.439  13.722  0.00  0.00    +0.000 C 
ATOM     21  N   UNL     1       7.239   5.918  15.605  0.00  0.00    +0.000 NA
ATOM     22  C   UNL     1       7.164   5.978  16.986  0.00  0.00    +0.000 A 
ATOM     23  C   UNL     1       7.723   7.169  17.676  0.00  0.00    +0.000 C 
ENDBRANCH  16  17
ENDBRANCH  15  16
ENDBRANCH  13  15
ENDBRANCH   1  13
TORSDOF 6
ENDMDL
MODEL 8
REMARK VINA RESULT:      -6.3      2.848      5.864
REMARK  Name = 
REMARK  9 active torsions:
REMARK  status: ('A' for Active; 'I' for Inactive)
REMARK    1  A    between atoms: C_1  and  O_2
REMARK    2  A    between atoms: O_2  and  C_3
REMARK    3  A    between atoms: C_6  and  S_7
REMARK    4  A    between atoms: S_7  and  N_10
REMARK    5  A    between atoms: N_10  and  C_11
REMARK    6  A    between atoms: C_11  and  C_12
REMARK    7  A    between atoms: C_12  and  C_13
REMARK    8  A    between atoms: C_15  and  C_16
REMARK    9  A    between atoms: C_18  and  C_19
REMARK                            x       y       z     vdW  Elec       q    Type
REMARK                         _______ _______ _______ _____ _____    ______ ____
ROOT
ATOM      1  S   UNL     1       2.152   3.265  18.955  0.00  0.00    +0.000 S 
ATOM      2  O   UNL     1       2.974   2.629  19.959  0.00  0.00    +0.000 OA
ATOM      3  O   UNL     1       0.805   2.837  18.668  0.00  0.00    +0.000 OA
ENDROOT
BRANCH   1   7
ATOM      4  C   UNL     1       1.837   7.739  19.814  0.00  0.00    +0.000 A 
ATOM      5  C   UNL     1       1.584   6.803  20.823  0.00  0.00    +0.000 A 
ATOM      6  C   UNL     1       1.721   5.436  20.577  0.00  0.00    +0.000 A 
ATOM      7  C   UNL     1       2.099   5.005  19.300  0.00  0.00    +0.000 A 
ATOM      8  C   UNL     1       2.366   5.921  18.287  0.00  0.00    +0.000 A 
ATOM      9  C   UNL     1       2.237   7.282  18.552  0.00  0.00    +0.000 A 
ATOM     10  F   UNL     1       2.497   8.128  17.546  0.00  0.00    +0.000 F 
BRANCH   4  12
ATOM     11  C   UNL     1       0.557   9.300  21.069  0.00  0.00    +0.000 C 
ATOM     12  O   UNL     1       1.650   9.041  20.196  0.00  0.00    +0.000 OA
ENDBRANCH   4  12
ENDBRANCH   1   7
BRANCH   1  13
ATOM     13  N   UNL     1       3.004   3.226  17.498  0.00  0.00    +0.000 NA
ATOM     14  H   UNL     1       2.694   3.951  16.854  0.00  0.00    +0.000 HD
BRANCH  13  15
ATOM     15  C   UNL     1       4.433   2.885  17.547  0.00  0.00    +0.000 C 
BRANCH  15  16
ATOM     16  C   UNL     1       5.258   4.113  17.933  0.00  0.00    +0.000 C 
BRANCH  16  17
ATOM     17  C   UNL     1       6.074   4.593  16.774  0.00  0.00    +0.000 A 
ATOM     18  S   UNL     1       5.917   3.875  15.222  0.00  0.00    +0.000 S 
ATOM     19  C   UNL     1       7.085   4.967  14.603  0.00  0.00    +0.000 A 
ATOM     20  C   UNL     1       7.494   4.921  13.172  0.00  0.00    +0.000 C 
ATOM     21  N   UNL     1       7.571   5.822  15.475  0.00  0.00    +0.000 NA
ATOM     22  C   UNL     1       7.003   5.619  16.721  0.00  0.00    +0.000 A 
ATOM     23  C   UNL     1       7.425   6.496  17.844  0.00  0.00    +0.000 C 
ENDBRANCH  16  17
ENDBRANCH  15  16
ENDBRANCH  13  15
ENDBRANCH   1  13
TORSDOF 6
ENDMDL
MODEL 9
REMARK VINA RESULT:      -6.3      1.931      2.680
REMARK  Name = 
REMARK  9 active torsions:
REMARK  status: ('A' for Active; 'I' for Inactive)
REMARK    1  A    between atoms: C_1  and  O_2
REMARK    2  A    between atoms: O_2  and  C_3
REMARK    3  A    between atoms: C_6  and  S_7
REMARK    4  A    between atoms: S_7  and  N_10
REMARK    5  A    between atoms: N_10  and  C_11
REMARK    6  A    between atoms: C_11  and  C_12
REMARK    7  A    between atoms: C_12  and  C_13
REMARK    8  A    between atoms: C_15  and  C_16
REMARK    9  A    between atoms: C_18  and  C_19
REMARK                            x       y       z     vdW  Elec       q    Type
REMARK                         _______ _______ _______ _____ _____    ______ ____
ROOT
ATOM      1  S   UNL     1       2.814   4.594  19.432  0.00  0.00    +0.000 S 
ATOM      2  O   UNL     1       1.702   4.571  18.510  0.00  0.00    +0.000 OA
ATOM      3  O   UNL     1       3.263   3.419  20.137  0.00  0.00    +0.000 OA
ENDROOT
BRANCH   1   7
ATOM      4  C   UNL     1       6.403   6.526  17.373  0.00  0.00    +0.000 A 
ATOM      5  C   UNL     1       6.550   5.898  18.615  0.00  0.00    +0.000 A 
ATOM      6  C   UNL     1       5.465   5.269  19.228  0.00  0.00    +0.000 A 
ATOM      7  C   UNL     1       4.217   5.285  18.595  0.00  0.00    +0.000 A 
ATOM      8  C   UNL     1       4.054   5.894  17.355  0.00  0.00    +0.000 A 
ATOM      9  C   UNL     1       5.150   6.507  16.750  0.00  0.00    +0.000 A 
ATOM     10  F   UNL     1       4.946   7.086  15.559  0.00  0.00    +0.000 F 
BRANCH   4  12
ATOM     11  C   UNL     1       7.954   8.320  17.531  0.00  0.00    +0.000 C 
ATOM     12  O   UNL     1       7.548   7.111  16.901  0.00  0.00    +0.000 OA
ENDBRANCH   4  12
ENDBRANCH   1   7
BRANCH   1  13
ATOM     13  N   UNL     1       2.488   5.772  20.596  0.00  0.00    +0.000 NA
ATOM     14  H   UNL     1       3.197   5.795  21.327  0.00  0.00    +0.000 HD
BRANCH  13  15
ATOM     15  C   UNL     1       1.897   7.040  20.143  0.00  0.00    +0.000 C 
BRANCH  15  16
ATOM     16  C   UNL     1       1.401   7.851  21.340  0.00  0.00    +0.000 C 
BRANCH  16  17
ATOM     17  C   UNL     1       0.733   9.113  20.891  0.00  0.00    +0.000 A 
ATOM     18  S   UNL     1       0.916   9.686  19.283  0.00  0.00    +0.000 S 
ATOM     19  C   UNL     1      -0.107  11.014  19.645  0.00  0.00    +0.000 A 
ATOM     20  C   UNL     1      -0.428  12.037  18.612  0.00  0.00    +0.000 C 
ATOM     21  N   UNL     1      -0.569  11.047  20.874  0.00  0.00    +0.000 NA
ATOM     22  C   UNL     1      -0.096   9.966  21.599  0.00  0.00    +0.000 A 
ATOM     23  C   UNL     1      -0.514   9.826  23.018  0.00  0.00    +0.000 C 
ENDBRANCH  16  17
ENDBRANCH  15  16
ENDBRANCH  13  15
ENDBRANCH   1  13
TORSDOF 6
ENDMDL
