MODEL 1
REMARK VINA RESULT:      -7.5      0.000      0.000
REMARK  Name = 
REMARK  14 active torsions:
REMARK  status: ('A' for Active; 'I' for Inactive)
REMARK    1  A    between atoms: C_2  and  O_3
REMARK    2  A    between atoms: C_2  and  C_4
REMARK    3  A    between atoms: C_4  and  C_5
REMARK    4  A    between atoms: C_5  and  C_6
REMARK    5  A    between atoms: C_6  and  N_7
REMARK    6  A    between atoms: C_9  and  C_10
REMARK    7  A    between atoms: C_18  and  C_19
REMARK    8  A    between atoms: N_21  and  C_22
REMARK    9  A    between atoms: C_22  and  C_23
REMARK   10  A    between atoms: C_23  and  C_24
REMARK   11  A    between atoms: C_24  and  C_25
REMARK   12  A    between atoms: C_25  and  C_26
REMARK   13  A    between atoms: C_26  and  C_27
REMARK   14  A    between atoms: C_27  and  S_28
REMARK                            x       y       z     vdW  Elec       q    Type
REMARK                         _______ _______ _______ _____ _____    ______ ____
ROOT
ATOM      1  N   UNL     1       5.155   5.151  16.534  0.00  0.00    +0.000 N 
ATOM      2  N   UNL     1       4.247   4.334  17.124  0.00  0.00    +0.000 NA
ATOM      3  C   UNL     1       4.212   4.744  18.400  0.00  0.00    +0.000 A 
ATOM      4  C   UNL     1       5.175   5.757  18.627  0.00  0.00    +0.000 A 
ATOM      5  C   UNL     1       5.813   5.979  17.418  0.00  0.00    +0.000 A 
ENDROOT
BRANCH   3   6
ATOM      6  C   UNL     1       3.301   4.155  19.377  0.00  0.00    +0.000 A 
ATOM      7  C   UNL     1       3.726   3.093  20.193  0.00  0.00    +0.000 A 
ATOM      8  C   UNL     1       2.847   2.509  21.106  0.00  0.00    +0.000 A 
ATOM      9  C   UNL     1       1.548   2.990  21.209  0.00  0.00    +0.000 A 
ATOM     10  F   UNL     1       0.703   2.418  22.076  0.00  0.00    +0.000 F 
ATOM     11  C   UNL     1       1.112   4.052  20.424  0.00  0.00    +0.000 A 
ATOM     12  C   UNL     1       1.989   4.635  19.508  0.00  0.00    +0.000 A 
ENDBRANCH   3   6
BRANCH   5  13
ATOM     13  C   UNL     1       6.914   6.862  17.094  0.00  0.00    +0.000 C 
ATOM     14  O   UNL     1       7.759   6.582  16.245  0.00  0.00    +0.000 OA
ATOM     15  N   UNL     1       6.982   8.044  17.812  0.00  0.00    +0.000 N 
ATOM     16  H   UNL     1       6.287   8.265  18.510  0.00  0.00    +0.000 HD
BRANCH  15  17
ATOM     17  C   UNL     1       8.080   8.966  17.591  0.00  0.00    +0.000 C 
BRANCH  17  18
ATOM     18  C   UNL     1       8.882   9.281  18.853  0.00  0.00    +0.000 C 
BRANCH  18  19
ATOM     19  C   UNL     1       9.279  10.763  18.876  0.00  0.00    +0.000 C 
BRANCH  19  20
ATOM     20  C   UNL     1      10.239  11.116  17.741  0.00  0.00    +0.000 C 
BRANCH  20  21
ATOM     21  C   UNL     1      11.310  12.115  18.196  0.00  0.00    +0.000 C 
BRANCH  21  22
ATOM     22  C   UNL     1      10.709  13.508  18.365  0.00  0.00    +0.000 C 
BRANCH  22  23
ATOM     23  S   UNL     1      11.670  14.746  17.452  0.00  0.00    +0.000 S 
ATOM     24  H   UNL     1      11.760  14.060  16.303  0.00  0.00    +0.000 HD
ENDBRANCH  22  23
ENDBRANCH  21  22
ENDBRANCH  20  21
ENDBRANCH  19  20
ENDBRANCH  18  19
ENDBRANCH  17  18
ENDBRANCH  15  17
ENDBRANCH   5  13
BRANCH   1  25
ATOM     25  C   UNL     1       5.275   5.066  15.087  0.00  0.00    +0.000 C 
BRANCH  25  26
ATOM     26  C   UNL     1       6.069   3.859  14.584  0.00  0.00    +0.000 C 
BRANCH  26  27
ATOM     27  C   UNL     1       6.521   3.918  13.126  0.00  0.00    +0.000 C 
BRANCH  27  29
ATOM     28  O   UNL     1       4.539   3.474  11.823  0.00  0.00    +0.000 OA
ATOM     29  C   UNL     1       5.645   3.113  12.203  0.00  0.00    +0.000 C 
BRANCH  29  30
ATOM     30  O   UNL     1       6.188   1.932  11.837  0.00  0.00    +0.000 OA
ATOM     31  H   UNL     1       6.206   1.249  12.552  0.00  0.00    +0.000 HD
ENDBRANCH  29  30
ENDBRANCH  27  29
ENDBRANCH  26  27
ENDBRANCH  25  26
ENDBRANCH   1  25
TORSDOF 14
ENDMDL
MODEL 2
REMARK VINA RESULT:      -7.2      5.270      7.717
REMARK  Name = 
REMARK  14 active torsions:
REMARK  status: ('A' for Active; 'I' for Inactive)
REMARK    1  A    between atoms: C_2  and  O_3
REMARK    2  A    between atoms: C_2  and  C_4
REMARK    3  A    between atoms: C_4  and  C_5
REMARK    4  A    between atoms: C_5  and  C_6
REMARK    5  A    between atoms: C_6  and  N_7
REMARK    6  A    between atoms: C_9  and  C_10
REMARK    7  A    between atoms: C_18  and  C_19
REMARK    8  A    between atoms: N_21  and  C_22
REMARK    9  A    between atoms: C_22  and  C_23
REMARK   10  A    between atoms: C_23  and  C_24
REMARK   11  A    between atoms: C_24  and  C_25
REMARK   12  A    between atoms: C_25  and  C_26
REMARK   13  A    between atoms: C_26  and  C_27
REMARK   14  A    between atoms: C_27  and  S_28
REMARK                            x       y       z     vdW  Elec       q    Type
REMARK                         _______ _______ _______ _____ _____    ______ ____
ROOT
ATOM      1  N   UNL     1       3.452   4.802  17.542  0.00  0.00    +0.000 N 
ATOM      2  N   UNL     1       2.496   5.494  18.211  0.00  0.00    +0.000 NA
ATOM      3  C   UNL     1       2.918   6.766  18.170  0.00  0.00    +0.000 A 
ATOM      4  C   UNL     1       4.191   6.851  17.555  0.00  0.00    +0.000 A 
ATOM      5  C   UNL     1       4.547   5.563  17.195  0.00  0.00    +0.000 A 
ENDROOT
BRANCH   3   6
ATOM      6  C   UNL     1       2.132   7.860  18.733  0.00  0.00    +0.000 A 
ATOM      7  C   UNL     1       1.700   8.917  17.915  0.00  0.00    +0.000 A 
ATOM      8  C   UNL     1       0.975   9.979  18.459  0.00  0.00    +0.000 A 
ATOM      9  C   UNL     1       0.676   9.980  19.815  0.00  0.00    +0.000 A 
ATOM     10  F   UNL     1      -0.008  11.006  20.335  0.00  0.00    +0.000 F 
ATOM     11  C   UNL     1       1.078   8.934  20.639  0.00  0.00    +0.000 A 
ATOM     12  C   UNL     1       1.806   7.873  20.098  0.00  0.00    +0.000 A 
ENDBRANCH   3   6
BRANCH   5  13
ATOM     13  C   UNL     1       5.766   5.069  16.588  0.00  0.00    +0.000 C 
ATOM     14  O   UNL     1       6.598   4.414  17.214  0.00  0.00    +0.000 OA
ATOM     15  N   UNL     1       5.961   5.392  15.256  0.00  0.00    +0.000 N 
ATOM     16  H   UNL     1       5.275   5.932  14.750  0.00  0.00    +0.000 HD
BRANCH  15  17
ATOM     17  C   UNL     1       7.178   4.982  14.580  0.00  0.00    +0.000 C 
BRANCH  17  18
ATOM     18  C   UNL     1       6.951   4.496  13.149  0.00  0.00    +0.000 C 
BRANCH  18  19
ATOM     19  C   UNL     1       5.828   3.452  13.113  0.00  0.00    +0.000 C 
BRANCH  19  20
ATOM     20  C   UNL     1       5.645   2.855  11.718  0.00  0.00    +0.000 C 
BRANCH  20  21
ATOM     21  C   UNL     1       4.170   2.842  11.297  0.00  0.00    +0.000 C 
BRANCH  21  22
ATOM     22  C   UNL     1       3.739   4.222  10.808  0.00  0.00    +0.000 C 
BRANCH  22  23
ATOM     23  S   UNL     1       2.819   4.101   9.248  0.00  0.00    +0.000 S 
ATOM     24  H   UNL     1       3.363   5.178   8.661  0.00  0.00    +0.000 HD
ENDBRANCH  22  23
ENDBRANCH  21  22
ENDBRANCH  20  21
ENDBRANCH  19  20
ENDBRANCH  18  19
ENDBRANCH  17  18
ENDBRANCH  15  17
ENDBRANCH   5  13
BRANCH   1  25
ATOM     25  C   UNL     1       3.175   3.402  17.259  0.00  0.00    +0.000 C 
BRANCH  25  26
ATOM     26  C   UNL     1       3.326   2.469  18.462  0.00  0.00    +0.000 C 
BRANCH  26  27
ATOM     27  C   UNL     1       2.026   2.034  19.137  0.00  0.00    +0.000 C 
BRANCH  27  29
ATOM     28  O   UNL     1       2.760   2.607  21.363  0.00  0.00    +0.000 OA
ATOM     29  C   UNL     1       1.867   2.592  20.527  0.00  0.00    +0.000 C 
BRANCH  29  30
ATOM     30  O   UNL     1       0.628   3.069  20.779  0.00  0.00    +0.000 OA
ATOM     31  H   UNL     1       0.402   3.902  20.295  0.00  0.00    +0.000 HD
ENDBRANCH  29  30
ENDBRANCH  27  29
ENDBRANCH  26  27
ENDBRANCH  25  26
ENDBRANCH   1  25
TORSDOF 14
ENDMDL
MODEL 3
REMARK VINA RESULT:      -7.2      4.592      6.759
REMARK  Name = 
REMARK  14 active torsions:
REMARK  status: ('A' for Active; 'I' for Inactive)
REMARK    1  A    between atoms: C_2  and  O_3
REMARK    2  A    between atoms: C_2  and  C_4
REMARK    3  A    between atoms: C_4  and  C_5
REMARK    4  A    between atoms: C_5  and  C_6
REMARK    5  A    between atoms: C_6  and  N_7
REMARK    6  A    between atoms: C_9  and  C_10
REMARK    7  A    between atoms: C_18  and  C_19
REMARK    8  A    between atoms: N_21  and  C_22
REMARK    9  A    between atoms: C_22  and  C_23
REMARK   10  A    between atoms: C_23  and  C_24
REMARK   11  A    between atoms: C_24  and  C_25
REMARK   12  A    between atoms: C_25  and  C_26
REMARK   13  A    between atoms: C_26  and  C_27
REMARK   14  A    between atoms: C_27  and  S_28
REMARK                            x       y       z     vdW  Elec       q    Type
REMARK                         _______ _______ _______ _____ _____    ______ ____
ROOT
ATOM      1  N   UNL     1       2.295   5.861  20.272  0.00  0.00    +0.000 N 
ATOM      2  N   UNL     1       1.601   6.944  20.701  0.00  0.00    +0.000 NA
ATOM      3  C   UNL     1       1.796   7.864  19.745  0.00  0.00    +0.000 A 
ATOM      4  C   UNL     1       2.697   7.382  18.763  0.00  0.00    +0.000 A 
ATOM      5  C   UNL     1       3.049   6.098  19.142  0.00  0.00    +0.000 A 
ENDROOT
BRANCH   3   6
ATOM      6  C   UNL     1       1.160   9.177  19.793  0.00  0.00    +0.000 A 
ATOM      7  C   UNL     1       0.947   9.906  18.611  0.00  0.00    +0.000 A 
ATOM      8  C   UNL     1       0.366  11.174  18.659  0.00  0.00    +0.000 A 
ATOM      9  C   UNL     1      -0.007  11.710  19.885  0.00  0.00    +0.000 A 
ATOM     10  F   UNL     1      -0.551  12.932  19.928  0.00  0.00    +0.000 F 
ATOM     11  C   UNL     1       0.178  10.998  21.065  0.00  0.00    +0.000 A 
ATOM     12  C   UNL     1       0.761   9.731  21.019  0.00  0.00    +0.000 A 
ENDBRANCH   3   6
BRANCH   5  13
ATOM     13  C   UNL     1       3.980   5.170  18.534  0.00  0.00    +0.000 C 
ATOM     14  O   UNL     1       4.959   4.727  19.134  0.00  0.00    +0.000 OA
ATOM     15  N   UNL     1       3.725   4.819  17.220  0.00  0.00    +0.000 N 
ATOM     16  H   UNL     1       2.922   5.189  16.734  0.00  0.00    +0.000 HD
BRANCH  15  17
ATOM     17  C   UNL     1       4.633   3.935  16.515  0.00  0.00    +0.000 C 
BRANCH  17  18
ATOM     18  C   UNL     1       5.340   4.597  15.332  0.00  0.00    +0.000 C 
BRANCH  18  19
ATOM     19  C   UNL     1       6.855   4.373  15.424  0.00  0.00    +0.000 C 
BRANCH  19  20
ATOM     20  C   UNL     1       7.441   4.948  16.713  0.00  0.00    +0.000 C 
BRANCH  20  21
ATOM     21  C   UNL     1       7.113   6.438  16.869  0.00  0.00    +0.000 C 
BRANCH  21  22
ATOM     22  C   UNL     1       7.723   6.991  18.155  0.00  0.00    +0.000 C 
BRANCH  22  23
ATOM     23  S   UNL     1       8.133   8.749  17.977  0.00  0.00    +0.000 S 
ATOM     24  H   UNL     1       7.035   9.098  17.289  0.00  0.00    +0.000 HD
ENDBRANCH  22  23
ENDBRANCH  21  22
ENDBRANCH  20  21
ENDBRANCH  19  20
ENDBRANCH  18  19
ENDBRANCH  17  18
ENDBRANCH  15  17
ENDBRANCH   5  13
BRANCH   1  25
ATOM     25  C   UNL     1       2.120   4.627  21.021  0.00  0.00    +0.000 C 
BRANCH  25  26
ATOM     26  C   UNL     1       1.015   3.712  20.489  0.00  0.00    +0.000 C 
BRANCH  26  27
ATOM     27  C   UNL     1       1.434   2.278  20.165  0.00  0.00    +0.000 C 
BRANCH  27  29
ATOM     28  O   UNL     1       1.810   2.308  17.782  0.00  0.00    +0.000 OA
ATOM     29  C   UNL     1       2.262   2.175  18.911  0.00  0.00    +0.000 C 
BRANCH  29  30
ATOM     30  O   UNL     1       3.564   1.905  19.145  0.00  0.00    +0.000 OA
ATOM     31  H   UNL     1       3.809   1.859  20.102  0.00  0.00    +0.000 HD
ENDBRANCH  29  30
ENDBRANCH  27  29
ENDBRANCH  26  27
ENDBRANCH  25  26
ENDBRANCH   1  25
TORSDOF 14
ENDMDL
MODEL 4
REMARK VINA RESULT:      -7.2      5.240      7.198
REMARK  Name = 
REMARK  14 active torsions:
REMARK  status: ('A' for Active; 'I' for Inactive)
REMARK    1  A    between atoms: C_2  and  O_3
REMARK    2  A    between atoms: C_2  and  C_4
REMARK    3  A    between atoms: C_4  and  C_5
REMARK    4  A    between atoms: C_5  and  C_6
REMARK    5  A    between atoms: C_6  and  N_7
REMARK    6  A    between atoms: C_9  and  C_10
REMARK    7  A    between atoms: C_18  and  C_19
REMARK    8  A    between atoms: N_21  and  C_22
REMARK    9  A    between atoms: C_22  and  C_23
REMARK   10  A    between atoms: C_23  and  C_24
REMARK   11  A    between atoms: C_24  and  C_25
REMARK   12  A    between atoms: C_25  and  C_26
REMARK   13  A    between atoms: C_26  and  C_27
REMARK   14  A    between atoms: C_27  and  S_28
REMARK                            x       y       z     vdW  Elec       q    Type
REMARK                         _______ _______ _______ _____ _____    ______ ____
ROOT
ATOM      1  N   UNL     1       2.847   4.931  20.052  0.00  0.00    +0.000 N 
ATOM      2  N   UNL     1       1.924   5.870  20.377  0.00  0.00    +0.000 NA
ATOM      3  C   UNL     1       2.329   6.971  19.727  0.00  0.00    +0.000 A 
ATOM      4  C   UNL     1       3.564   6.740  19.073  0.00  0.00    +0.000 A 
ATOM      5  C   UNL     1       3.913   5.426  19.332  0.00  0.00    +0.000 A 
ENDROOT
BRANCH   3   6
ATOM      6  C   UNL     1       1.565   8.215  19.762  0.00  0.00    +0.000 A 
ATOM      7  C   UNL     1       1.512   9.046  18.631  0.00  0.00    +0.000 A 
ATOM      8  C   UNL     1       0.807  10.250  18.673  0.00  0.00    +0.000 A 
ATOM      9  C   UNL     1       0.150  10.618  19.840  0.00  0.00    +0.000 A 
ATOM     10  F   UNL     1      -0.514  11.780  19.881  0.00  0.00    +0.000 F 
ATOM     11  C   UNL     1       0.174   9.801  20.965  0.00  0.00    +0.000 A 
ATOM     12  C   UNL     1       0.882   8.598  20.926  0.00  0.00    +0.000 A 
ENDBRANCH   3   6
BRANCH   5  13
ATOM     13  C   UNL     1       5.100   4.686  18.956  0.00  0.00    +0.000 C 
ATOM     14  O   UNL     1       5.419   3.628  19.498  0.00  0.00    +0.000 OA
ATOM     15  N   UNL     1       5.881   5.246  17.961  0.00  0.00    +0.000 N 
ATOM     16  H   UNL     1       5.615   6.116  17.524  0.00  0.00    +0.000 HD
BRANCH  15  17
ATOM     17  C   UNL     1       7.116   4.601  17.556  0.00  0.00    +0.000 C 
BRANCH  17  18
ATOM     18  C   UNL     1       7.225   4.375  16.048  0.00  0.00    +0.000 C 
BRANCH  18  19
ATOM     19  C   UNL     1       5.941   3.729  15.512  0.00  0.00    +0.000 C 
BRANCH  19  20
ATOM     20  C   UNL     1       5.494   4.355  14.191  0.00  0.00    +0.000 C 
BRANCH  20  21
ATOM     21  C   UNL     1       6.523   4.122  13.078  0.00  0.00    +0.000 C 
BRANCH  21  22
ATOM     22  C   UNL     1       6.107   2.944  12.200  0.00  0.00    +0.000 C 
BRANCH  22  23
ATOM     23  S   UNL     1       4.468   3.222  11.473  0.00  0.00    +0.000 S 
ATOM     24  H   UNL     1       4.643   4.520  11.180  0.00  0.00    +0.000 HD
ENDBRANCH  22  23
ENDBRANCH  21  22
ENDBRANCH  20  21
ENDBRANCH  19  20
ENDBRANCH  18  19
ENDBRANCH  17  18
ENDBRANCH  15  17
ENDBRANCH   5  13
BRANCH   1  25
ATOM     25  C   UNL     1       2.570   3.564  20.467  0.00  0.00    +0.000 C 
BRANCH  25  26
ATOM     26  C   UNL     1       1.161   3.072  20.131  0.00  0.00    +0.000 C 
BRANCH  26  27
ATOM     27  C   UNL     1       1.033   2.228  18.863  0.00  0.00    +0.000 C 
BRANCH  27  29
ATOM     28  O   UNL     1       3.204   1.634  17.995  0.00  0.00    +0.000 OA
ATOM     29  C   UNL     1       2.220   2.358  17.946  0.00  0.00    +0.000 C 
BRANCH  29  30
ATOM     30  O   UNL     1       2.108   3.371  17.059  0.00  0.00    +0.000 OA
ATOM     31  H   UNL     1       2.153   4.275  17.460  0.00  0.00    +0.000 HD
ENDBRANCH  29  30
ENDBRANCH  27  29
ENDBRANCH  26  27
ENDBRANCH  25  26
ENDBRANCH   1  25
TORSDOF 14
ENDMDL
MODEL 5
REMARK VINA RESULT:      -7.1      5.299      7.616
REMARK  Name = 
REMARK  14 active torsions:
REMARK  status: ('A' for Active; 'I' for Inactive)
REMARK    1  A    between atoms: C_2  and  O_3
REMARK    2  A    between atoms: C_2  and  C_4
REMARK    3  A    between atoms: C_4  and  C_5
REMARK    4  A    between atoms: C_5  and  C_6
REMARK    5  A    between atoms: C_6  and  N_7
REMARK    6  A    between atoms: C_9  and  C_10
REMARK    7  A    between atoms: C_18  and  C_19
REMARK    8  A    between atoms: N_21  and  C_22
REMARK    9  A    between atoms: C_22  and  C_23
REMARK   10  A    between atoms: C_23  and  C_24
REMARK   11  A    between atoms: C_24  and  C_25
REMARK   12  A    between atoms: C_25  and  C_26
REMARK   13  A    between atoms: C_26  and  C_27
REMARK   14  A    between atoms: C_27  and  S_28
REMARK                            x       y       z     vdW  Elec       q    Type
REMARK                         _______ _______ _______ _____ _____    ______ ____
ROOT
ATOM      1  N   UNL     1       2.633   5.873  19.905  0.00  0.00    +0.000 N 
ATOM      2  N   UNL     1       1.879   6.877  20.419  0.00  0.00    +0.000 NA
ATOM      3  C   UNL     1       1.916   7.834  19.481  0.00  0.00    +0.000 A 
ATOM      4  C   UNL     1       2.778   7.462  18.420  0.00  0.00    +0.000 A 
ATOM      5  C   UNL     1       3.274   6.207  18.731  0.00  0.00    +0.000 A 
ENDROOT
BRANCH   3   6
ATOM      6  C   UNL     1       1.170   9.082  19.618  0.00  0.00    +0.000 A 
ATOM      7  C   UNL     1       0.877   9.861  18.487  0.00  0.00    +0.000 A 
ATOM      8  C   UNL     1       0.190  11.068  18.621  0.00  0.00    +0.000 A 
ATOM      9  C   UNL     1      -0.209  11.492  19.881  0.00  0.00    +0.000 A 
ATOM     10  F   UNL     1      -0.856  12.658  20.007  0.00  0.00    +0.000 F 
ATOM     11  C   UNL     1       0.055  10.728  21.012  0.00  0.00    +0.000 A 
ATOM     12  C   UNL     1       0.744   9.521  20.881  0.00  0.00    +0.000 A 
ENDBRANCH   3   6
BRANCH   5  13
ATOM     13  C   UNL     1       4.235   5.384  18.026  0.00  0.00    +0.000 C 
ATOM     14  O   UNL     1       3.899   4.444  17.306  0.00  0.00    +0.000 OA
ATOM     15  N   UNL     1       5.569   5.697  18.222  0.00  0.00    +0.000 N 
ATOM     16  H   UNL     1       5.836   6.468  18.817  0.00  0.00    +0.000 HD
BRANCH  15  17
ATOM     17  C   UNL     1       6.603   4.895  17.596  0.00  0.00    +0.000 C 
BRANCH  17  18
ATOM     18  C   UNL     1       6.802   5.199  16.112  0.00  0.00    +0.000 C 
BRANCH  18  19
ATOM     19  C   UNL     1       6.636   3.921  15.280  0.00  0.00    +0.000 C 
BRANCH  19  20
ATOM     20  C   UNL     1       5.682   4.124  14.103  0.00  0.00    +0.000 C 
BRANCH  20  21
ATOM     21  C   UNL     1       6.353   3.784  12.766  0.00  0.00    +0.000 C 
BRANCH  21  22
ATOM     22  C   UNL     1       5.422   2.941  11.897  0.00  0.00    +0.000 C 
BRANCH  22  23
ATOM     23  S   UNL     1       6.277   1.472  11.264  0.00  0.00    +0.000 S 
ATOM     24  H   UNL     1       7.467   2.058  11.059  0.00  0.00    +0.000 HD
ENDBRANCH  22  23
ENDBRANCH  21  22
ENDBRANCH  20  21
ENDBRANCH  19  20
ENDBRANCH  18  19
ENDBRANCH  17  18
ENDBRANCH  15  17
ENDBRANCH   5  13
BRANCH   1  25
ATOM     25  C   UNL     1       2.628   4.610  20.625  0.00  0.00    +0.000 C 
BRANCH  25  26
ATOM     26  C   UNL     1       1.277   3.891  20.638  0.00  0.00    +0.000 C 
BRANCH  26  27
ATOM     27  C   UNL     1       1.238   2.533  19.938  0.00  0.00    +0.000 C 
BRANCH  27  29
ATOM     28  O   UNL     1       0.880   3.474  17.745  0.00  0.00    +0.000 OA
ATOM     29  C   UNL     1       1.423   2.632  18.447  0.00  0.00    +0.000 C 
BRANCH  29  30
ATOM     30  O   UNL     1       2.243   1.685  17.941  0.00  0.00    +0.000 OA
ATOM     31  H   UNL     1       2.747   1.172  18.620  0.00  0.00    +0.000 HD
ENDBRANCH  29  30
ENDBRANCH  27  29
ENDBRANCH  26  27
ENDBRANCH  25  26
ENDBRANCH   1  25
TORSDOF 14
ENDMDL
MODEL 6
REMARK VINA RESULT:      -7.1      4.663      6.706
REMARK  Name = 
REMARK  14 active torsions:
REMARK  status: ('A' for Active; 'I' for Inactive)
REMARK    1  A    between atoms: C_2  and  O_3
REMARK    2  A    between atoms: C_2  and  C_4
REMARK    3  A    between atoms: C_4  and  C_5
REMARK    4  A    between atoms: C_5  and  C_6
REMARK    5  A    between atoms: C_6  and  N_7
REMARK    6  A    between atoms: C_9  and  C_10
REMARK    7  A    between atoms: C_18  and  C_19
REMARK    8  A    between atoms: N_21  and  C_22
REMARK    9  A    between atoms: C_22  and  C_23
REMARK   10  A    between atoms: C_23  and  C_24
REMARK   11  A    between atoms: C_24  and  C_25
REMARK   12  A    between atoms: C_25  and  C_26
REMARK   13  A    between atoms: C_26  and  C_27
REMARK   14  A    between atoms: C_27  and  S_28
REMARK                            x       y       z     vdW  Elec       q    Type
REMARK                         _______ _______ _______ _____ _____    ______ ____
ROOT
ATOM      1  N   UNL     1       2.357   5.522  20.380  0.00  0.00    +0.000 N 
ATOM      2  N   UNL     1       1.695   6.625  20.810  0.00  0.00    +0.000 NA
ATOM      3  C   UNL     1       1.929   7.543  19.861  0.00  0.00    +0.000 A 
ATOM      4  C   UNL     1       2.823   7.037  18.885  0.00  0.00    +0.000 A 
ATOM      5  C   UNL     1       3.130   5.740  19.260  0.00  0.00    +0.000 A 
ENDROOT
BRANCH   3   6
ATOM      6  C   UNL     1       1.336   8.877  19.910  0.00  0.00    +0.000 A 
ATOM      7  C   UNL     1       0.874   9.402  21.128  0.00  0.00    +0.000 A 
ATOM      8  C   UNL     1       0.280  10.664  21.172  0.00  0.00    +0.000 A 
ATOM      9  C   UNL     1       0.155  11.402  20.003  0.00  0.00    +0.000 A 
ATOM     10  F   UNL     1      -0.428  12.606  20.046  0.00  0.00    +0.000 F 
ATOM     11  C   UNL     1       0.622  10.909  18.789  0.00  0.00    +0.000 A 
ATOM     12  C   UNL     1       1.214   9.645  18.743  0.00  0.00    +0.000 A 
ENDBRANCH   3   6
BRANCH   5  13
ATOM     13  C   UNL     1       4.035   4.785  18.656  0.00  0.00    +0.000 C 
ATOM     14  O   UNL     1       4.898   4.192  19.302  0.00  0.00    +0.000 OA
ATOM     15  N   UNL     1       3.896   4.586  17.293  0.00  0.00    +0.000 N 
ATOM     16  H   UNL     1       3.189   5.080  16.769  0.00  0.00    +0.000 HD
BRANCH  15  17
ATOM     17  C   UNL     1       4.794   3.687  16.594  0.00  0.00    +0.000 C 
BRANCH  17  18
ATOM     18  C   UNL     1       5.475   4.319  15.381  0.00  0.00    +0.000 C 
BRANCH  18  19
ATOM     19  C   UNL     1       5.695   5.819  15.615  0.00  0.00    +0.000 C 
BRANCH  19  20
ATOM     20  C   UNL     1       7.028   6.101  16.309  0.00  0.00    +0.000 C 
BRANCH  20  21
ATOM     21  C   UNL     1       6.923   7.289  17.273  0.00  0.00    +0.000 C 
BRANCH  21  22
ATOM     22  C   UNL     1       8.036   7.232  18.317  0.00  0.00    +0.000 C 
BRANCH  22  23
ATOM     23  S   UNL     1       7.852   5.776  19.384  0.00  0.00    +0.000 S 
ATOM     24  H   UNL     1       8.582   6.239  20.410  0.00  0.00    +0.000 HD
ENDBRANCH  22  23
ENDBRANCH  21  22
ENDBRANCH  20  21
ENDBRANCH  19  20
ENDBRANCH  18  19
ENDBRANCH  17  18
ENDBRANCH  15  17
ENDBRANCH   5  13
BRANCH   1  25
ATOM     25  C   UNL     1       2.133   4.290  21.121  0.00  0.00    +0.000 C 
BRANCH  25  26
ATOM     26  C   UNL     1       0.975   3.436  20.599  0.00  0.00    +0.000 C 
BRANCH  26  27
ATOM     27  C   UNL     1       1.369   2.158  19.860  0.00  0.00    +0.000 C 
BRANCH  27  29
ATOM     28  O   UNL     1       2.428   1.729  17.735  0.00  0.00    +0.000 OA
ATOM     29  C   UNL     1       1.629   2.381  18.394  0.00  0.00    +0.000 C 
BRANCH  29  30
ATOM     30  O   UNL     1       0.903   3.389  17.864  0.00  0.00    +0.000 OA
ATOM     31  H   UNL     1       0.988   4.252  18.341  0.00  0.00    +0.000 HD
ENDBRANCH  29  30
ENDBRANCH  27  29
ENDBRANCH  26  27
ENDBRANCH  25  26
ENDBRANCH   1  25
TORSDOF 14
ENDMDL
MODEL 7
REMARK VINA RESULT:      -7.0      0.584      1.112
REMARK  Name = 
REMARK  14 active torsions:
REMARK  status: ('A' for Active; 'I' for Inactive)
REMARK    1  A    between atoms: C_2  and  O_3
REMARK    2  A    between atoms: C_2  and  C_4
REMARK    3  A    between atoms: C_4  and  C_5
REMARK    4  A    between atoms: C_5  and  C_6
REMARK    5  A    between atoms: C_6  and  N_7
REMARK    6  A    between atoms: C_9  and  C_10
REMARK    7  A    between atoms: C_18  and  C_19
REMARK    8  A    between atoms: N_21  and  C_22
REMARK    9  A    between atoms: C_22  and  C_23
REMARK   10  A    between atoms: C_23  and  C_24
REMARK   11  A    between atoms: C_24  and  C_25
REMARK   12  A    between atoms: C_25  and  C_26
REMARK   13  A    between atoms: C_26  and  C_27
REMARK   14  A    between atoms: C_27  and  S_28
REMARK                            x       y       z     vdW  Elec       q    Type
REMARK                         _______ _______ _______ _____ _____    ______ ____
ROOT
ATOM      1  N   UNL     1       5.121   5.385  16.413  0.00  0.00    +0.000 N 
ATOM      2  N   UNL     1       4.171   4.595  16.974  0.00  0.00    +0.000 NA
ATOM      3  C   UNL     1       4.258   4.853  18.287  0.00  0.00    +0.000 A 
ATOM      4  C   UNL     1       5.335   5.734  18.553  0.00  0.00    +0.000 A 
ATOM      5  C   UNL     1       5.916   6.034  17.333  0.00  0.00    +0.000 A 
ENDROOT
BRANCH   3   6
ATOM      6  C   UNL     1       3.353   4.243  19.257  0.00  0.00    +0.000 A 
ATOM      7  C   UNL     1       2.082   4.795  19.485  0.00  0.00    +0.000 A 
ATOM      8  C   UNL     1       1.227   4.232  20.433  0.00  0.00    +0.000 A 
ATOM      9  C   UNL     1       1.639   3.114  21.146  0.00  0.00    +0.000 A 
ATOM     10  F   UNL     1       0.822   2.584  22.065  0.00  0.00    +0.000 F 
ATOM     11  C   UNL     1       2.886   2.540  20.924  0.00  0.00    +0.000 A 
ATOM     12  C   UNL     1       3.743   3.105  19.978  0.00  0.00    +0.000 A 
ENDBRANCH   3   6
BRANCH   5  13
ATOM     13  C   UNL     1       7.081   6.838  17.029  0.00  0.00    +0.000 C 
ATOM     14  O   UNL     1       7.897   6.521  16.164  0.00  0.00    +0.000 OA
ATOM     15  N   UNL     1       7.247   7.986  17.786  0.00  0.00    +0.000 N 
ATOM     16  H   UNL     1       6.576   8.237  18.496  0.00  0.00    +0.000 HD
BRANCH  15  17
ATOM     17  C   UNL     1       8.413   8.826  17.585  0.00  0.00    +0.000 C 
BRANCH  17  18
ATOM     18  C   UNL     1       8.332  10.171  18.306  0.00  0.00    +0.000 C 
BRANCH  18  19
ATOM     19  C   UNL     1       9.398  10.252  19.406  0.00  0.00    +0.000 C 
BRANCH  19  20
ATOM     20  C   UNL     1      10.240  11.523  19.295  0.00  0.00    +0.000 C 
BRANCH  20  21
ATOM     21  C   UNL     1      10.950  11.615  17.940  0.00  0.00    +0.000 C 
BRANCH  21  22
ATOM     22  C   UNL     1      11.918  12.796  17.920  0.00  0.00    +0.000 C 
BRANCH  22  23
ATOM     23  S   UNL     1      11.158  14.245  17.135  0.00  0.00    +0.000 S 
ATOM     24  H   UNL     1      11.559  15.146  18.045  0.00  0.00    +0.000 HD
ENDBRANCH  22  23
ENDBRANCH  21  22
ENDBRANCH  20  21
ENDBRANCH  19  20
ENDBRANCH  18  19
ENDBRANCH  17  18
ENDBRANCH  15  17
ENDBRANCH   5  13
BRANCH   1  25
ATOM     25  C   UNL     1       5.141   5.461  14.961  0.00  0.00    +0.000 C 
BRANCH  25  26
ATOM     26  C   UNL     1       5.056   4.108  14.252  0.00  0.00    +0.000 C 
BRANCH  26  27
ATOM     27  C   UNL     1       6.285   3.703  13.438  0.00  0.00    +0.000 C 
BRANCH  27  29
ATOM     28  O   UNL     1       4.826   3.038  11.636  0.00  0.00    +0.000 OA
ATOM     29  C   UNL     1       5.936   3.010  12.148  0.00  0.00    +0.000 C 
BRANCH  29  30
ATOM     30  O   UNL     1       6.969   2.329  11.604  0.00  0.00    +0.000 OA
ATOM     31  H   UNL     1       7.067   2.443  10.627  0.00  0.00    +0.000 HD
ENDBRANCH  29  30
ENDBRANCH  27  29
ENDBRANCH  26  27
ENDBRANCH  25  26
ENDBRANCH   1  25
TORSDOF 14
ENDMDL
MODEL 8
REMARK VINA RESULT:      -7.0      1.271      1.581
REMARK  Name = 
REMARK  14 active torsions:
REMARK  status: ('A' for Active; 'I' for Inactive)
REMARK    1  A    between atoms: C_2  and  O_3
REMARK    2  A    between atoms: C_2  and  C_4
REMARK    3  A    between atoms: C_4  and  C_5
REMARK    4  A    between atoms: C_5  and  C_6
REMARK    5  A    between atoms: C_6  and  N_7
REMARK    6  A    between atoms: C_9  and  C_10
REMARK    7  A    between atoms: C_18  and  C_19
REMARK    8  A    between atoms: N_21  and  C_22
REMARK    9  A    between atoms: C_22  and  C_23
REMARK   10  A    between atoms: C_23  and  C_24
REMARK   11  A    between atoms: C_24  and  C_25
REMARK   12  A    between atoms: C_25  and  C_26
REMARK   13  A    between atoms: C_26  and  C_27
REMARK   14  A    between atoms: C_27  and  S_28
REMARK                            x       y       z     vdW  Elec       q    Type
REMARK                         _______ _______ _______ _____ _____    ______ ____
ROOT
ATOM      1  N   UNL     1       5.920   4.486  16.803  0.00  0.00    +0.000 N 
ATOM      2  N   UNL     1       5.038   3.681  17.447  0.00  0.00    +0.000 NA
ATOM      3  C   UNL     1       4.532   4.454  18.419  0.00  0.00    +0.000 A 
ATOM      4  C   UNL     1       5.174   5.716  18.440  0.00  0.00    +0.000 A 
ATOM      5  C   UNL     1       6.106   5.707  17.416  0.00  0.00    +0.000 A 
ENDROOT
BRANCH   3   6
ATOM      6  C   UNL     1       3.484   3.979  19.318  0.00  0.00    +0.000 A 
ATOM      7  C   UNL     1       3.796   3.092  20.362  0.00  0.00    +0.000 A 
ATOM      8  C   UNL     1       2.791   2.614  21.205  0.00  0.00    +0.000 A 
ATOM      9  C   UNL     1       1.480   3.026  21.008  0.00  0.00    +0.000 A 
ATOM     10  F   UNL     1       0.516   2.555  21.809  0.00  0.00    +0.000 F 
ATOM     11  C   UNL     1       1.152   3.918  19.992  0.00  0.00    +0.000 A 
ATOM     12  C   UNL     1       2.156   4.395  19.147  0.00  0.00    +0.000 A 
ENDBRANCH   3   6
BRANCH   5  13
ATOM     13  C   UNL     1       7.072   6.713  17.026  0.00  0.00    +0.000 C 
ATOM     14  O   UNL     1       7.899   6.526  16.134  0.00  0.00    +0.000 OA
ATOM     15  N   UNL     1       7.035   7.903  17.731  0.00  0.00    +0.000 N 
ATOM     16  H   UNL     1       6.356   8.048  18.464  0.00  0.00    +0.000 HD
BRANCH  15  17
ATOM     17  C   UNL     1       7.999   8.948  17.444  0.00  0.00    +0.000 C 
BRANCH  17  18
ATOM     18  C   UNL     1       8.691   9.504  18.688  0.00  0.00    +0.000 C 
BRANCH  18  19
ATOM     19  C   UNL     1       9.435  10.802  18.348  0.00  0.00    +0.000 C 
BRANCH  19  20
ATOM     20  C   UNL     1      10.165  11.378  19.561  0.00  0.00    +0.000 C 
BRANCH  20  21
ATOM     21  C   UNL     1       9.381  11.143  20.858  0.00  0.00    +0.000 C 
BRANCH  21  22
ATOM     22  C   UNL     1       9.465  12.367  21.767  0.00  0.00    +0.000 C 
BRANCH  22  23
ATOM     23  S   UNL     1       8.651  13.799  21.005  0.00  0.00    +0.000 S 
ATOM     24  H   UNL     1       7.558  13.149  20.576  0.00  0.00    +0.000 HD
ENDBRANCH  22  23
ENDBRANCH  21  22
ENDBRANCH  20  21
ENDBRANCH  19  20
ENDBRANCH  18  19
ENDBRANCH  17  18
ENDBRANCH  15  17
ENDBRANCH   5  13
BRANCH   1  25
ATOM     25  C   UNL     1       6.499   3.976  15.570  0.00  0.00    +0.000 C 
BRANCH  25  26
ATOM     26  C   UNL     1       5.621   4.161  14.331  0.00  0.00    +0.000 C 
BRANCH  26  27
ATOM     27  C   UNL     1       6.291   3.867  12.989  0.00  0.00    +0.000 C 
BRANCH  27  29
ATOM     28  O   UNL     1       5.792   1.952  11.608  0.00  0.00    +0.000 OA
ATOM     29  C   UNL     1       5.439   3.026  12.076  0.00  0.00    +0.000 C 
BRANCH  29  30
ATOM     30  O   UNL     1       4.236   3.577  11.801  0.00  0.00    +0.000 OA
ATOM     31  H   UNL     1       3.469   3.126  12.234  0.00  0.00    +0.000 HD
ENDBRANCH  29  30
ENDBRANCH  27  29
ENDBRANCH  26  27
ENDBRANCH  25  26
ENDBRANCH   1  25
TORSDOF 14
ENDMDL
MODEL 9
REMARK VINA RESULT:      -7.0      5.574      7.778
REMARK  Name = 
REMARK  14 active torsions:
REMARK  status: ('A' for Active; 'I' for Inactive)
REMARK    1  A    between atoms: C_2  and  O_3
REMARK    2  A    between atoms: C_2  and  C_4
REMARK    3  A    between atoms: C_4  and  C_5
REMARK    4  A    between atoms: C_5  and  C_6
REMARK    5  A    between atoms: C_6  and  N_7
REMARK    6  A    between atoms: C_9  and  C_10
REMARK    7  A    between atoms: C_18  and  C_19
REMARK    8  A    between atoms: N_21  and  C_22
REMARK    9  A    between atoms: C_22  and  C_23
REMARK   10  A    between atoms: C_23  and  C_24
REMARK   11  A    between atoms: C_24  and  C_25
REMARK   12  A    between atoms: C_25  and  C_26
REMARK   13  A    between atoms: C_26  and  C_27
REMARK   14  A    between atoms: C_27  and  S_28
REMARK                            x       y       z     vdW  Elec       q    Type
REMARK                         _______ _______ _______ _____ _____    ______ ____
ROOT
ATOM      1  N   UNL     1       2.487   5.892  19.948  0.00  0.00    +0.000 N 
ATOM      2  N   UNL     1       1.658   6.851  20.431  0.00  0.00    +0.000 NA
ATOM      3  C   UNL     1       1.829   7.888  19.598  0.00  0.00    +0.000 A 
ATOM      4  C   UNL     1       2.843   7.605  18.650  0.00  0.00    +0.000 A 
ATOM      5  C   UNL     1       3.294   6.324  18.918  0.00  0.00    +0.000 A 
ENDROOT
BRANCH   3   6
ATOM      6  C   UNL     1       1.063   9.123  19.733  0.00  0.00    +0.000 A 
ATOM      7  C   UNL     1       0.483   9.467  20.965  0.00  0.00    +0.000 A 
ATOM      8  C   UNL     1      -0.275  10.632  21.088  0.00  0.00    +0.000 A 
ATOM      9  C   UNL     1      -0.447  11.455  19.983  0.00  0.00    +0.000 A 
ATOM     10  F   UNL     1      -1.186  12.566  20.101  0.00  0.00    +0.000 F 
ATOM     11  C   UNL     1       0.134  11.144  18.759  0.00  0.00    +0.000 A 
ATOM     12  C   UNL     1       0.890   9.977  18.634  0.00  0.00    +0.000 A 
ENDBRANCH   3   6
BRANCH   5  13
ATOM     13  C   UNL     1       4.355   5.561  18.294  0.00  0.00    +0.000 C 
ATOM     14  O   UNL     1       5.519   5.600  18.692  0.00  0.00    +0.000 OA
ATOM     15  N   UNL     1       3.996   4.793  17.200  0.00  0.00    +0.000 N 
ATOM     16  H   UNL     1       3.040   4.770  16.877  0.00  0.00    +0.000 HD
BRANCH  15  17
ATOM     17  C   UNL     1       5.004   4.036  16.482  0.00  0.00    +0.000 C 
BRANCH  17  18
ATOM     18  C   UNL     1       5.695   4.830  15.374  0.00  0.00    +0.000 C 
BRANCH  18  19
ATOM     19  C   UNL     1       5.381   4.216  14.003  0.00  0.00    +0.000 C 
BRANCH  19  20
ATOM     20  C   UNL     1       6.639   4.040  13.153  0.00  0.00    +0.000 C 
BRANCH  20  21
ATOM     21  C   UNL     1       6.307   3.505  11.755  0.00  0.00    +0.000 C 
BRANCH  21  22
ATOM     22  C   UNL     1       5.075   2.603  11.803  0.00  0.00    +0.000 C 
BRANCH  22  23
ATOM     23  S   UNL     1       3.672   3.373  10.948  0.00  0.00    +0.000 S 
ATOM     24  H   UNL     1       4.394   4.104  10.086  0.00  0.00    +0.000 HD
ENDBRANCH  22  23
ENDBRANCH  21  22
ENDBRANCH  20  21
ENDBRANCH  19  20
ENDBRANCH  18  19
ENDBRANCH  17  18
ENDBRANCH  15  17
ENDBRANCH   5  13
BRANCH   1  25
ATOM     25  C   UNL     1       2.381   4.569  20.543  0.00  0.00    +0.000 C 
BRANCH  25  26
ATOM     26  C   UNL     1       0.983   3.951  20.476  0.00  0.00    +0.000 C 
BRANCH  26  27
ATOM     27  C   UNL     1       0.839   2.724  19.576  0.00  0.00    +0.000 C 
BRANCH  27  29
ATOM     28  O   UNL     1       2.541   2.134  17.971  0.00  0.00    +0.000 OA
ATOM     29  C   UNL     1       1.598   2.849  18.281  0.00  0.00    +0.000 C 
BRANCH  29  30
ATOM     30  O   UNL     1       1.151   3.846  17.487  0.00  0.00    +0.000 OA
ATOM     31  H   UNL     1       1.864   4.372  17.047  0.00  0.00    +0.000 HD
ENDBRANCH  29  30
ENDBRANCH  27  29
ENDBRANCH  26  27
ENDBRANCH  25  26
ENDBRANCH   1  25
TORSDOF 14
ENDMDL
