MODEL 1
REMARK VINA RESULT:      -8.5      0.000      0.000
REMARK  Name = 
REMARK  8 active torsions:
REMARK  status: ('A' for Active; 'I' for Inactive)
REMARK    1  A    between atoms: C_1  and  C_2
REMARK    2  A    between atoms: C_2  and  C_3
REMARK    3  A    between atoms: C_3  and  C_4
REMARK    4  A    between atoms: C_4  and  N_5
REMARK    5  A    between atoms: C_12  and  C_14
REMARK    6  A    between atoms: C_14  and  C_15
REMARK    7  A    between atoms: C_14  and  C_21
REMARK    8  A    between atoms: C_29  and  C_30
REMARK                            x       y       z     vdW  Elec       q    Type
REMARK                         _______ _______ _______ _____ _____    ______ ____
ROOT
ATOM      1  N   UNL     1       6.362   3.705  13.409  0.00  0.00    +0.000 N 
ATOM      2  C   UNL     1       7.051   4.796  13.873  0.00  0.00    +0.000 A 
ATOM      3  C   UNL     1       6.411   5.121  15.026  0.00  0.00    +0.000 A 
ATOM      4  C   UNL     1       5.374   4.206  15.219  0.00  0.00    +0.000 A 
ATOM      5  N   UNL     1       4.497   4.239  16.343  0.00  0.00    +0.000 NA
ATOM      6  C   UNL     1       4.744   5.190  17.220  0.00  0.00    +0.000 A 
ATOM      7  N   UNL     1       3.898   5.344  18.335  0.00  0.00    +0.000 N 
ATOM      8  C   UNL     1       3.591   6.495  19.092  0.00  0.00    +0.000 C 
ATOM      9  O   UNL     1       3.966   7.623  18.773  0.00  0.00    +0.000 OA
ATOM     10  N   UNL     1       5.825   6.102  17.119  0.00  0.00    +0.000 N 
ATOM     11  N   UNL     1       6.359   6.881  18.078  0.00  0.00    +0.000 NA
ATOM     12  C   UNL     1       7.296   7.551  17.381  0.00  0.00    +0.000 A 
ATOM     13  N   UNL     1       7.529   7.081  16.110  0.00  0.00    +0.000 NA
ATOM     14  C   UNL     1       6.638   6.135  16.020  0.00  0.00    +0.000 A 
ATOM     15  N   UNL     1       5.326   3.319  14.223  0.00  0.00    +0.000 NA
ATOM     16  H   UNL     1       3.236   4.579  18.417  0.00  0.00    +0.000 HD
ENDROOT
BRANCH  12  17
ATOM     17  C   UNL     1       8.062   8.696  17.934  0.00  0.00    +0.000 A 
ATOM     18  C   UNL     1       8.871   8.663  19.054  0.00  0.00    +0.000 A 
ATOM     19  C   UNL     1       9.402   9.963  19.209  0.00  0.00    +0.000 A 
ATOM     20  C   UNL     1       8.871  10.718  18.193  0.00  0.00    +0.000 A 
ATOM     21  O   UNL     1       8.065   9.960  17.409  0.00  0.00    +0.000 OA
ENDBRANCH  12  17
BRANCH   1  22
ATOM     22  C   UNL     1       6.667   3.021  12.160  0.00  0.00    +0.000 C 
BRANCH  22  23
ATOM     23  C   UNL     1       5.421   2.451  11.483  0.00  0.00    +0.000 C 
BRANCH  23  25
ATOM     24  C   UNL     1       3.352   3.224  10.264  0.00  0.00    +0.000 C 
ATOM     25  C   UNL     1       4.258   3.449  11.468  0.00  0.00    +0.000 C 
ENDBRANCH  23  25
ENDBRANCH  22  23
ENDBRANCH   1  22
BRANCH   8  26
ATOM     26  C   UNL     1       2.572   6.289  20.259  0.00  0.00    +0.000 C 
BRANCH  26  27
ATOM     27  C   UNL     1       1.593   7.474  20.330  0.00  0.00    +0.000 A 
ATOM     28  C   UNL     1       1.499   8.436  19.311  0.00  0.00    +0.000 A 
ATOM     29  C   UNL     1       0.651   9.545  19.441  0.00  0.00    +0.000 A 
ATOM     30  C   UNL     1      -0.109   9.719  20.595  0.00  0.00    +0.000 A 
ATOM     31  C   UNL     1      -0.037   8.773  21.612  0.00  0.00    +0.000 A 
ATOM     32  C   UNL     1       0.800   7.658  21.481  0.00  0.00    +0.000 A 
ENDBRANCH  26  27
BRANCH  26  33
ATOM     33  C   UNL     1       1.918   4.886  20.235  0.00  0.00    +0.000 A 
ATOM     34  C   UNL     1       1.284   4.377  19.085  0.00  0.00    +0.000 A 
ATOM     35  C   UNL     1       0.829   3.057  19.020  0.00  0.00    +0.000 A 
ATOM     36  C   UNL     1       0.978   2.215  20.114  0.00  0.00    +0.000 A 
ATOM     37  C   UNL     1       1.549   2.706  21.284  0.00  0.00    +0.000 A 
ATOM     38  C   UNL     1       2.016   4.028  21.347  0.00  0.00    +0.000 A 
ENDBRANCH  26  33
ENDBRANCH   8  26
TORSDOF 7
ENDMDL
MODEL 2
REMARK VINA RESULT:      -8.5      6.248      9.912
REMARK  Name = 
REMARK  8 active torsions:
REMARK  status: ('A' for Active; 'I' for Inactive)
REMARK    1  A    between atoms: C_1  and  C_2
REMARK    2  A    between atoms: C_2  and  C_3
REMARK    3  A    between atoms: C_3  and  C_4
REMARK    4  A    between atoms: C_4  and  N_5
REMARK    5  A    between atoms: C_12  and  C_14
REMARK    6  A    between atoms: C_14  and  C_15
REMARK    7  A    between atoms: C_14  and  C_21
REMARK    8  A    between atoms: C_29  and  C_30
REMARK                            x       y       z     vdW  Elec       q    Type
REMARK                         _______ _______ _______ _____ _____    ______ ____
ROOT
ATOM      1  N   UNL     1       1.655   7.593  20.221  0.00  0.00    +0.000 N 
ATOM      2  C   UNL     1       1.878   8.800  19.610  0.00  0.00    +0.000 A 
ATOM      3  C   UNL     1       1.066   9.660  20.278  0.00  0.00    +0.000 A 
ATOM      4  C   UNL     1       0.399   8.942  21.273  0.00  0.00    +0.000 A 
ATOM      5  N   UNL     1      -0.530   9.532  22.179  0.00  0.00    +0.000 NA
ATOM      6  C   UNL     1      -0.708  10.829  22.034  0.00  0.00    +0.000 A 
ATOM      7  N   UNL     1      -1.650  11.496  22.841  0.00  0.00    +0.000 N 
ATOM      8  C   UNL     1      -2.404  12.662  22.586  0.00  0.00    +0.000 C 
ATOM      9  O   UNL     1      -2.417  13.220  21.489  0.00  0.00    +0.000 OA
ATOM     10  N   UNL     1      -0.007  11.626  21.094  0.00  0.00    +0.000 N 
ATOM     11  N   UNL     1       0.136  12.964  21.070  0.00  0.00    +0.000 NA
ATOM     12  C   UNL     1       0.838  13.133  19.934  0.00  0.00    +0.000 A 
ATOM     13  N   UNL     1       1.332  11.978  19.373  0.00  0.00    +0.000 NA
ATOM     14  C   UNL     1       0.837  11.075  20.172  0.00  0.00    +0.000 A 
ATOM     15  N   UNL     1       0.751   7.654  21.252  0.00  0.00    +0.000 NA
ATOM     16  H   UNL     1      -2.009  10.897  23.578  0.00  0.00    +0.000 HD
ENDROOT
BRANCH  12  17
ATOM     17  C   UNL     1       1.107  14.462  19.328  0.00  0.00    +0.000 A 
ATOM     18  C   UNL     1       0.169  15.451  19.100  0.00  0.00    +0.000 A 
ATOM     19  C   UNL     1       0.860  16.538  18.518  0.00  0.00    +0.000 A 
ATOM     20  C   UNL     1       2.170  16.142  18.404  0.00  0.00    +0.000 A 
ATOM     21  O   UNL     1       2.333  14.891  18.899  0.00  0.00    +0.000 OA
ENDBRANCH  12  17
BRANCH   1  22
ATOM     22  C   UNL     1       2.289   6.346  19.813  0.00  0.00    +0.000 C 
BRANCH  22  23
ATOM     23  C   UNL     1       2.106   5.231  20.843  0.00  0.00    +0.000 C 
BRANCH  23  25
ATOM     24  C   UNL     1       1.357   2.825  20.957  0.00  0.00    +0.000 C 
ATOM     25  C   UNL     1       1.041   4.214  20.418  0.00  0.00    +0.000 C 
ENDBRANCH  23  25
ENDBRANCH  22  23
ENDBRANCH   1  22
BRANCH   8  26
ATOM     26  C   UNL     1      -3.386  13.097  23.721  0.00  0.00    +0.000 C 
BRANCH  26  27
ATOM     27  C   UNL     1      -3.058  14.524  24.193  0.00  0.00    +0.000 A 
ATOM     28  C   UNL     1      -1.950  14.814  25.006  0.00  0.00    +0.000 A 
ATOM     29  C   UNL     1      -1.722  16.113  25.481  0.00  0.00    +0.000 A 
ATOM     30  C   UNL     1      -2.602  17.144  25.162  0.00  0.00    +0.000 A 
ATOM     31  C   UNL     1      -3.701  16.881  24.350  0.00  0.00    +0.000 A 
ATOM     32  C   UNL     1      -3.925  15.586  23.865  0.00  0.00    +0.000 A 
ENDBRANCH  26  27
BRANCH  26  33
ATOM     33  C   UNL     1      -4.868  12.841  23.354  0.00  0.00    +0.000 A 
ATOM     34  C   UNL     1      -5.872  12.730  24.334  0.00  0.00    +0.000 A 
ATOM     35  C   UNL     1      -7.226  12.649  23.995  0.00  0.00    +0.000 A 
ATOM     36  C   UNL     1      -7.610  12.658  22.661  0.00  0.00    +0.000 A 
ATOM     37  C   UNL     1      -6.637  12.710  21.667  0.00  0.00    +0.000 A 
ATOM     38  C   UNL     1      -5.278  12.800  22.007  0.00  0.00    +0.000 A 
ENDBRANCH  26  33
ENDBRANCH   8  26
TORSDOF 7
ENDMDL
MODEL 3
REMARK VINA RESULT:      -8.3      6.214      9.845
REMARK  Name = 
REMARK  8 active torsions:
REMARK  status: ('A' for Active; 'I' for Inactive)
REMARK    1  A    between atoms: C_1  and  C_2
REMARK    2  A    between atoms: C_2  and  C_3
REMARK    3  A    between atoms: C_3  and  C_4
REMARK    4  A    between atoms: C_4  and  N_5
REMARK    5  A    between atoms: C_12  and  C_14
REMARK    6  A    between atoms: C_14  and  C_15
REMARK    7  A    between atoms: C_14  and  C_21
REMARK    8  A    between atoms: C_29  and  C_30
REMARK                            x       y       z     vdW  Elec       q    Type
REMARK                         _______ _______ _______ _____ _____    ______ ____
ROOT
ATOM      1  N   UNL     1       1.579   7.438  20.374  0.00  0.00    +0.000 N 
ATOM      2  C   UNL     1       1.864   8.627  19.751  0.00  0.00    +0.000 A 
ATOM      3  C   UNL     1       1.065   9.526  20.382  0.00  0.00    +0.000 A 
ATOM      4  C   UNL     1       0.344   8.849  21.368  0.00  0.00    +0.000 A 
ATOM      5  N   UNL     1      -0.589   9.487  22.237  0.00  0.00    +0.000 NA
ATOM      6  C   UNL     1      -0.715  10.787  22.068  0.00  0.00    +0.000 A 
ATOM      7  N   UNL     1      -1.654  11.500  22.836  0.00  0.00    +0.000 N 
ATOM      8  C   UNL     1      -2.357  12.688  22.541  0.00  0.00    +0.000 C 
ATOM      9  O   UNL     1      -2.319  13.229  21.436  0.00  0.00    +0.000 OA
ATOM     10  N   UNL     1       0.041  11.543  21.136  0.00  0.00    +0.000 N 
ATOM     11  N   UNL     1       0.234  12.875  21.095  0.00  0.00    +0.000 NA
ATOM     12  C   UNL     1       0.974  13.000  19.978  0.00  0.00    +0.000 A 
ATOM     13  N   UNL     1       1.441  11.818  19.450  0.00  0.00    +0.000 NA
ATOM     14  C   UNL     1       0.891  10.947  20.247  0.00  0.00    +0.000 A 
ATOM     15  N   UNL     1       0.649   7.549  21.377  0.00  0.00    +0.000 NA
ATOM     16  H   UNL     1      -2.056  10.927  23.571  0.00  0.00    +0.000 HD
ENDROOT
BRANCH  12  17
ATOM     17  C   UNL     1       1.308  14.307  19.361  0.00  0.00    +0.000 A 
ATOM     18  C   UNL     1       2.469  14.604  18.673  0.00  0.00    +0.000 A 
ATOM     19  C   UNL     1       2.362  15.951  18.258  0.00  0.00    +0.000 A 
ATOM     20  C   UNL     1       1.157  16.404  18.735  0.00  0.00    +0.000 A 
ATOM     21  O   UNL     1       0.506  15.415  19.397  0.00  0.00    +0.000 OA
ENDBRANCH  12  17
BRANCH   1  22
ATOM     22  C   UNL     1       2.178   6.163  20.004  0.00  0.00    +0.000 C 
BRANCH  22  23
ATOM     23  C   UNL     1       1.371   4.967  20.509  0.00  0.00    +0.000 C 
BRANCH  23  25
ATOM     24  C   UNL     1       1.432   2.697  21.607  0.00  0.00    +0.000 C 
ATOM     25  C   UNL     1       2.263   3.864  21.088  0.00  0.00    +0.000 C 
ENDBRANCH  23  25
ENDBRANCH  22  23
ENDBRANCH   1  22
BRANCH   8  26
ATOM     26  C   UNL     1      -3.355  13.178  23.640  0.00  0.00    +0.000 C 
BRANCH  26  27
ATOM     27  C   UNL     1      -3.072  14.646  24.004  0.00  0.00    +0.000 A 
ATOM     28  C   UNL     1      -3.386  15.710  23.141  0.00  0.00    +0.000 A 
ATOM     29  C   UNL     1      -3.047  17.030  23.470  0.00  0.00    +0.000 A 
ATOM     30  C   UNL     1      -2.379  17.310  24.660  0.00  0.00    +0.000 A 
ATOM     31  C   UNL     1      -2.068  16.272  25.533  0.00  0.00    +0.000 A 
ATOM     32  C   UNL     1      -2.415  14.953  25.212  0.00  0.00    +0.000 A 
ENDBRANCH  26  27
BRANCH  26  33
ATOM     33  C   UNL     1      -4.828  12.850  23.293  0.00  0.00    +0.000 A 
ATOM     34  C   UNL     1      -5.820  12.727  24.285  0.00  0.00    +0.000 A 
ATOM     35  C   UNL     1      -7.171  12.580  23.960  0.00  0.00    +0.000 A 
ATOM     36  C   UNL     1      -7.565  12.533  22.629  0.00  0.00    +0.000 A 
ATOM     37  C   UNL     1      -6.601  12.594  21.626  0.00  0.00    +0.000 A 
ATOM     38  C   UNL     1      -5.245  12.751  21.952  0.00  0.00    +0.000 A 
ENDBRANCH  26  33
ENDBRANCH   8  26
TORSDOF 7
ENDMDL
MODEL 4
REMARK VINA RESULT:      -8.3      6.644      9.979
REMARK  Name = 
REMARK  8 active torsions:
REMARK  status: ('A' for Active; 'I' for Inactive)
REMARK    1  A    between atoms: C_1  and  C_2
REMARK    2  A    between atoms: C_2  and  C_3
REMARK    3  A    between atoms: C_3  and  C_4
REMARK    4  A    between atoms: C_4  and  N_5
REMARK    5  A    between atoms: C_12  and  C_14
REMARK    6  A    between atoms: C_14  and  C_15
REMARK    7  A    between atoms: C_14  and  C_21
REMARK    8  A    between atoms: C_29  and  C_30
REMARK                            x       y       z     vdW  Elec       q    Type
REMARK                         _______ _______ _______ _____ _____    ______ ____
ROOT
ATOM      1  N   UNL     1       1.856   9.088  18.539  0.00  0.00    +0.000 N 
ATOM      2  C   UNL     1       1.848  10.391  18.110  0.00  0.00    +0.000 A 
ATOM      3  C   UNL     1       0.998  11.012  18.968  0.00  0.00    +0.000 A 
ATOM      4  C   UNL     1       0.540  10.064  19.887  0.00  0.00    +0.000 A 
ATOM      5  N   UNL     1      -0.364  10.370  20.946  0.00  0.00    +0.000 NA
ATOM      6  C   UNL     1      -0.732  11.632  21.023  0.00  0.00    +0.000 A 
ATOM      7  N   UNL     1      -1.669  12.025  21.997  0.00  0.00    +0.000 N 
ATOM      8  C   UNL     1      -2.598  13.088  21.990  0.00  0.00    +0.000 C 
ATOM      9  O   UNL     1      -2.800  13.791  21.000  0.00  0.00    +0.000 OA
ATOM     10  N   UNL     1      -0.246  12.654  20.168  0.00  0.00    +0.000 N 
ATOM     11  N   UNL     1      -0.291  13.988  20.343  0.00  0.00    +0.000 NA
ATOM     12  C   UNL     1       0.262  14.424  19.197  0.00  0.00    +0.000 A 
ATOM     13  N   UNL     1       0.850  13.450  18.423  0.00  0.00    +0.000 NA
ATOM     14  C   UNL     1       0.567  12.377  19.105  0.00  0.00    +0.000 A 
ATOM     15  N   UNL     1       1.062   8.861  19.635  0.00  0.00    +0.000 NA
ATOM     16  H   UNL     1      -1.866  11.278  22.656  0.00  0.00    +0.000 HD
ENDROOT
BRANCH  12  17
ATOM     17  C   UNL     1       0.282  15.851  18.789  0.00  0.00    +0.000 A 
ATOM     18  C   UNL     1      -0.801  16.708  18.792  0.00  0.00    +0.000 A 
ATOM     19  C   UNL     1      -0.328  17.960  18.337  0.00  0.00    +0.000 A 
ATOM     20  C   UNL     1       1.006  17.789  18.062  0.00  0.00    +0.000 A 
ATOM     21  O   UNL     1       1.389  16.519  18.340  0.00  0.00    +0.000 OA
ENDBRANCH  12  17
BRANCH   1  22
ATOM     22  C   UNL     1       2.610   8.023  17.890  0.00  0.00    +0.000 C 
BRANCH  22  23
ATOM     23  C   UNL     1       2.743   6.779  18.768  0.00  0.00    +0.000 C 
BRANCH  23  25
ATOM     24  C   UNL     1       3.157   4.334  18.309  0.00  0.00    +0.000 C 
ATOM     25  C   UNL     1       2.225   5.516  18.073  0.00  0.00    +0.000 C 
ENDBRANCH  23  25
ENDBRANCH  22  23
ENDBRANCH   1  22
BRANCH   8  26
ATOM     26  C   UNL     1      -3.510  13.201  23.254  0.00  0.00    +0.000 C 
BRANCH  26  27
ATOM     27  C   UNL     1      -3.226  14.516  24.002  0.00  0.00    +0.000 A 
ATOM     28  C   UNL     1      -4.130  15.592  24.006  0.00  0.00    +0.000 A 
ATOM     29  C   UNL     1      -3.808  16.802  24.635  0.00  0.00    +0.000 A 
ATOM     30  C   UNL     1      -2.575  16.965  25.261  0.00  0.00    +0.000 A 
ATOM     31  C   UNL     1      -1.670  15.909  25.278  0.00  0.00    +0.000 A 
ATOM     32  C   UNL     1      -1.993  14.694  24.660  0.00  0.00    +0.000 A 
ENDBRANCH  26  27
BRANCH  26  33
ATOM     33  C   UNL     1      -5.000  12.924  22.938  0.00  0.00    +0.000 A 
ATOM     34  C   UNL     1      -5.457  12.704  21.624  0.00  0.00    +0.000 A 
ATOM     35  C   UNL     1      -6.770  12.306  21.359  0.00  0.00    +0.000 A 
ATOM     36  C   UNL     1      -7.670  12.139  22.403  0.00  0.00    +0.000 A 
ATOM     37  C   UNL     1      -7.264  12.405  23.708  0.00  0.00    +0.000 A 
ATOM     38  C   UNL     1      -5.943  12.794  23.975  0.00  0.00    +0.000 A 
ENDBRANCH  26  33
ENDBRANCH   8  26
TORSDOF 7
ENDMDL
MODEL 5
REMARK VINA RESULT:      -8.2      6.235      9.619
REMARK  Name = 
REMARK  8 active torsions:
REMARK  status: ('A' for Active; 'I' for Inactive)
REMARK    1  A    between atoms: C_1  and  C_2
REMARK    2  A    between atoms: C_2  and  C_3
REMARK    3  A    between atoms: C_3  and  C_4
REMARK    4  A    between atoms: C_4  and  N_5
REMARK    5  A    between atoms: C_12  and  C_14
REMARK    6  A    between atoms: C_14  and  C_15
REMARK    7  A    between atoms: C_14  and  C_21
REMARK    8  A    between atoms: C_29  and  C_30
REMARK                            x       y       z     vdW  Elec       q    Type
REMARK                         _______ _______ _______ _____ _____    ______ ____
ROOT
ATOM      1  N   UNL     1       1.635   7.510  20.296  0.00  0.00    +0.000 N 
ATOM      2  C   UNL     1       1.872   8.710  19.676  0.00  0.00    +0.000 A 
ATOM      3  C   UNL     1       1.078   9.586  20.345  0.00  0.00    +0.000 A 
ATOM      4  C   UNL     1       0.408   8.884  21.349  0.00  0.00    +0.000 A 
ATOM      5  N   UNL     1      -0.505   9.494  22.259  0.00  0.00    +0.000 NA
ATOM      6  C   UNL     1      -0.664  10.793  22.108  0.00  0.00    +0.000 A 
ATOM      7  N   UNL     1      -1.590  11.478  22.918  0.00  0.00    +0.000 N 
ATOM      8  C   UNL     1      -2.328  12.654  22.661  0.00  0.00    +0.000 C 
ATOM      9  O   UNL     1      -2.341  13.206  21.561  0.00  0.00    +0.000 OA
ATOM     10  N   UNL     1       0.041  11.574  21.158  0.00  0.00    +0.000 N 
ATOM     11  N   UNL     1       0.205  12.909  21.123  0.00  0.00    +0.000 NA
ATOM     12  C   UNL     1       0.901  13.061  19.982  0.00  0.00    +0.000 A 
ATOM     13  N   UNL     1       1.372  11.895  19.424  0.00  0.00    +0.000 NA
ATOM     14  C   UNL     1       0.870  11.004  20.232  0.00  0.00    +0.000 A 
ATOM     15  N   UNL     1       0.740   7.591  21.333  0.00  0.00    +0.000 NA
ATOM     16  H   UNL     1      -1.952  10.889  23.661  0.00  0.00    +0.000 HD
ENDROOT
BRANCH  12  17
ATOM     17  C   UNL     1       1.185  14.381  19.366  0.00  0.00    +0.000 A 
ATOM     18  C   UNL     1       2.336  14.724  18.683  0.00  0.00    +0.000 A 
ATOM     19  C   UNL     1       2.176  16.066  18.269  0.00  0.00    +0.000 A 
ATOM     20  C   UNL     1       0.952  16.471  18.741  0.00  0.00    +0.000 A 
ATOM     21  O   UNL     1       0.339  15.456  19.400  0.00  0.00    +0.000 OA
ENDBRANCH  12  17
BRANCH   1  22
ATOM     22  C   UNL     1       2.247   6.251  19.891  0.00  0.00    +0.000 C 
BRANCH  22  23
ATOM     23  C   UNL     1       2.454   6.160  18.380  0.00  0.00    +0.000 C 
BRANCH  23  25
ATOM     24  C   UNL     1       3.501   4.079  17.413  0.00  0.00    +0.000 C 
ATOM     25  C   UNL     1       2.201   4.748  17.840  0.00  0.00    +0.000 C 
ENDBRANCH  23  25
ENDBRANCH  22  23
ENDBRANCH   1  22
BRANCH   8  26
ATOM     26  C   UNL     1      -3.294  13.111  23.800  0.00  0.00    +0.000 C 
BRANCH  26  27
ATOM     27  C   UNL     1      -2.873  14.490  24.339  0.00  0.00    +0.000 A 
ATOM     28  C   UNL     1      -3.798  15.517  24.589  0.00  0.00    +0.000 A 
ATOM     29  C   UNL     1      -3.373  16.786  25.008  0.00  0.00    +0.000 A 
ATOM     30  C   UNL     1      -2.017  17.056  25.173  0.00  0.00    +0.000 A 
ATOM     31  C   UNL     1      -1.084  16.049  24.939  0.00  0.00    +0.000 A 
ATOM     32  C   UNL     1      -1.507  14.778  24.532  0.00  0.00    +0.000 A 
ENDBRANCH  26  27
BRANCH  26  33
ATOM     33  C   UNL     1      -4.785  12.980  23.403  0.00  0.00    +0.000 A 
ATOM     34  C   UNL     1      -5.221  13.140  22.074  0.00  0.00    +0.000 A 
ATOM     35  C   UNL     1      -6.540  12.873  21.695  0.00  0.00    +0.000 A 
ATOM     36  C   UNL     1      -7.465  12.457  22.643  0.00  0.00    +0.000 A 
ATOM     37  C   UNL     1      -7.078  12.345  23.976  0.00  0.00    +0.000 A 
ATOM     38  C   UNL     1      -5.752  12.603  24.355  0.00  0.00    +0.000 A 
ENDBRANCH  26  33
ENDBRANCH   8  26
TORSDOF 7
ENDMDL
MODEL 6
REMARK VINA RESULT:      -8.2      5.477      9.651
REMARK  Name = 
REMARK  8 active torsions:
REMARK  status: ('A' for Active; 'I' for Inactive)
REMARK    1  A    between atoms: C_1  and  C_2
REMARK    2  A    between atoms: C_2  and  C_3
REMARK    3  A    between atoms: C_3  and  C_4
REMARK    4  A    between atoms: C_4  and  N_5
REMARK    5  A    between atoms: C_12  and  C_14
REMARK    6  A    between atoms: C_14  and  C_15
REMARK    7  A    between atoms: C_14  and  C_21
REMARK    8  A    between atoms: C_29  and  C_30
REMARK                            x       y       z     vdW  Elec       q    Type
REMARK                         _______ _______ _______ _____ _____    ______ ____
ROOT
ATOM      1  N   UNL     1       2.494   6.969  18.321  0.00  0.00    +0.000 N 
ATOM      2  C   UNL     1       1.650   7.470  19.280  0.00  0.00    +0.000 A 
ATOM      3  C   UNL     1       1.706   8.815  19.095  0.00  0.00    +0.000 A 
ATOM      4  C   UNL     1       2.568   9.070  18.025  0.00  0.00    +0.000 A 
ATOM      5  N   UNL     1       2.855  10.380  17.543  0.00  0.00    +0.000 NA
ATOM      6  C   UNL     1       2.227  11.357  18.165  0.00  0.00    +0.000 A 
ATOM      7  N   UNL     1       2.489  12.692  17.804  0.00  0.00    +0.000 N 
ATOM      8  C   UNL     1       2.406  13.875  18.571  0.00  0.00    +0.000 C 
ATOM      9  O   UNL     1       2.190  13.871  19.782  0.00  0.00    +0.000 OA
ATOM     10  N   UNL     1       1.286  11.159  19.207  0.00  0.00    +0.000 N 
ATOM     11  N   UNL     1       0.367  12.019  19.684  0.00  0.00    +0.000 NA
ATOM     12  C   UNL     1      -0.176  11.299  20.683  0.00  0.00    +0.000 A 
ATOM     13  N   UNL     1       0.187   9.972  20.712  0.00  0.00    +0.000 NA
ATOM     14  C   UNL     1       1.044   9.920  19.732  0.00  0.00    +0.000 A 
ATOM     15  N   UNL     1       3.069   7.934  17.532  0.00  0.00    +0.000 NA
ATOM     16  H   UNL     1       3.060  12.753  16.968  0.00  0.00    +0.000 HD
ENDROOT
BRANCH  12  17
ATOM     17  C   UNL     1      -1.129  11.861  21.672  0.00  0.00    +0.000 A 
ATOM     18  C   UNL     1      -1.496  11.272  22.867  0.00  0.00    +0.000 A 
ATOM     19  C   UNL     1      -2.412  12.151  23.487  0.00  0.00    +0.000 A 
ATOM     20  C   UNL     1      -2.570  13.210  22.628  0.00  0.00    +0.000 A 
ATOM     21  O   UNL     1      -1.791  13.050  21.529  0.00  0.00    +0.000 OA
ENDBRANCH  12  17
BRANCH   1  22
ATOM     22  C   UNL     1       2.786   5.552  18.156  0.00  0.00    +0.000 C 
BRANCH  22  23
ATOM     23  C   UNL     1       1.532   4.721  17.887  0.00  0.00    +0.000 C 
BRANCH  23  25
ATOM     24  C   UNL     1       0.902   3.921  20.195  0.00  0.00    +0.000 C 
ATOM     25  C   UNL     1       1.421   3.512  18.822  0.00  0.00    +0.000 C 
ENDBRANCH  23  25
ENDBRANCH  22  23
ENDBRANCH   1  22
BRANCH   8  26
ATOM     26  C   UNL     1       2.806  15.192  17.831  0.00  0.00    +0.000 C 
BRANCH  26  27
ATOM     27  C   UNL     1       1.663  16.219  17.911  0.00  0.00    +0.000 A 
ATOM     28  C   UNL     1       1.730  17.473  17.281  0.00  0.00    +0.000 A 
ATOM     29  C   UNL     1       0.703  18.415  17.436  0.00  0.00    +0.000 A 
ATOM     30  C   UNL     1      -0.403  18.127  18.231  0.00  0.00    +0.000 A 
ATOM     31  C   UNL     1      -0.494  16.887  18.856  0.00  0.00    +0.000 A 
ATOM     32  C   UNL     1       0.525  15.939  18.694  0.00  0.00    +0.000 A 
ENDBRANCH  26  27
BRANCH  26  33
ATOM     33  C   UNL     1       4.200  15.714  18.259  0.00  0.00    +0.000 A 
ATOM     34  C   UNL     1       4.353  16.804  19.137  0.00  0.00    +0.000 A 
ATOM     35  C   UNL     1       5.604  17.175  19.638  0.00  0.00    +0.000 A 
ATOM     36  C   UNL     1       6.742  16.476  19.255  0.00  0.00    +0.000 A 
ATOM     37  C   UNL     1       6.629  15.430  18.343  0.00  0.00    +0.000 A 
ATOM     38  C   UNL     1       5.372  15.051  17.848  0.00  0.00    +0.000 A 
ENDBRANCH  26  33
ENDBRANCH   8  26
TORSDOF 7
ENDMDL
MODEL 7
REMARK VINA RESULT:      -8.2      5.472      9.751
REMARK  Name = 
REMARK  8 active torsions:
REMARK  status: ('A' for Active; 'I' for Inactive)
REMARK    1  A    between atoms: C_1  and  C_2
REMARK    2  A    between atoms: C_2  and  C_3
REMARK    3  A    between atoms: C_3  and  C_4
REMARK    4  A    between atoms: C_4  and  N_5
REMARK    5  A    between atoms: C_12  and  C_14
REMARK    6  A    between atoms: C_14  and  C_15
REMARK    7  A    between atoms: C_14  and  C_21
REMARK    8  A    between atoms: C_29  and  C_30
REMARK                            x       y       z     vdW  Elec       q    Type
REMARK                         _______ _______ _______ _____ _____    ______ ____
ROOT
ATOM      1  N   UNL     1       2.245   6.918  18.411  0.00  0.00    +0.000 N 
ATOM      2  C   UNL     1       1.411   7.478  19.345  0.00  0.00    +0.000 A 
ATOM      3  C   UNL     1       1.542   8.815  19.141  0.00  0.00    +0.000 A 
ATOM      4  C   UNL     1       2.436   9.006  18.085  0.00  0.00    +0.000 A 
ATOM      5  N   UNL     1       2.802  10.292  17.590  0.00  0.00    +0.000 NA
ATOM      6  C   UNL     1       2.215  11.310  18.184  0.00  0.00    +0.000 A 
ATOM      7  N   UNL     1       2.554  12.624  17.808  0.00  0.00    +0.000 N 
ATOM      8  C   UNL     1       2.520  13.822  18.555  0.00  0.00    +0.000 C 
ATOM      9  O   UNL     1       2.281  13.849  19.762  0.00  0.00    +0.000 OA
ATOM     10  N   UNL     1       1.245  11.179  19.210  0.00  0.00    +0.000 N 
ATOM     11  N   UNL     1       0.364  12.095  19.655  0.00  0.00    +0.000 NA
ATOM     12  C   UNL     1      -0.236  11.420  20.653  0.00  0.00    +0.000 A 
ATOM     13  N   UNL     1       0.056  10.077  20.710  0.00  0.00    +0.000 NA
ATOM     14  C   UNL     1       0.927   9.964  19.748  0.00  0.00    +0.000 A 
ATOM     15  N   UNL     1       2.886   7.839  17.620  0.00  0.00    +0.000 NA
ATOM     16  H   UNL     1       3.144  12.642  16.982  0.00  0.00    +0.000 HD
ENDROOT
BRANCH  12  17
ATOM     17  C   UNL     1      -1.177  12.048  21.614  0.00  0.00    +0.000 A 
ATOM     18  C   UNL     1      -1.533  11.537  22.848  0.00  0.00    +0.000 A 
ATOM     19  C   UNL     1      -2.440  12.458  23.420  0.00  0.00    +0.000 A 
ATOM     20  C   UNL     1      -2.603  13.461  22.497  0.00  0.00    +0.000 A 
ATOM     21  O   UNL     1      -1.836  13.228  21.403  0.00  0.00    +0.000 OA
ENDBRANCH  12  17
BRANCH   1  22
ATOM     22  C   UNL     1       2.465   5.485  18.273  0.00  0.00    +0.000 C 
BRANCH  22  23
ATOM     23  C   UNL     1       2.457   4.758  19.618  0.00  0.00    +0.000 C 
BRANCH  23  25
ATOM     24  C   UNL     1       1.078   2.676  19.267  0.00  0.00    +0.000 C 
ATOM     25  C   UNL     1       1.121   4.062  19.897  0.00  0.00    +0.000 C 
ENDBRANCH  23  25
ENDBRANCH  22  23
ENDBRANCH   1  22
BRANCH   8  26
ATOM     26  C   UNL     1       3.004  15.104  17.804  0.00  0.00    +0.000 C 
BRANCH  26  27
ATOM     27  C   UNL     1       1.922  16.197  17.859  0.00  0.00    +0.000 A 
ATOM     28  C   UNL     1       0.739  16.049  18.604  0.00  0.00    +0.000 A 
ATOM     29  C   UNL     1      -0.260  17.031  18.573  0.00  0.00    +0.000 A 
ATOM     30  C   UNL     1      -0.103  18.173  17.790  0.00  0.00    +0.000 A 
ATOM     31  C   UNL     1       1.065  18.343  17.054  0.00  0.00    +0.000 A 
ATOM     32  C   UNL     1       2.070  17.369  17.091  0.00  0.00    +0.000 A 
ENDBRANCH  26  27
BRANCH  26  33
ATOM     33  C   UNL     1       4.421  15.549  18.240  0.00  0.00    +0.000 A 
ATOM     34  C   UNL     1       5.582  14.889  17.793  0.00  0.00    +0.000 A 
ATOM     35  C   UNL     1       6.861  15.383  18.067  0.00  0.00    +0.000 A 
ATOM     36  C   UNL     1       7.013  16.543  18.815  0.00  0.00    +0.000 A 
ATOM     37  C   UNL     1       5.885  17.186  19.319  0.00  0.00    +0.000 A 
ATOM     38  C   UNL     1       4.601  16.696  19.036  0.00  0.00    +0.000 A 
ENDBRANCH  26  33
ENDBRANCH   8  26
TORSDOF 7
ENDMDL
MODEL 8
REMARK VINA RESULT:      -8.2      5.509      9.713
REMARK  Name = 
REMARK  8 active torsions:
REMARK  status: ('A' for Active; 'I' for Inactive)
REMARK    1  A    between atoms: C_1  and  C_2
REMARK    2  A    between atoms: C_2  and  C_3
REMARK    3  A    between atoms: C_3  and  C_4
REMARK    4  A    between atoms: C_4  and  N_5
REMARK    5  A    between atoms: C_12  and  C_14
REMARK    6  A    between atoms: C_14  and  C_15
REMARK    7  A    between atoms: C_14  and  C_21
REMARK    8  A    between atoms: C_29  and  C_30
REMARK                            x       y       z     vdW  Elec       q    Type
REMARK                         _______ _______ _______ _____ _____    ______ ____
ROOT
ATOM      1  N   UNL     1       2.479   7.017  18.263  0.00  0.00    +0.000 N 
ATOM      2  C   UNL     1       1.612   7.481  19.220  0.00  0.00    +0.000 A 
ATOM      3  C   UNL     1       1.642   8.830  19.061  0.00  0.00    +0.000 A 
ATOM      4  C   UNL     1       2.512   9.124  18.009  0.00  0.00    +0.000 A 
ATOM      5  N   UNL     1       2.778  10.449  17.557  0.00  0.00    +0.000 NA
ATOM      6  C   UNL     1       2.122  11.400  18.189  0.00  0.00    +0.000 A 
ATOM      7  N   UNL     1       2.360  12.748  17.857  0.00  0.00    +0.000 N 
ATOM      8  C   UNL     1       2.242  13.913  18.645  0.00  0.00    +0.000 C 
ATOM      9  O   UNL     1       2.010  13.881  19.854  0.00  0.00    +0.000 OA
ATOM     10  N   UNL     1       1.171  11.162  19.213  0.00  0.00    +0.000 N 
ATOM     11  N   UNL     1       0.228  11.994  19.694  0.00  0.00    +0.000 NA
ATOM     12  C   UNL     1      -0.314  11.243  20.670  0.00  0.00    +0.000 A 
ATOM     13  N   UNL     1       0.077   9.923  20.679  0.00  0.00    +0.000 NA
ATOM     14  C   UNL     1       0.947   9.908  19.710  0.00  0.00    +0.000 A 
ATOM     15  N   UNL     1       3.044   8.009  17.502  0.00  0.00    +0.000 NA
ATOM     16  H   UNL     1       2.941  12.837  17.030  0.00  0.00    +0.000 HD
ENDROOT
BRANCH  12  17
ATOM     17  C   UNL     1      -1.292  11.765  21.657  0.00  0.00    +0.000 A 
ATOM     18  C   UNL     1      -2.045  12.915  21.517  0.00  0.00    +0.000 A 
ATOM     19  C   UNL     1      -2.838  13.024  22.682  0.00  0.00    +0.000 A 
ATOM     20  C   UNL     1      -2.507  11.952  23.473  0.00  0.00    +0.000 A 
ATOM     21  O   UNL     1      -1.579  11.177  22.859  0.00  0.00    +0.000 OA
ENDBRANCH  12  17
BRANCH   1  22
ATOM     22  C   UNL     1       2.803   5.609  18.075  0.00  0.00    +0.000 C 
BRANCH  22  23
ATOM     23  C   UNL     1       1.925   4.687  18.920  0.00  0.00    +0.000 C 
BRANCH  23  25
ATOM     24  C   UNL     1       0.758   2.455  19.056  0.00  0.00    +0.000 C 
ATOM     25  C   UNL     1       1.459   3.451  18.142  0.00  0.00    +0.000 C 
ENDBRANCH  23  25
ENDBRANCH  22  23
ENDBRANCH   1  22
BRANCH   8  26
ATOM     26  C   UNL     1       2.624  15.253  17.937  0.00  0.00    +0.000 C 
BRANCH  26  27
ATOM     27  C   UNL     1       1.468  16.262  18.042  0.00  0.00    +0.000 A 
ATOM     28  C   UNL     1       0.272  15.970  18.720  0.00  0.00    +0.000 A 
ATOM     29  C   UNL     1      -0.792  16.883  18.733  0.00  0.00    +0.000 A 
ATOM     30  C   UNL     1      -0.686  18.099  18.061  0.00  0.00    +0.000 A 
ATOM     31  C   UNL     1       0.494  18.411  17.392  0.00  0.00    +0.000 A 
ATOM     32  C   UNL     1       1.562  17.506  17.387  0.00  0.00    +0.000 A 
ENDBRANCH  26  27
BRANCH  26  33
ATOM     33  C   UNL     1       4.011  15.782  18.376  0.00  0.00    +0.000 A 
ATOM     34  C   UNL     1       4.151  16.832  19.304  0.00  0.00    +0.000 A 
ATOM     35  C   UNL     1       5.399  17.205  19.810  0.00  0.00    +0.000 A 
ATOM     36  C   UNL     1       6.547  16.548  19.385  0.00  0.00    +0.000 A 
ATOM     37  C   UNL     1       6.447  15.545  18.425  0.00  0.00    +0.000 A 
ATOM     38  C   UNL     1       5.193  15.163  17.924  0.00  0.00    +0.000 A 
ENDBRANCH  26  33
ENDBRANCH   8  26
TORSDOF 7
ENDMDL
MODEL 9
REMARK VINA RESULT:      -8.2      6.723     10.027
REMARK  Name = 
REMARK  8 active torsions:
REMARK  status: ('A' for Active; 'I' for Inactive)
REMARK    1  A    between atoms: C_1  and  C_2
REMARK    2  A    between atoms: C_2  and  C_3
REMARK    3  A    between atoms: C_3  and  C_4
REMARK    4  A    between atoms: C_4  and  N_5
REMARK    5  A    between atoms: C_12  and  C_14
REMARK    6  A    between atoms: C_14  and  C_15
REMARK    7  A    between atoms: C_14  and  C_21
REMARK    8  A    between atoms: C_29  and  C_30
REMARK                            x       y       z     vdW  Elec       q    Type
REMARK                         _______ _______ _______ _____ _____    ______ ____
ROOT
ATOM      1  N   UNL     1       1.834   9.096  18.593  0.00  0.00    +0.000 N 
ATOM      2  C   UNL     1       1.840  10.391  18.142  0.00  0.00    +0.000 A 
ATOM      3  C   UNL     1       0.989  11.034  18.983  0.00  0.00    +0.000 A 
ATOM      4  C   UNL     1       0.517  10.107  19.915  0.00  0.00    +0.000 A 
ATOM      5  N   UNL     1      -0.392  10.440  20.962  0.00  0.00    +0.000 NA
ATOM      6  C   UNL     1      -0.750  11.706  21.013  0.00  0.00    +0.000 A 
ATOM      7  N   UNL     1      -1.691  12.124  21.974  0.00  0.00    +0.000 N 
ATOM      8  C   UNL     1      -2.610  13.194  21.941  0.00  0.00    +0.000 C 
ATOM      9  O   UNL     1      -2.799  13.881  20.938  0.00  0.00    +0.000 OA
ATOM     10  N   UNL     1      -0.250  12.708  20.144  0.00  0.00    +0.000 N 
ATOM     11  N   UNL     1      -0.284  14.045  20.296  0.00  0.00    +0.000 NA
ATOM     12  C   UNL     1       0.281  14.456  19.146  0.00  0.00    +0.000 A 
ATOM     13  N   UNL     1       0.866  13.464  18.394  0.00  0.00    +0.000 NA
ATOM     14  C   UNL     1       0.569  12.405  19.093  0.00  0.00    +0.000 A 
ATOM     15  N   UNL     1       1.030   8.896  19.687  0.00  0.00    +0.000 NA
ATOM     16  H   UNL     1      -1.899  11.390  22.644  0.00  0.00    +0.000 HD
ENDROOT
BRANCH  12  17
ATOM     17  C   UNL     1       0.316  15.876  18.713  0.00  0.00    +0.000 A 
ATOM     18  C   UNL     1       1.453  16.647  18.564  0.00  0.00    +0.000 A 
ATOM     19  C   UNL     1       1.023  17.923  18.135  0.00  0.00    +0.000 A 
ATOM     20  C   UNL     1      -0.347  17.864  18.070  0.00  0.00    +0.000 A 
ATOM     21  O   UNL     1      -0.786  16.627  18.409  0.00  0.00    +0.000 OA
ENDBRANCH  12  17
BRANCH   1  22
ATOM     22  C   UNL     1       2.583   8.014  17.969  0.00  0.00    +0.000 C 
BRANCH  22  23
ATOM     23  C   UNL     1       2.578   6.736  18.808  0.00  0.00    +0.000 C 
BRANCH  23  25
ATOM     24  C   UNL     1       4.499   6.215  17.259  0.00  0.00    +0.000 C 
ATOM     25  C   UNL     1       3.839   5.892  18.593  0.00  0.00    +0.000 C 
ENDBRANCH  23  25
ENDBRANCH  22  23
ENDBRANCH   1  22
BRANCH   8  26
ATOM     26  C   UNL     1      -3.530  13.338  23.197  0.00  0.00    +0.000 C 
BRANCH  26  27
ATOM     27  C   UNL     1      -3.294  14.695  23.881  0.00  0.00    +0.000 A 
ATOM     28  C   UNL     1      -2.283  14.892  24.837  0.00  0.00    +0.000 A 
ATOM     29  C   UNL     1      -2.142  16.121  25.497  0.00  0.00    +0.000 A 
ATOM     30  C   UNL     1      -3.015  17.171  25.223  0.00  0.00    +0.000 A 
ATOM     31  C   UNL     1      -4.016  17.001  24.272  0.00  0.00    +0.000 A 
ATOM     32  C   UNL     1      -4.152  15.778  23.603  0.00  0.00    +0.000 A 
ENDBRANCH  26  27
BRANCH  26  33
ATOM     33  C   UNL     1      -5.009  12.995  22.891  0.00  0.00    +0.000 A 
ATOM     34  C   UNL     1      -5.458  12.720  21.585  0.00  0.00    +0.000 A 
ATOM     35  C   UNL     1      -6.755  12.265  21.334  0.00  0.00    +0.000 A 
ATOM     36  C   UNL     1      -7.647  12.092  22.384  0.00  0.00    +0.000 A 
ATOM     37  C   UNL     1      -7.251  12.411  23.680  0.00  0.00    +0.000 A 
ATOM     38  C   UNL     1      -5.945  12.858  23.934  0.00  0.00    +0.000 A 
ENDBRANCH  26  33
ENDBRANCH   8  26
TORSDOF 7
ENDMDL
