MODEL 1
REMARK VINA RESULT:      -7.1      0.000      0.000
REMARK  Name = 
REMARK  8 active torsions:
REMARK  status: ('A' for Active; 'I' for Inactive)
REMARK    1  A    between atoms: C_1  and  C_2
REMARK    2  A    between atoms: C_4  and  C_5
REMARK    3  A    between atoms: C_7  and  S_8
REMARK    4  A    between atoms: S_8  and  C_9
REMARK    5  A    between atoms: C_9  and  C_10
REMARK    6  A    between atoms: C_10  and  C_11
REMARK    7  A    between atoms: N_13  and  C_14
REMARK    8  A    between atoms: C_19  and  C_20
REMARK                            x       y       z     vdW  Elec       q    Type
REMARK                         _______ _______ _______ _____ _____    ______ ____
ROOT
ATOM      1  C   UNL     1       2.325   3.394  21.165  0.00  0.00    +0.000 C 
ENDROOT
BRANCH   1   2
ATOM      2  C   UNL     1       1.953   4.531  20.231  0.00  0.00    +0.000 C 
ATOM      3  O   UNL     1       1.021   4.435  19.433  0.00  0.00    +0.000 OA
ATOM      4  N   UNL     1       2.770   5.645  20.347  0.00  0.00    +0.000 N 
ATOM      5  H   UNL     1       3.712   5.482  20.679  0.00  0.00    +0.000 HD
BRANCH   4   6
ATOM      6  C   UNL     1       2.569   6.786  19.532  0.00  0.00    +0.000 A 
ATOM      7  C   UNL     1       3.152   6.837  18.258  0.00  0.00    +0.000 A 
ATOM      8  C   UNL     1       2.929   7.927  17.415  0.00  0.00    +0.000 A 
ATOM      9  C   UNL     1       2.130   8.982  17.845  0.00  0.00    +0.000 A 
ATOM     10  C   UNL     1       1.565   8.952  19.120  0.00  0.00    +0.000 A 
ATOM     11  C   UNL     1       1.780   7.860  19.980  0.00  0.00    +0.000 A 
ATOM     12  C   UNL     1       1.256   7.939  21.386  0.00  0.00    +0.000 C 
ENDBRANCH   4   6
ENDBRANCH   1   2
BRANCH   1  13
ATOM     13  C   UNL     1       3.627   2.724  20.709  0.00  0.00    +0.000 C 
BRANCH  13  14
ATOM     14  S   UNL     1       3.523   2.270  18.945  0.00  0.00    +0.000 S 
BRANCH  14  21
ATOM     15  C   UNL     1       7.316   5.740  19.289  0.00  0.00    +0.000 C 
ATOM     16  C   UNL     1       6.380   4.956  18.419  0.00  0.00    +0.000 A 
ATOM     17  C   UNL     1       6.397   5.137  17.045  0.00  0.00    +0.000 A 
ATOM     18  C   UNL     1       5.509   4.380  16.311  0.00  0.00    +0.000 A 
ATOM     19  C   UNL     1       5.441   4.501  14.818  0.00  0.00    +0.000 C 
ATOM     20  N   UNL     1       4.662   3.504  16.887  0.00  0.00    +0.000 NA
ATOM     21  C   UNL     1       4.713   3.387  18.228  0.00  0.00    +0.000 A 
ATOM     22  N   UNL     1       5.539   4.088  19.024  0.00  0.00    +0.000 NA
ENDBRANCH  14  21
ENDBRANCH  13  14
ENDBRANCH   1  13
TORSDOF 5
ENDMDL
MODEL 2
REMARK VINA RESULT:      -7.0      0.703      2.477
REMARK  Name = 
REMARK  8 active torsions:
REMARK  status: ('A' for Active; 'I' for Inactive)
REMARK    1  A    between atoms: C_1  and  C_2
REMARK    2  A    between atoms: C_4  and  C_5
REMARK    3  A    between atoms: C_7  and  S_8
REMARK    4  A    between atoms: S_8  and  C_9
REMARK    5  A    between atoms: C_9  and  C_10
REMARK    6  A    between atoms: C_10  and  C_11
REMARK    7  A    between atoms: N_13  and  C_14
REMARK    8  A    between atoms: C_19  and  C_20
REMARK                            x       y       z     vdW  Elec       q    Type
REMARK                         _______ _______ _______ _____ _____    ______ ____
ROOT
ATOM      1  C   UNL     1       2.572   3.342  21.080  0.00  0.00    +0.000 C 
ENDROOT
BRANCH   1   2
ATOM      2  C   UNL     1       1.859   4.583  20.573  0.00  0.00    +0.000 C 
ATOM      3  O   UNL     1       0.693   4.544  20.180  0.00  0.00    +0.000 OA
ATOM      4  N   UNL     1       2.647   5.723  20.570  0.00  0.00    +0.000 N 
ATOM      5  H   UNL     1       3.646   5.582  20.489  0.00  0.00    +0.000 HD
BRANCH   4   6
ATOM      6  C   UNL     1       2.138   6.962  20.108  0.00  0.00    +0.000 A 
ATOM      7  C   UNL     1       1.360   7.753  20.965  0.00  0.00    +0.000 A 
ATOM      8  C   UNL     1       0.888   8.999  20.550  0.00  0.00    +0.000 A 
ATOM      9  C   UNL     1       1.181   9.461  19.270  0.00  0.00    +0.000 A 
ATOM     10  C   UNL     1       1.934   8.670  18.403  0.00  0.00    +0.000 A 
ATOM     11  C   UNL     1       2.417   7.413  18.805  0.00  0.00    +0.000 A 
ATOM     12  C   UNL     1       3.111   6.550  17.789  0.00  0.00    +0.000 C 
ENDBRANCH   4   6
ENDBRANCH   1   2
BRANCH   1  13
ATOM     13  C   UNL     1       3.896   3.138  20.334  0.00  0.00    +0.000 C 
BRANCH  13  14
ATOM     14  S   UNL     1       3.584   2.790  18.570  0.00  0.00    +0.000 S 
BRANCH  14  21
ATOM     15  C   UNL     1       6.343   4.231  14.464  0.00  0.00    +0.000 C 
ATOM     16  C   UNL     1       6.158   4.263  15.951  0.00  0.00    +0.000 A 
ATOM     17  C   UNL     1       7.072   4.934  16.748  0.00  0.00    +0.000 A 
ATOM     18  C   UNL     1       6.836   4.922  18.106  0.00  0.00    +0.000 A 
ATOM     19  C   UNL     1       7.764   5.613  19.058  0.00  0.00    +0.000 C 
ATOM     20  N   UNL     1       5.772   4.292  18.646  0.00  0.00    +0.000 NA
ATOM     21  C   UNL     1       4.931   3.667  17.800  0.00  0.00    +0.000 A 
ATOM     22  N   UNL     1       5.086   3.620  16.465  0.00  0.00    +0.000 NA
ENDBRANCH  14  21
ENDBRANCH  13  14
ENDBRANCH   1  13
TORSDOF 5
ENDMDL
MODEL 3
REMARK VINA RESULT:      -7.0      0.753      1.659
REMARK  Name = 
REMARK  8 active torsions:
REMARK  status: ('A' for Active; 'I' for Inactive)
REMARK    1  A    between atoms: C_1  and  C_2
REMARK    2  A    between atoms: C_4  and  C_5
REMARK    3  A    between atoms: C_7  and  S_8
REMARK    4  A    between atoms: S_8  and  C_9
REMARK    5  A    between atoms: C_9  and  C_10
REMARK    6  A    between atoms: C_10  and  C_11
REMARK    7  A    between atoms: N_13  and  C_14
REMARK    8  A    between atoms: C_19  and  C_20
REMARK                            x       y       z     vdW  Elec       q    Type
REMARK                         _______ _______ _______ _____ _____    ______ ____
ROOT
ATOM      1  C   UNL     1       2.511   3.052  20.852  0.00  0.00    +0.000 C 
ENDROOT
BRANCH   1   2
ATOM      2  C   UNL     1       1.825   4.343  20.444  0.00  0.00    +0.000 C 
ATOM      3  O   UNL     1       0.637   4.370  20.120  0.00  0.00    +0.000 OA
ATOM      4  N   UNL     1       2.660   5.449  20.444  0.00  0.00    +0.000 N 
ATOM      5  H   UNL     1       3.646   5.271  20.297  0.00  0.00    +0.000 HD
BRANCH   4   6
ATOM      6  C   UNL     1       2.180   6.727  20.068  0.00  0.00    +0.000 A 
ATOM      7  C   UNL     1       1.415   7.473  20.975  0.00  0.00    +0.000 A 
ATOM      8  C   UNL     1       0.971   8.755  20.648  0.00  0.00    +0.000 A 
ATOM      9  C   UNL     1       1.279   9.299  19.404  0.00  0.00    +0.000 A 
ATOM     10  C   UNL     1       2.020   8.555  18.486  0.00  0.00    +0.000 A 
ATOM     11  C   UNL     1       2.475   7.263  18.801  0.00  0.00    +0.000 A 
ATOM     12  C   UNL     1       3.155   6.458  17.729  0.00  0.00    +0.000 C 
ENDBRANCH   4   6
ENDBRANCH   1   2
BRANCH   1  13
ATOM     13  C   UNL     1       3.872   2.921  20.157  0.00  0.00    +0.000 C 
BRANCH  13  14
ATOM     14  S   UNL     1       3.651   2.758  18.353  0.00  0.00    +0.000 S 
BRANCH  14  21
ATOM     15  C   UNL     1       7.811   5.722  19.034  0.00  0.00    +0.000 C 
ATOM     16  C   UNL     1       6.884   5.022  18.085  0.00  0.00    +0.000 A 
ATOM     17  C   UNL     1       7.084   5.129  16.717  0.00  0.00    +0.000 A 
ATOM     18  C   UNL     1       6.193   4.458  15.907  0.00  0.00    +0.000 A 
ATOM     19  C   UNL     1       6.315   4.510  14.414  0.00  0.00    +0.000 C 
ATOM     20  N   UNL     1       5.175   3.729  16.407  0.00  0.00    +0.000 NA
ATOM     21  C   UNL     1       5.055   3.674  17.747  0.00  0.00    +0.000 A 
ATOM     22  N   UNL     1       5.870   4.302  18.613  0.00  0.00    +0.000 NA
ENDBRANCH  14  21
ENDBRANCH  13  14
ENDBRANCH   1  13
TORSDOF 5
ENDMDL
MODEL 4
REMARK VINA RESULT:      -6.7      3.332      5.317
REMARK  Name = 
REMARK  8 active torsions:
REMARK  status: ('A' for Active; 'I' for Inactive)
REMARK    1  A    between atoms: C_1  and  C_2
REMARK    2  A    between atoms: C_4  and  C_5
REMARK    3  A    between atoms: C_7  and  S_8
REMARK    4  A    between atoms: S_8  and  C_9
REMARK    5  A    between atoms: C_9  and  C_10
REMARK    6  A    between atoms: C_10  and  C_11
REMARK    7  A    between atoms: N_13  and  C_14
REMARK    8  A    between atoms: C_19  and  C_20
REMARK                            x       y       z     vdW  Elec       q    Type
REMARK                         _______ _______ _______ _____ _____    ______ ____
ROOT
ATOM      1  C   UNL     1       6.839   4.542  18.338  0.00  0.00    +0.000 C 
ENDROOT
BRANCH   1   2
ATOM      2  C   UNL     1       5.471   4.506  18.994  0.00  0.00    +0.000 C 
ATOM      3  O   UNL     1       4.958   5.515  19.478  0.00  0.00    +0.000 OA
ATOM      4  N   UNL     1       4.891   3.246  19.017  0.00  0.00    +0.000 N 
ATOM      5  H   UNL     1       5.525   2.457  19.005  0.00  0.00    +0.000 HD
BRANCH   4   6
ATOM      6  C   UNL     1       3.623   3.037  19.612  0.00  0.00    +0.000 A 
ATOM      7  C   UNL     1       3.534   2.830  20.996  0.00  0.00    +0.000 A 
ATOM      8  C   UNL     1       2.292   2.671  21.614  0.00  0.00    +0.000 A 
ATOM      9  C   UNL     1       1.129   2.707  20.851  0.00  0.00    +0.000 A 
ATOM     10  C   UNL     1       1.209   2.890  19.471  0.00  0.00    +0.000 A 
ATOM     11  C   UNL     1       2.452   3.052  18.834  0.00  0.00    +0.000 A 
ATOM     12  C   UNL     1       2.488   3.115  17.332  0.00  0.00    +0.000 C 
ENDBRANCH   4   6
ENDBRANCH   1   2
BRANCH   1  13
ATOM     13  C   UNL     1       6.799   5.375  17.051  0.00  0.00    +0.000 C 
BRANCH  13  14
ATOM     14  S   UNL     1       5.313   4.965  16.076  0.00  0.00    +0.000 S 
BRANCH  14  21
ATOM     15  C   UNL     1       5.552   2.437  11.592  0.00  0.00    +0.000 C 
ATOM     16  C   UNL     1       6.124   3.488  12.496  0.00  0.00    +0.000 A 
ATOM     17  C   UNL     1       7.252   4.194  12.110  0.00  0.00    +0.000 A 
ATOM     18  C   UNL     1       7.720   5.145  12.992  0.00  0.00    +0.000 A 
ATOM     19  C   UNL     1       8.936   5.962  12.675  0.00  0.00    +0.000 C 
ATOM     20  N   UNL     1       7.119   5.386  14.175  0.00  0.00    +0.000 NA
ATOM     21  C   UNL     1       6.025   4.658  14.471  0.00  0.00    +0.000 A 
ATOM     22  N   UNL     1       5.504   3.706  13.677  0.00  0.00    +0.000 NA
ENDBRANCH  14  21
ENDBRANCH  13  14
ENDBRANCH   1  13
TORSDOF 5
ENDMDL
MODEL 5
REMARK VINA RESULT:      -6.6      2.838      5.304
REMARK  Name = 
REMARK  8 active torsions:
REMARK  status: ('A' for Active; 'I' for Inactive)
REMARK    1  A    between atoms: C_1  and  C_2
REMARK    2  A    between atoms: C_4  and  C_5
REMARK    3  A    between atoms: C_7  and  S_8
REMARK    4  A    between atoms: S_8  and  C_9
REMARK    5  A    between atoms: C_9  and  C_10
REMARK    6  A    between atoms: C_10  and  C_11
REMARK    7  A    between atoms: N_13  and  C_14
REMARK    8  A    between atoms: C_19  and  C_20
REMARK                            x       y       z     vdW  Elec       q    Type
REMARK                         _______ _______ _______ _____ _____    ______ ____
ROOT
ATOM      1  C   UNL     1       4.830   6.195  16.666  0.00  0.00    +0.000 C 
ENDROOT
BRANCH   1   2
ATOM      2  C   UNL     1       4.270   5.537  17.914  0.00  0.00    +0.000 C 
ATOM      3  O   UNL     1       4.848   5.610  18.998  0.00  0.00    +0.000 OA
ATOM      4  N   UNL     1       3.091   4.840  17.703  0.00  0.00    +0.000 N 
ATOM      5  H   UNL     1       2.939   4.482  16.768  0.00  0.00    +0.000 HD
BRANCH   4   6
ATOM      6  C   UNL     1       2.449   4.152  18.762  0.00  0.00    +0.000 A 
ATOM      7  C   UNL     1       1.668   4.868  19.678  0.00  0.00    +0.000 A 
ATOM      8  C   UNL     1       0.985   4.208  20.701  0.00  0.00    +0.000 A 
ATOM      9  C   UNL     1       1.088   2.826  20.823  0.00  0.00    +0.000 A 
ATOM     10  C   UNL     1       1.882   2.107  19.930  0.00  0.00    +0.000 A 
ATOM     11  C   UNL     1       2.575   2.758  18.894  0.00  0.00    +0.000 A 
ATOM     12  C   UNL     1       3.517   1.953  18.043  0.00  0.00    +0.000 C 
ENDBRANCH   4   6
ENDBRANCH   1   2
BRANCH   1  13
ATOM     13  C   UNL     1       6.363   6.216  16.708  0.00  0.00    +0.000 C 
BRANCH  13  14
ATOM     14  S   UNL     1       7.030   4.554  16.363  0.00  0.00    +0.000 S 
BRANCH  14  21
ATOM     15  C   UNL     1       5.380   2.584  11.897  0.00  0.00    +0.000 C 
ATOM     16  C   UNL     1       6.233   3.590  12.610  0.00  0.00    +0.000 A 
ATOM     17  C   UNL     1       7.022   4.467  11.882  0.00  0.00    +0.000 A 
ATOM     18  C   UNL     1       7.779   5.365  12.606  0.00  0.00    +0.000 A 
ATOM     19  C   UNL     1       8.671   6.354  11.919  0.00  0.00    +0.000 C 
ATOM     20  N   UNL     1       7.760   5.399  13.954  0.00  0.00    +0.000 NA
ATOM     21  C   UNL     1       6.962   4.515  14.583  0.00  0.00    +0.000 A 
ATOM     22  N   UNL     1       6.198   3.600  13.960  0.00  0.00    +0.000 NA
ENDBRANCH  14  21
ENDBRANCH  13  14
ENDBRANCH   1  13
TORSDOF 5
ENDMDL
MODEL 6
REMARK VINA RESULT:      -6.6      2.812      4.835
REMARK  Name = 
REMARK  8 active torsions:
REMARK  status: ('A' for Active; 'I' for Inactive)
REMARK    1  A    between atoms: C_1  and  C_2
REMARK    2  A    between atoms: C_4  and  C_5
REMARK    3  A    between atoms: C_7  and  S_8
REMARK    4  A    between atoms: S_8  and  C_9
REMARK    5  A    between atoms: C_9  and  C_10
REMARK    6  A    between atoms: C_10  and  C_11
REMARK    7  A    between atoms: N_13  and  C_14
REMARK    8  A    between atoms: C_19  and  C_20
REMARK                            x       y       z     vdW  Elec       q    Type
REMARK                         _______ _______ _______ _____ _____    ______ ____
ROOT
ATOM      1  C   UNL     1       5.535   6.739  17.467  0.00  0.00    +0.000 C 
ENDROOT
BRANCH   1   2
ATOM      2  C   UNL     1       4.709   5.807  18.336  0.00  0.00    +0.000 C 
ATOM      3  O   UNL     1       5.190   5.242  19.318  0.00  0.00    +0.000 OA
ATOM      4  N   UNL     1       3.403   5.641  17.901  0.00  0.00    +0.000 N 
ATOM      5  H   UNL     1       3.237   5.775  16.911  0.00  0.00    +0.000 HD
BRANCH   4   6
ATOM      6  C   UNL     1       2.507   4.788  18.589  0.00  0.00    +0.000 A 
ATOM      7  C   UNL     1       2.240   3.510  18.080  0.00  0.00    +0.000 A 
ATOM      8  C   UNL     1       1.399   2.632  18.766  0.00  0.00    +0.000 A 
ATOM      9  C   UNL     1       0.809   3.029  19.961  0.00  0.00    +0.000 A 
ATOM     10  C   UNL     1       1.050   4.307  20.464  0.00  0.00    +0.000 A 
ATOM     11  C   UNL     1       1.895   5.203  19.786  0.00  0.00    +0.000 A 
ATOM     12  C   UNL     1       2.016   6.609  20.303  0.00  0.00    +0.000 C 
ENDBRANCH   4   6
ENDBRANCH   1   2
BRANCH   1  13
ATOM     13  C   UNL     1       6.691   5.977  16.808  0.00  0.00    +0.000 C 
BRANCH  13  14
ATOM     14  S   UNL     1       6.152   4.306  16.314  0.00  0.00    +0.000 S 
BRANCH  14  21
ATOM     15  C   UNL     1       5.672   2.479  11.521  0.00  0.00    +0.000 C 
ATOM     16  C   UNL     1       6.321   3.456  12.454  0.00  0.00    +0.000 A 
ATOM     17  C   UNL     1       7.270   4.346  11.975  0.00  0.00    +0.000 A 
ATOM     18  C   UNL     1       7.822   5.215  12.891  0.00  0.00    +0.000 A 
ATOM     19  C   UNL     1       8.861   6.215  12.480  0.00  0.00    +0.000 C 
ATOM     20  N   UNL     1       7.465   5.212  14.192  0.00  0.00    +0.000 NA
ATOM     21  C   UNL     1       6.533   4.318  14.573  0.00  0.00    +0.000 A 
ATOM     22  N   UNL     1       5.948   3.428  13.752  0.00  0.00    +0.000 NA
ENDBRANCH  14  21
ENDBRANCH  13  14
ENDBRANCH   1  13
TORSDOF 5
ENDMDL
MODEL 7
REMARK VINA RESULT:      -6.5      2.851      4.814
REMARK  Name = 
REMARK  8 active torsions:
REMARK  status: ('A' for Active; 'I' for Inactive)
REMARK    1  A    between atoms: C_1  and  C_2
REMARK    2  A    between atoms: C_4  and  C_5
REMARK    3  A    between atoms: C_7  and  S_8
REMARK    4  A    between atoms: S_8  and  C_9
REMARK    5  A    between atoms: C_9  and  C_10
REMARK    6  A    between atoms: C_10  and  C_11
REMARK    7  A    between atoms: N_13  and  C_14
REMARK    8  A    between atoms: C_19  and  C_20
REMARK                            x       y       z     vdW  Elec       q    Type
REMARK                         _______ _______ _______ _____ _____    ______ ____
ROOT
ATOM      1  C   UNL     1       6.207   5.810  18.347  0.00  0.00    +0.000 C 
ENDROOT
BRANCH   1   2
ATOM      2  C   UNL     1       5.266   4.809  18.991  0.00  0.00    +0.000 C 
ATOM      3  O   UNL     1       5.637   3.675  19.294  0.00  0.00    +0.000 OA
ATOM      4  N   UNL     1       3.976   5.283  19.170  0.00  0.00    +0.000 N 
ATOM      5  H   UNL     1       3.668   6.007  18.532  0.00  0.00    +0.000 HD
BRANCH   4   6
ATOM      6  C   UNL     1       2.970   4.465  19.740  0.00  0.00    +0.000 A 
ATOM      7  C   UNL     1       3.016   4.165  21.108  0.00  0.00    +0.000 A 
ATOM      8  C   UNL     1       2.011   3.403  21.705  0.00  0.00    +0.000 A 
ATOM      9  C   UNL     1       0.955   2.924  20.935  0.00  0.00    +0.000 A 
ATOM     10  C   UNL     1       0.912   3.198  19.568  0.00  0.00    +0.000 A 
ATOM     11  C   UNL     1       1.917   3.966  18.953  0.00  0.00    +0.000 A 
ATOM     12  C   UNL     1       1.890   4.120  17.458  0.00  0.00    +0.000 C 
ENDBRANCH   4   6
ENDBRANCH   1   2
BRANCH   1  13
ATOM     13  C   UNL     1       5.940   5.910  16.840  0.00  0.00    +0.000 C 
BRANCH  13  14
ATOM     14  S   UNL     1       5.349   4.310  16.193  0.00  0.00    +0.000 S 
BRANCH  14  21
ATOM     15  C   UNL     1       8.742   6.034  12.720  0.00  0.00    +0.000 C 
ATOM     16  C   UNL     1       7.620   5.096  13.050  0.00  0.00    +0.000 A 
ATOM     17  C   UNL     1       7.134   4.231  12.083  0.00  0.00    +0.000 A 
ATOM     18  C   UNL     1       6.102   3.397  12.460  0.00  0.00    +0.000 A 
ATOM     19  C   UNL     1       5.499   2.426  11.490  0.00  0.00    +0.000 C 
ATOM     20  N   UNL     1       5.585   3.412  13.705  0.00  0.00    +0.000 NA
ATOM     21  C   UNL     1       6.118   4.280  14.585  0.00  0.00    +0.000 A 
ATOM     22  N   UNL     1       7.118   5.135  14.303  0.00  0.00    +0.000 NA
ENDBRANCH  14  21
ENDBRANCH  13  14
ENDBRANCH   1  13
TORSDOF 5
ENDMDL
MODEL 8
REMARK VINA RESULT:      -6.5      1.684      5.438
REMARK  Name = 
REMARK  8 active torsions:
REMARK  status: ('A' for Active; 'I' for Inactive)
REMARK    1  A    between atoms: C_1  and  C_2
REMARK    2  A    between atoms: C_4  and  C_5
REMARK    3  A    between atoms: C_7  and  S_8
REMARK    4  A    between atoms: S_8  and  C_9
REMARK    5  A    between atoms: C_9  and  C_10
REMARK    6  A    between atoms: C_10  and  C_11
REMARK    7  A    between atoms: N_13  and  C_14
REMARK    8  A    between atoms: C_19  and  C_20
REMARK                            x       y       z     vdW  Elec       q    Type
REMARK                         _______ _______ _______ _____ _____    ______ ____
ROOT
ATOM      1  C   UNL     1       2.367   2.234  19.275  0.00  0.00    +0.000 C 
ENDROOT
BRANCH   1   2
ATOM      2  C   UNL     1       3.789   2.758  19.193  0.00  0.00    +0.000 C 
ATOM      3  O   UNL     1       4.707   2.240  19.830  0.00  0.00    +0.000 OA
ATOM      4  N   UNL     1       3.935   3.866  18.373  0.00  0.00    +0.000 N 
ATOM      5  H   UNL     1       3.118   4.452  18.256  0.00  0.00    +0.000 HD
BRANCH   4   6
ATOM      6  C   UNL     1       5.196   4.488  18.204  0.00  0.00    +0.000 A 
ATOM      7  C   UNL     1       5.812   5.112  19.298  0.00  0.00    +0.000 A 
ATOM      8  C   UNL     1       7.077   5.689  19.171  0.00  0.00    +0.000 A 
ATOM      9  C   UNL     1       7.732   5.657  17.944  0.00  0.00    +0.000 A 
ATOM     10  C   UNL     1       7.118   5.059  16.844  0.00  0.00    +0.000 A 
ATOM     11  C   UNL     1       5.845   4.473  16.956  0.00  0.00    +0.000 A 
ATOM     12  C   UNL     1       5.176   3.960  15.711  0.00  0.00    +0.000 C 
ENDBRANCH   4   6
ENDBRANCH   1   2
BRANCH   1  13
ATOM     13  C   UNL     1       1.395   3.366  19.634  0.00  0.00    +0.000 C 
BRANCH  13  14
ATOM     14  S   UNL     1       2.021   4.311  21.063  0.00  0.00    +0.000 S 
BRANCH  14  21
ATOM     15  C   UNL     1       2.988   8.077  17.682  0.00  0.00    +0.000 C 
ATOM     16  C   UNL     1       2.335   7.649  18.962  0.00  0.00    +0.000 A 
ATOM     17  C   UNL     1       1.641   8.572  19.728  0.00  0.00    +0.000 A 
ATOM     18  C   UNL     1       1.067   8.105  20.891  0.00  0.00    +0.000 A 
ATOM     19  C   UNL     1       0.297   9.020  21.795  0.00  0.00    +0.000 C 
ATOM     20  N   UNL     1       1.167   6.816  21.276  0.00  0.00    +0.000 NA
ATOM     21  C   UNL     1       1.857   5.984  20.472  0.00  0.00    +0.000 A 
ATOM     22  N   UNL     1       2.456   6.353  19.325  0.00  0.00    +0.000 NA
ENDBRANCH  14  21
ENDBRANCH  13  14
ENDBRANCH   1  13
TORSDOF 5
ENDMDL
MODEL 9
REMARK VINA RESULT:      -6.4      1.647      5.211
REMARK  Name = 
REMARK  8 active torsions:
REMARK  status: ('A' for Active; 'I' for Inactive)
REMARK    1  A    between atoms: C_1  and  C_2
REMARK    2  A    between atoms: C_4  and  C_5
REMARK    3  A    between atoms: C_7  and  S_8
REMARK    4  A    between atoms: S_8  and  C_9
REMARK    5  A    between atoms: C_9  and  C_10
REMARK    6  A    between atoms: C_10  and  C_11
REMARK    7  A    between atoms: N_13  and  C_14
REMARK    8  A    between atoms: C_19  and  C_20
REMARK                            x       y       z     vdW  Elec       q    Type
REMARK                         _______ _______ _______ _____ _____    ______ ____
ROOT
ATOM      1  C   UNL     1       1.960   2.339  18.659  0.00  0.00    +0.000 C 
ENDROOT
BRANCH   1   2
ATOM      2  C   UNL     1       3.411   2.758  18.809  0.00  0.00    +0.000 C 
ATOM      3  O   UNL     1       4.177   2.174  19.576  0.00  0.00    +0.000 OA
ATOM      4  N   UNL     1       3.763   3.856  18.039  0.00  0.00    +0.000 N 
ATOM      5  H   UNL     1       3.018   4.499  17.802  0.00  0.00    +0.000 HD
BRANCH   4   6
ATOM      6  C   UNL     1       5.076   4.386  18.080  0.00  0.00    +0.000 A 
ATOM      7  C   UNL     1       5.522   5.038  19.237  0.00  0.00    +0.000 A 
ATOM      8  C   UNL     1       6.827   5.526  19.322  0.00  0.00    +0.000 A 
ATOM      9  C   UNL     1       7.695   5.375  18.244  0.00  0.00    +0.000 A 
ATOM     10  C   UNL     1       7.252   4.748  17.080  0.00  0.00    +0.000 A 
ATOM     11  C   UNL     1       5.941   4.251  16.979  0.00  0.00    +0.000 A 
ATOM     12  C   UNL     1       5.479   3.703  15.658  0.00  0.00    +0.000 C 
ENDBRANCH   4   6
ENDBRANCH   1   2
BRANCH   1  13
ATOM     13  C   UNL     1       1.028   3.382  19.287  0.00  0.00    +0.000 C 
BRANCH  13  14
ATOM     14  S   UNL     1       1.766   4.056  20.813  0.00  0.00    +0.000 S 
BRANCH  14  21
ATOM     15  C   UNL     1       0.674   8.989  21.823  0.00  0.00    +0.000 C 
ATOM     16  C   UNL     1       1.288   7.982  20.897  0.00  0.00    +0.000 A 
ATOM     17  C   UNL     1       1.859   8.397  19.704  0.00  0.00    +0.000 A 
ATOM     18  C   UNL     1       2.405   7.415  18.905  0.00  0.00    +0.000 A 
ATOM     19  C   UNL     1       3.044   7.754  17.592  0.00  0.00    +0.000 C 
ATOM     20  N   UNL     1       2.393   6.113  19.255  0.00  0.00    +0.000 NA
ATOM     21  C   UNL     1       1.821   5.796  20.433  0.00  0.00    +0.000 A 
ATOM     22  N   UNL     1       1.258   6.684  21.271  0.00  0.00    +0.000 NA
ENDBRANCH  14  21
ENDBRANCH  13  14
ENDBRANCH   1  13
TORSDOF 5
ENDMDL
