MODEL 1
REMARK VINA RESULT:      -8.7      0.000      0.000
REMARK  Name = 
REMARK  6 active torsions:
REMARK  status: ('A' for Active; 'I' for Inactive)
REMARK    1  A    between atoms: N_1  and  S_2
REMARK    2  A    between atoms: S_2  and  C_5
REMARK    3  A    between atoms: C_8  and  N_9
REMARK    4  A    between atoms: C_11  and  C_12
REMARK    5  A    between atoms: N_14  and  C_15
REMARK    6  A    between atoms: C_26  and  C_27
REMARK                            x       y       z     vdW  Elec       q    Type
REMARK                         _______ _______ _______ _____ _____    ______ ____
ROOT
ATOM      1  N   UNL     1       0.510  11.040  19.996  0.00  0.00    +0.000 N 
ATOM      2  N   UNL     1       0.785   9.717  19.852  0.00  0.00    +0.000 NA
ATOM      3  C   UNL     1       1.685   9.643  18.864  0.00  0.00    +0.000 A 
ATOM      4  C   UNL     1       2.106  10.957  18.481  0.00  0.00    +0.000 A 
ATOM      5  C   UNL     1       1.378  11.848  19.250  0.00  0.00    +0.000 A 
ENDROOT
BRANCH   1   9
ATOM      6  C   UNL     1      -2.730  12.269  22.366  0.00  0.00    +0.000 A 
ATOM      7  C   UNL     1      -2.771  12.455  20.981  0.00  0.00    +0.000 A 
ATOM      8  C   UNL     1      -1.692  12.040  20.200  0.00  0.00    +0.000 A 
ATOM      9  C   UNL     1      -0.583  11.434  20.810  0.00  0.00    +0.000 A 
ATOM     10  C   UNL     1      -0.565  11.225  22.196  0.00  0.00    +0.000 A 
ATOM     11  C   UNL     1      -1.640  11.643  22.976  0.00  0.00    +0.000 A 
BRANCH   6  12
ATOM     12  S   UNL     1      -4.060  12.848  23.380  0.00  0.00    +0.000 S 
ATOM     13  O   UNL     1      -3.929  14.277  23.542  0.00  0.00    +0.000 OA
ATOM     14  O   UNL     1      -4.230  11.948  24.497  0.00  0.00    +0.000 OA
BRANCH  12  15
ATOM     15  N   UNL     1      -5.401  12.590  22.405  0.00  0.00    +0.000 NA
ATOM     16  H   UNL     1      -5.075  12.239  21.501  0.00  0.00    +0.000 HD
ATOM     17  H   UNL     1      -5.945  13.449  22.318  0.00  0.00    +0.000 HD
ENDBRANCH  12  15
ENDBRANCH   6  12
ENDBRANCH   1   9
BRANCH   5  18
ATOM     18  C   UNL     1       1.527  13.312  19.373  0.00  0.00    +0.000 A 
ATOM     19  C   UNL     1       2.538  13.878  20.160  0.00  0.00    +0.000 A 
ATOM     20  C   UNL     1       2.654  15.270  20.277  0.00  0.00    +0.000 A 
ATOM     21  C   UNL     1       1.786  16.113  19.584  0.00  0.00    +0.000 A 
ATOM     22  C   UNL     1       0.788  15.571  18.789  0.00  0.00    +0.000 A 
ATOM     23  C   UNL     1       0.639  14.188  18.723  0.00  0.00    +0.000 A 
ENDBRANCH   5  18
BRANCH   3  24
ATOM     24  C   UNL     1       2.162   8.368  18.301  0.00  0.00    +0.000 C 
ATOM     25  O   UNL     1       2.463   8.261  17.121  0.00  0.00    +0.000 OA
ATOM     26  N   UNL     1       2.240   7.323  19.214  0.00  0.00    +0.000 N 
ATOM     27  H   UNL     1       1.891   7.546  20.142  0.00  0.00    +0.000 HD
BRANCH  26  28
ATOM     28  C   UNL     1       2.690   5.955  18.908  0.00  0.00    +0.000 C 
ATOM     29  C   UNL     1       4.129   5.948  18.323  0.00  0.00    +0.000 C 
ATOM     30  C   UNL     1       4.603   4.513  18.033  0.00  0.00    +0.000 C 
ATOM     31  C   UNL     1       4.604   3.708  19.341  0.00  0.00    +0.000 C 
ATOM     32  C   UNL     1       3.185   3.661  19.924  0.00  0.00    +0.000 C 
ATOM     33  C   UNL     1       2.249   2.994  18.902  0.00  0.00    +0.000 C 
ATOM     34  C   UNL     1       2.220   3.818  17.605  0.00  0.00    +0.000 C 
ATOM     35  C   UNL     1       3.641   3.870  17.020  0.00  0.00    +0.000 C 
ATOM     36  C   UNL     1       1.736   5.249  17.911  0.00  0.00    +0.000 C 
ATOM     37  C   UNL     1       2.700   5.098  20.207  0.00  0.00    +0.000 C 
ENDBRANCH  26  28
ENDBRANCH   3  24
TORSDOF 6
ENDMDL
MODEL 2
REMARK VINA RESULT:      -8.7      0.130      1.540
REMARK  Name = 
REMARK  6 active torsions:
REMARK  status: ('A' for Active; 'I' for Inactive)
REMARK    1  A    between atoms: N_1  and  S_2
REMARK    2  A    between atoms: S_2  and  C_5
REMARK    3  A    between atoms: C_8  and  N_9
REMARK    4  A    between atoms: C_11  and  C_12
REMARK    5  A    between atoms: N_14  and  C_15
REMARK    6  A    between atoms: C_26  and  C_27
REMARK                            x       y       z     vdW  Elec       q    Type
REMARK                         _______ _______ _______ _____ _____    ______ ____
ROOT
ATOM      1  N   UNL     1       0.489  11.036  19.973  0.00  0.00    +0.000 N 
ATOM      2  N   UNL     1       0.804   9.718  19.864  0.00  0.00    +0.000 NA
ATOM      3  C   UNL     1       1.670   9.638  18.846  0.00  0.00    +0.000 A 
ATOM      4  C   UNL     1       2.031  10.951  18.402  0.00  0.00    +0.000 A 
ATOM      5  C   UNL     1       1.301  11.844  19.167  0.00  0.00    +0.000 A 
ENDROOT
BRANCH   1   9
ATOM      6  C   UNL     1      -2.700  12.243  22.421  0.00  0.00    +0.000 A 
ATOM      7  C   UNL     1      -2.774  12.433  21.038  0.00  0.00    +0.000 A 
ATOM      8  C   UNL     1      -1.711  12.026  20.231  0.00  0.00    +0.000 A 
ATOM      9  C   UNL     1      -0.586  11.422  20.813  0.00  0.00    +0.000 A 
ATOM     10  C   UNL     1      -0.536  11.208  22.197  0.00  0.00    +0.000 A 
ATOM     11  C   UNL     1      -1.594  11.618  23.004  0.00  0.00    +0.000 A 
BRANCH   6  12
ATOM     12  S   UNL     1      -4.009  12.812  23.468  0.00  0.00    +0.000 S 
ATOM     13  O   UNL     1      -3.865  14.237  23.652  0.00  0.00    +0.000 OA
ATOM     14  O   UNL     1      -4.166  11.894  24.571  0.00  0.00    +0.000 OA
BRANCH  12  15
ATOM     15  N   UNL     1      -5.368  12.581  22.511  0.00  0.00    +0.000 NA
ATOM     16  H   UNL     1      -5.132  12.847  21.552  0.00  0.00    +0.000 HD
ATOM     17  H   UNL     1      -6.156  13.112  22.882  0.00  0.00    +0.000 HD
ENDBRANCH  12  15
ENDBRANCH   6  12
ENDBRANCH   1   9
BRANCH   5  18
ATOM     18  C   UNL     1       1.404  13.316  19.234  0.00  0.00    +0.000 A 
ATOM     19  C   UNL     1       0.410  14.141  18.691  0.00  0.00    +0.000 A 
ATOM     20  C   UNL     1       0.532  15.536  18.750  0.00  0.00    +0.000 A 
ATOM     21  C   UNL     1       1.628  16.124  19.381  0.00  0.00    +0.000 A 
ATOM     22  C   UNL     1       2.614  15.324  19.937  0.00  0.00    +0.000 A 
ATOM     23  C   UNL     1       2.519  13.939  19.823  0.00  0.00    +0.000 A 
ENDBRANCH   5  18
BRANCH   3  24
ATOM     24  C   UNL     1       2.169   8.360  18.311  0.00  0.00    +0.000 C 
ATOM     25  O   UNL     1       2.506   8.244  17.141  0.00  0.00    +0.000 OA
ATOM     26  N   UNL     1       2.225   7.325  19.235  0.00  0.00    +0.000 N 
ATOM     27  H   UNL     1       1.847   7.554  20.150  0.00  0.00    +0.000 HD
BRANCH  26  28
ATOM     28  C   UNL     1       2.691   5.956  18.956  0.00  0.00    +0.000 C 
ATOM     29  C   UNL     1       2.681   5.081  20.239  0.00  0.00    +0.000 C 
ATOM     30  C   UNL     1       3.141   3.644  19.934  0.00  0.00    +0.000 C 
ATOM     31  C   UNL     1       2.187   3.016  18.907  0.00  0.00    +0.000 C 
ATOM     32  C   UNL     1       2.205   3.837  17.610  0.00  0.00    +0.000 C 
ATOM     33  C   UNL     1       3.637   3.851  17.050  0.00  0.00    +0.000 C 
ATOM     34  C   UNL     1       4.587   4.510  18.062  0.00  0.00    +0.000 C 
ATOM     35  C   UNL     1       4.568   3.693  19.364  0.00  0.00    +0.000 C 
ATOM     36  C   UNL     1       4.118   5.950  18.350  0.00  0.00    +0.000 C 
ATOM     37  C   UNL     1       1.754   5.281  17.912  0.00  0.00    +0.000 C 
ENDBRANCH  26  28
ENDBRANCH   3  24
TORSDOF 6
ENDMDL
MODEL 3
REMARK VINA RESULT:      -8.6      2.886      4.495
REMARK  Name = 
REMARK  6 active torsions:
REMARK  status: ('A' for Active; 'I' for Inactive)
REMARK    1  A    between atoms: N_1  and  S_2
REMARK    2  A    between atoms: S_2  and  C_5
REMARK    3  A    between atoms: C_8  and  N_9
REMARK    4  A    between atoms: C_11  and  C_12
REMARK    5  A    between atoms: N_14  and  C_15
REMARK    6  A    between atoms: C_26  and  C_27
REMARK                            x       y       z     vdW  Elec       q    Type
REMARK                         _______ _______ _______ _____ _____    ______ ____
ROOT
ATOM      1  N   UNL     1       0.993  11.518  19.227  0.00  0.00    +0.000 N 
ATOM      2  N   UNL     1       1.654  10.693  18.372  0.00  0.00    +0.000 NA
ATOM      3  C   UNL     1       1.478   9.458  18.857  0.00  0.00    +0.000 A 
ATOM      4  C   UNL     1       0.557   9.485  19.952  0.00  0.00    +0.000 A 
ATOM      5  C   UNL     1       0.214  10.810  20.152  0.00  0.00    +0.000 A 
ENDROOT
BRANCH   1   9
ATOM      6  C   UNL     1       1.586  15.666  18.975  0.00  0.00    +0.000 A 
ATOM      7  C   UNL     1       2.628  14.839  19.406  0.00  0.00    +0.000 A 
ATOM      8  C   UNL     1       2.424  13.461  19.484  0.00  0.00    +0.000 A 
ATOM      9  C   UNL     1       1.182  12.919  19.120  0.00  0.00    +0.000 A 
ATOM     10  C   UNL     1       0.154  13.754  18.659  0.00  0.00    +0.000 A 
ATOM     11  C   UNL     1       0.356  15.130  18.585  0.00  0.00    +0.000 A 
BRANCH   6  12
ATOM     12  S   UNL     1       1.805  17.422  18.932  0.00  0.00    +0.000 S 
ATOM     13  O   UNL     1       2.993  17.757  19.681  0.00  0.00    +0.000 OA
ATOM     14  O   UNL     1       0.531  18.063  19.162  0.00  0.00    +0.000 OA
BRANCH  12  15
ATOM     15  N   UNL     1       2.151  17.707  17.315  0.00  0.00    +0.000 NA
ATOM     16  H   UNL     1       3.162  17.835  17.223  0.00  0.00    +0.000 HD
ATOM     17  H   UNL     1       1.622  18.513  16.978  0.00  0.00    +0.000 HD
ENDBRANCH  12  15
ENDBRANCH   6  12
ENDBRANCH   1   9
BRANCH   5  18
ATOM     18  C   UNL     1      -0.815  11.384  21.042  0.00  0.00    +0.000 A 
ATOM     19  C   UNL     1      -0.704  11.297  22.436  0.00  0.00    +0.000 A 
ATOM     20  C   UNL     1      -1.697  11.833  23.266  0.00  0.00    +0.000 A 
ATOM     21  C   UNL     1      -2.796  12.494  22.716  0.00  0.00    +0.000 A 
ATOM     22  C   UNL     1      -2.917  12.603  21.339  0.00  0.00    +0.000 A 
ATOM     23  C   UNL     1      -1.957  12.016  20.518  0.00  0.00    +0.000 A 
ENDBRANCH   5  18
BRANCH   3  24
ATOM     24  C   UNL     1       2.141   8.269  18.293  0.00  0.00    +0.000 C 
ATOM     25  O   UNL     1       2.624   8.277  17.169  0.00  0.00    +0.000 OA
ATOM     26  N   UNL     1       2.172   7.166  19.137  0.00  0.00    +0.000 N 
ATOM     27  H   UNL     1       1.670   7.290  20.012  0.00  0.00    +0.000 HD
BRANCH  26  28
ATOM     28  C   UNL     1       2.778   5.863  18.817  0.00  0.00    +0.000 C 
ATOM     29  C   UNL     1       4.207   6.030  18.232  0.00  0.00    +0.000 C 
ATOM     30  C   UNL     1       4.845   4.663  17.927  0.00  0.00    +0.000 C 
ATOM     31  C   UNL     1       4.941   3.850  19.226  0.00  0.00    +0.000 C 
ATOM     32  C   UNL     1       3.537   3.631  19.808  0.00  0.00    +0.000 C 
ATOM     33  C   UNL     1       2.685   2.872  18.779  0.00  0.00    +0.000 C 
ATOM     34  C   UNL     1       2.559   3.700  17.490  0.00  0.00    +0.000 C 
ATOM     35  C   UNL     1       3.964   3.924  16.907  0.00  0.00    +0.000 C 
ATOM     36  C   UNL     1       1.911   5.062  17.812  0.00  0.00    +0.000 C 
ATOM     37  C   UNL     1       2.889   4.999  20.107  0.00  0.00    +0.000 C 
ENDBRANCH  26  28
ENDBRANCH   3  24
TORSDOF 6
ENDMDL
MODEL 4
REMARK VINA RESULT:      -8.6      0.155      1.743
REMARK  Name = 
REMARK  6 active torsions:
REMARK  status: ('A' for Active; 'I' for Inactive)
REMARK    1  A    between atoms: N_1  and  S_2
REMARK    2  A    between atoms: S_2  and  C_5
REMARK    3  A    between atoms: C_8  and  N_9
REMARK    4  A    between atoms: C_11  and  C_12
REMARK    5  A    between atoms: N_14  and  C_15
REMARK    6  A    between atoms: C_26  and  C_27
REMARK                            x       y       z     vdW  Elec       q    Type
REMARK                         _______ _______ _______ _____ _____    ______ ____
ROOT
ATOM      1  N   UNL     1       0.531  11.129  19.909  0.00  0.00    +0.000 N 
ATOM      2  N   UNL     1       0.781   9.797  19.803  0.00  0.00    +0.000 NA
ATOM      3  C   UNL     1       1.681   9.677  18.819  0.00  0.00    +0.000 A 
ATOM      4  C   UNL     1       2.127  10.971  18.400  0.00  0.00    +0.000 A 
ATOM      5  C   UNL     1       1.416  11.898  19.141  0.00  0.00    +0.000 A 
ENDROOT
BRANCH   1   9
ATOM      6  C   UNL     1      -2.677  12.364  22.319  0.00  0.00    +0.000 A 
ATOM      7  C   UNL     1      -1.526  11.832  22.910  0.00  0.00    +0.000 A 
ATOM      8  C   UNL     1      -0.464  11.427  22.102  0.00  0.00    +0.000 A 
ATOM      9  C   UNL     1      -0.554  11.567  20.709  0.00  0.00    +0.000 A 
ATOM     10  C   UNL     1      -1.699  12.130  20.129  0.00  0.00    +0.000 A 
ATOM     11  C   UNL     1      -2.763  12.530  20.934  0.00  0.00    +0.000 A 
BRANCH   6  12
ATOM     12  S   UNL     1      -4.061  12.821  23.322  0.00  0.00    +0.000 S 
ATOM     13  O   UNL     1      -4.037  14.252  23.517  0.00  0.00    +0.000 OA
ATOM     14  O   UNL     1      -4.183  11.886  24.415  0.00  0.00    +0.000 OA
BRANCH  12  15
ATOM     15  N   UNL     1      -5.364  12.490  22.318  0.00  0.00    +0.000 NA
ATOM     16  H   UNL     1      -5.185  12.922  21.408  0.00  0.00    +0.000 HD
ATOM     17  H   UNL     1      -6.231  12.819  22.744  0.00  0.00    +0.000 HD
ENDBRANCH  12  15
ENDBRANCH   6  12
ENDBRANCH   1   9
BRANCH   5  18
ATOM     18  C   UNL     1       1.593  13.362  19.223  0.00  0.00    +0.000 A 
ATOM     19  C   UNL     1       0.646  14.241  18.682  0.00  0.00    +0.000 A 
ATOM     20  C   UNL     1       0.838  15.628  18.755  0.00  0.00    +0.000 A 
ATOM     21  C   UNL     1       1.959  16.153  19.399  0.00  0.00    +0.000 A 
ATOM     22  C   UNL     1       2.900  15.299  19.952  0.00  0.00    +0.000 A 
ATOM     23  C   UNL     1       2.735  13.922  19.825  0.00  0.00    +0.000 A 
ENDBRANCH   5  18
BRANCH   3  24
ATOM     24  C   UNL     1       2.133   8.377  18.295  0.00  0.00    +0.000 C 
ATOM     25  O   UNL     1       2.434   8.231  17.118  0.00  0.00    +0.000 OA
ATOM     26  N   UNL     1       2.190   7.358  19.237  0.00  0.00    +0.000 N 
ATOM     27  H   UNL     1       1.844   7.614  20.158  0.00  0.00    +0.000 HD
BRANCH  26  28
ATOM     28  C   UNL     1       2.614   5.973  18.971  0.00  0.00    +0.000 C 
ATOM     29  C   UNL     1       1.696   5.290  17.921  0.00  0.00    +0.000 C 
ATOM     30  C   UNL     1       2.163   3.853  17.627  0.00  0.00    +0.000 C 
ATOM     31  C   UNL     1       3.595   3.890  17.074  0.00  0.00    +0.000 C 
ATOM     32  C   UNL     1       4.536   4.524  18.108  0.00  0.00    +0.000 C 
ATOM     33  C   UNL     1       4.496   3.685  19.396  0.00  0.00    +0.000 C 
ATOM     34  C   UNL     1       3.071   3.675  19.970  0.00  0.00    +0.000 C 
ATOM     35  C   UNL     1       2.124   3.045  18.934  0.00  0.00    +0.000 C 
ATOM     36  C   UNL     1       2.622   5.120  20.266  0.00  0.00    +0.000 C 
ATOM     37  C   UNL     1       4.067   5.961  18.414  0.00  0.00    +0.000 C 
ENDBRANCH  26  28
ENDBRANCH   3  24
TORSDOF 6
ENDMDL
MODEL 5
REMARK VINA RESULT:      -8.6      2.944      4.718
REMARK  Name = 
REMARK  6 active torsions:
REMARK  status: ('A' for Active; 'I' for Inactive)
REMARK    1  A    between atoms: N_1  and  S_2
REMARK    2  A    between atoms: S_2  and  C_5
REMARK    3  A    between atoms: C_8  and  N_9
REMARK    4  A    between atoms: C_11  and  C_12
REMARK    5  A    between atoms: N_14  and  C_15
REMARK    6  A    between atoms: C_26  and  C_27
REMARK                            x       y       z     vdW  Elec       q    Type
REMARK                         _______ _______ _______ _____ _____    ______ ____
ROOT
ATOM      1  N   UNL     1       1.016  11.499  19.309  0.00  0.00    +0.000 N 
ATOM      2  N   UNL     1       1.684  10.682  18.452  0.00  0.00    +0.000 NA
ATOM      3  C   UNL     1       1.486   9.440  18.911  0.00  0.00    +0.000 A 
ATOM      4  C   UNL     1       0.544   9.458  19.989  0.00  0.00    +0.000 A 
ATOM      5  C   UNL     1       0.211  10.784  20.205  0.00  0.00    +0.000 A 
ENDROOT
BRANCH   1   9
ATOM      6  C   UNL     1       1.599  15.645  19.004  0.00  0.00    +0.000 A 
ATOM      7  C   UNL     1       0.423  15.070  18.511  0.00  0.00    +0.000 A 
ATOM      8  C   UNL     1       0.236  13.691  18.620  0.00  0.00    +0.000 A 
ATOM      9  C   UNL     1       1.222  12.900  19.229  0.00  0.00    +0.000 A 
ATOM     10  C   UNL     1       2.382  13.491  19.747  0.00  0.00    +0.000 A 
ATOM     11  C   UNL     1       2.572  14.866  19.635  0.00  0.00    +0.000 A 
BRANCH   6  12
ATOM     12  S   UNL     1       1.884  17.382  18.816  0.00  0.00    +0.000 S 
ATOM     13  O   UNL     1       2.913  17.783  19.746  0.00  0.00    +0.000 OA
ATOM     14  O   UNL     1       0.614  18.062  18.716  0.00  0.00    +0.000 OA
BRANCH  12  15
ATOM     15  N   UNL     1       2.553  17.477  17.280  0.00  0.00    +0.000 NA
ATOM     16  H   UNL     1       3.261  18.215  17.285  0.00  0.00    +0.000 HD
ATOM     17  H   UNL     1       1.821  17.641  16.586  0.00  0.00    +0.000 HD
ENDBRANCH  12  15
ENDBRANCH   6  12
ENDBRANCH   1   9
BRANCH   5  18
ATOM     18  C   UNL     1      -0.829  11.353  21.086  0.00  0.00    +0.000 A 
ATOM     19  C   UNL     1      -1.907  12.081  20.565  0.00  0.00    +0.000 A 
ATOM     20  C   UNL     1      -2.876  12.627  21.417  0.00  0.00    +0.000 A 
ATOM     21  C   UNL     1      -2.801  12.425  22.795  0.00  0.00    +0.000 A 
ATOM     22  C   UNL     1      -1.750  11.695  23.328  0.00  0.00    +0.000 A 
ATOM     23  C   UNL     1      -0.757  11.205  22.483  0.00  0.00    +0.000 A 
ENDBRANCH   5  18
BRANCH   3  24
ATOM     24  C   UNL     1       2.147   8.254  18.340  0.00  0.00    +0.000 C 
ATOM     25  O   UNL     1       2.600   8.258  17.204  0.00  0.00    +0.000 OA
ATOM     26  N   UNL     1       2.211   7.158  19.191  0.00  0.00    +0.000 N 
ATOM     27  H   UNL     1       1.731   7.283  20.078  0.00  0.00    +0.000 HD
BRANCH  26  28
ATOM     28  C   UNL     1       2.823   5.860  18.865  0.00  0.00    +0.000 C 
ATOM     29  C   UNL     1       2.944   4.957  20.123  0.00  0.00    +0.000 C 
ATOM     30  C   UNL     1       3.557   3.590  19.769  0.00  0.00    +0.000 C 
ATOM     31  C   UNL     1       2.657   2.883  18.745  0.00  0.00    +0.000 C 
ATOM     32  C   UNL     1       2.550   3.733  17.471  0.00  0.00    +0.000 C 
ATOM     33  C   UNL     1       3.958   3.925  16.883  0.00  0.00    +0.000 C 
ATOM     34  C   UNL     1       4.850   4.664  17.892  0.00  0.00    +0.000 C 
ATOM     35  C   UNL     1       4.956   3.817  19.171  0.00  0.00    +0.000 C 
ATOM     36  C   UNL     1       4.226   6.033  18.230  0.00  0.00    +0.000 C 
ATOM     37  C   UNL     1       1.945   5.108  17.822  0.00  0.00    +0.000 C 
ENDBRANCH  26  28
ENDBRANCH   3  24
TORSDOF 6
ENDMDL
MODEL 6
REMARK VINA RESULT:      -8.6      2.979      4.722
REMARK  Name = 
REMARK  6 active torsions:
REMARK  status: ('A' for Active; 'I' for Inactive)
REMARK    1  A    between atoms: N_1  and  S_2
REMARK    2  A    between atoms: S_2  and  C_5
REMARK    3  A    between atoms: C_8  and  N_9
REMARK    4  A    between atoms: C_11  and  C_12
REMARK    5  A    between atoms: N_14  and  C_15
REMARK    6  A    between atoms: C_26  and  C_27
REMARK                            x       y       z     vdW  Elec       q    Type
REMARK                         _______ _______ _______ _____ _____    ______ ____
ROOT
ATOM      1  N   UNL     1       1.056  11.486  19.148  0.00  0.00    +0.000 N 
ATOM      2  N   UNL     1       1.713  10.636  18.315  0.00  0.00    +0.000 NA
ATOM      3  C   UNL     1       1.536   9.415  18.834  0.00  0.00    +0.000 A 
ATOM      4  C   UNL     1       0.618   9.475  19.931  0.00  0.00    +0.000 A 
ATOM      5  C   UNL     1       0.278  10.806  20.094  0.00  0.00    +0.000 A 
ENDROOT
BRANCH   1   9
ATOM      6  C   UNL     1       1.666  15.622  18.771  0.00  0.00    +0.000 A 
ATOM      7  C   UNL     1       2.746  14.783  19.060  0.00  0.00    +0.000 A 
ATOM      8  C   UNL     1       2.536  13.409  19.180  0.00  0.00    +0.000 A 
ATOM      9  C   UNL     1       1.247  12.883  19.000  0.00  0.00    +0.000 A 
ATOM     10  C   UNL     1       0.177  13.730  18.680  0.00  0.00    +0.000 A 
ATOM     11  C   UNL     1       0.385  15.102  18.564  0.00  0.00    +0.000 A 
BRANCH   6  12
ATOM     12  S   UNL     1       1.900  17.374  18.680  0.00  0.00    +0.000 S 
ATOM     13  O   UNL     1       2.904  17.756  19.646  0.00  0.00    +0.000 OA
ATOM     14  O   UNL     1       0.612  18.021  18.596  0.00  0.00    +0.000 OA
BRANCH  12  15
ATOM     15  N   UNL     1       2.587  17.571  17.161  0.00  0.00    +0.000 NA
ATOM     16  H   UNL     1       3.095  18.459  17.153  0.00  0.00    +0.000 HD
ATOM     17  H   UNL     1       1.866  17.526  16.439  0.00  0.00    +0.000 HD
ENDBRANCH  12  15
ENDBRANCH   6  12
ENDBRANCH   1   9
BRANCH   5  18
ATOM     18  C   UNL     1      -0.747  11.407  20.971  0.00  0.00    +0.000 A 
ATOM     19  C   UNL     1      -0.613  11.391  22.365  0.00  0.00    +0.000 A 
ATOM     20  C   UNL     1      -1.604  11.952  23.182  0.00  0.00    +0.000 A 
ATOM     21  C   UNL     1      -2.722  12.567  22.618  0.00  0.00    +0.000 A 
ATOM     22  C   UNL     1      -2.864  12.606  21.240  0.00  0.00    +0.000 A 
ATOM     23  C   UNL     1      -1.907  11.994  20.433  0.00  0.00    +0.000 A 
ENDBRANCH   5  18
BRANCH   3  24
ATOM     24  C   UNL     1       2.195   8.210  18.303  0.00  0.00    +0.000 C 
ATOM     25  O   UNL     1       2.726   8.203  17.201  0.00  0.00    +0.000 OA
ATOM     26  N   UNL     1       2.164   7.109  19.150  0.00  0.00    +0.000 N 
ATOM     27  H   UNL     1       1.628   7.247  20.002  0.00  0.00    +0.000 HD
BRANCH  26  28
ATOM     28  C   UNL     1       2.753   5.792  18.859  0.00  0.00    +0.000 C 
ATOM     29  C   UNL     1       1.904   5.006  17.823  0.00  0.00    +0.000 C 
ATOM     30  C   UNL     1       2.541   3.642  17.502  0.00  0.00    +0.000 C 
ATOM     31  C   UNL     1       3.943   3.866  16.915  0.00  0.00    +0.000 C 
ATOM     32  C   UNL     1       4.822   4.606  17.934  0.00  0.00    +0.000 C 
ATOM     33  C   UNL     1       4.921   3.758  19.213  0.00  0.00    +0.000 C 
ATOM     34  C   UNL     1       3.523   3.562  19.820  0.00  0.00    +0.000 C 
ATOM     35  C   UNL     1       2.639   2.825  18.801  0.00  0.00    +0.000 C 
ATOM     36  C   UNL     1       2.902   4.936  20.143  0.00  0.00    +0.000 C 
ATOM     37  C   UNL     1       4.182   5.969  18.267  0.00  0.00    +0.000 C 
ENDBRANCH  26  28
ENDBRANCH   3  24
TORSDOF 6
ENDMDL
MODEL 7
REMARK VINA RESULT:      -8.6      0.629      1.137
REMARK  Name = 
REMARK  6 active torsions:
REMARK  status: ('A' for Active; 'I' for Inactive)
REMARK    1  A    between atoms: N_1  and  S_2
REMARK    2  A    between atoms: S_2  and  C_5
REMARK    3  A    between atoms: C_8  and  N_9
REMARK    4  A    between atoms: C_11  and  C_12
REMARK    5  A    between atoms: N_14  and  C_15
REMARK    6  A    between atoms: C_26  and  C_27
REMARK                            x       y       z     vdW  Elec       q    Type
REMARK                         _______ _______ _______ _____ _____    ______ ____
ROOT
ATOM      1  N   UNL     1       0.473  11.093  19.867  0.00  0.00    +0.000 N 
ATOM      2  N   UNL     1       0.733   9.767  19.729  0.00  0.00    +0.000 NA
ATOM      3  C   UNL     1       1.688   9.682  18.794  0.00  0.00    +0.000 A 
ATOM      4  C   UNL     1       2.152  10.991  18.446  0.00  0.00    +0.000 A 
ATOM      5  C   UNL     1       1.397  11.890  19.178  0.00  0.00    +0.000 A 
ENDROOT
BRANCH   1   9
ATOM      6  C   UNL     1      -2.881  12.361  22.049  0.00  0.00    +0.000 A 
ATOM      7  C   UNL     1      -2.890  12.437  20.653  0.00  0.00    +0.000 A 
ATOM      8  C   UNL     1      -1.772  12.011  19.935  0.00  0.00    +0.000 A 
ATOM      9  C   UNL     1      -0.658  11.501  20.619  0.00  0.00    +0.000 A 
ATOM     10  C   UNL     1      -0.672  11.401  22.017  0.00  0.00    +0.000 A 
ATOM     11  C   UNL     1      -1.785  11.830  22.734  0.00  0.00    +0.000 A 
BRANCH   6  12
ATOM     12  S   UNL     1      -4.263  12.959  22.980  0.00  0.00    +0.000 S 
ATOM     13  O   UNL     1      -5.478  12.521  22.335  0.00  0.00    +0.000 OA
ATOM     14  O   UNL     1      -4.026  14.335  23.347  0.00  0.00    +0.000 OA
BRANCH  12  15
ATOM     15  N   UNL     1      -4.136  12.097  24.415  0.00  0.00    +0.000 NA
ATOM     16  H   UNL     1      -3.148  12.059  24.678  0.00  0.00    +0.000 HD
ATOM     17  H   UNL     1      -4.549  11.170  24.307  0.00  0.00    +0.000 HD
ENDBRANCH  12  15
ENDBRANCH   6  12
ENDBRANCH   1   9
BRANCH   5  18
ATOM     18  C   UNL     1       1.563  13.350  19.319  0.00  0.00    +0.000 A 
ATOM     19  C   UNL     1       0.684  14.247  18.699  0.00  0.00    +0.000 A 
ATOM     20  C   UNL     1       0.867  15.631  18.832  0.00  0.00    +0.000 A 
ATOM     21  C   UNL     1       1.906  16.135  19.614  0.00  0.00    +0.000 A 
ATOM     22  C   UNL     1       2.778  15.262  20.247  0.00  0.00    +0.000 A 
ATOM     23  C   UNL     1       2.628  13.890  20.063  0.00  0.00    +0.000 A 
ENDBRANCH   5  18
BRANCH   3  24
ATOM     24  C   UNL     1       2.174   8.402  18.251  0.00  0.00    +0.000 C 
ATOM     25  O   UNL     1       2.503   8.287  17.079  0.00  0.00    +0.000 OA
ATOM     26  N   UNL     1       2.228   7.363  19.172  0.00  0.00    +0.000 N 
ATOM     27  H   UNL     1       1.858   7.593  20.090  0.00  0.00    +0.000 HD
BRANCH  26  28
ATOM     28  C   UNL     1       2.682   5.992  18.886  0.00  0.00    +0.000 C 
ATOM     29  C   UNL     1       4.133   5.978  18.333  0.00  0.00    +0.000 C 
ATOM     30  C   UNL     1       4.610   4.539  18.064  0.00  0.00    +0.000 C 
ATOM     31  C   UNL     1       4.580   3.743  19.376  0.00  0.00    +0.000 C 
ATOM     32  C   UNL     1       3.147   3.704  19.928  0.00  0.00    +0.000 C 
ATOM     33  C   UNL     1       2.233   3.033  18.890  0.00  0.00    +0.000 C 
ATOM     34  C   UNL     1       2.235   3.847  17.587  0.00  0.00    +0.000 C 
ATOM     35  C   UNL     1       3.669   3.892  17.034  0.00  0.00    +0.000 C 
ATOM     36  C   UNL     1       1.748   5.282  17.873  0.00  0.00    +0.000 C 
ATOM     37  C   UNL     1       2.660   5.144  20.191  0.00  0.00    +0.000 C 
ENDBRANCH  26  28
ENDBRANCH   3  24
TORSDOF 6
ENDMDL
MODEL 8
REMARK VINA RESULT:      -8.6      2.872      4.565
REMARK  Name = 
REMARK  6 active torsions:
REMARK  status: ('A' for Active; 'I' for Inactive)
REMARK    1  A    between atoms: N_1  and  S_2
REMARK    2  A    between atoms: S_2  and  C_5
REMARK    3  A    between atoms: C_8  and  N_9
REMARK    4  A    between atoms: C_11  and  C_12
REMARK    5  A    between atoms: N_14  and  C_15
REMARK    6  A    between atoms: C_26  and  C_27
REMARK                            x       y       z     vdW  Elec       q    Type
REMARK                         _______ _______ _______ _____ _____    ______ ____
ROOT
ATOM      1  N   UNL     1       1.190  11.540  19.432  0.00  0.00    +0.000 N 
ATOM      2  N   UNL     1       1.865  10.728  18.577  0.00  0.00    +0.000 NA
ATOM      3  C   UNL     1       1.531   9.479  18.926  0.00  0.00    +0.000 A 
ATOM      4  C   UNL     1       0.502   9.505  19.921  0.00  0.00    +0.000 A 
ATOM      5  C   UNL     1       0.256  10.837  20.205  0.00  0.00    +0.000 A 
ENDROOT
BRANCH   1   9
ATOM      6  C   UNL     1       2.138  15.624  19.625  0.00  0.00    +0.000 A 
ATOM      7  C   UNL     1       2.797  14.717  20.460  0.00  0.00    +0.000 A 
ATOM      8  C   UNL     1       2.478  13.361  20.387  0.00  0.00    +0.000 A 
ATOM      9  C   UNL     1       1.510  12.920  19.472  0.00  0.00    +0.000 A 
ATOM     10  C   UNL     1       0.878  13.835  18.618  0.00  0.00    +0.000 A 
ATOM     11  C   UNL     1       1.192  15.189  18.693  0.00  0.00    +0.000 A 
BRANCH   6  12
ATOM     12  S   UNL     1       2.481  17.356  19.748  0.00  0.00    +0.000 S 
ATOM     13  O   UNL     1       3.910  17.550  19.681  0.00  0.00    +0.000 OA
ATOM     14  O   UNL     1       1.664  17.927  20.794  0.00  0.00    +0.000 OA
BRANCH  12  15
ATOM     15  N   UNL     1       1.841  17.957  18.318  0.00  0.00    +0.000 NA
ATOM     16  H   UNL     1       0.844  18.133  18.464  0.00  0.00    +0.000 HD
ATOM     17  H   UNL     1       2.016  17.306  17.552  0.00  0.00    +0.000 HD
ENDBRANCH  12  15
ENDBRANCH   6  12
ENDBRANCH   1   9
BRANCH   5  18
ATOM     18  C   UNL     1      -0.810  11.433  21.036  0.00  0.00    +0.000 A 
ATOM     19  C   UNL     1      -1.874  12.138  20.459  0.00  0.00    +0.000 A 
ATOM     20  C   UNL     1      -2.869  12.710  21.264  0.00  0.00    +0.000 A 
ATOM     21  C   UNL     1      -2.833  12.555  22.650  0.00  0.00    +0.000 A 
ATOM     22  C   UNL     1      -1.796  11.847  23.238  0.00  0.00    +0.000 A 
ATOM     23  C   UNL     1      -0.778  11.332  22.438  0.00  0.00    +0.000 A 
ENDBRANCH   5  18
BRANCH   3  24
ATOM     24  C   UNL     1       2.145   8.282  18.327  0.00  0.00    +0.000 C 
ATOM     25  O   UNL     1       2.541   8.276  17.170  0.00  0.00    +0.000 OA
ATOM     26  N   UNL     1       2.237   7.188  19.178  0.00  0.00    +0.000 N 
ATOM     27  H   UNL     1       1.804   7.323  20.087  0.00  0.00    +0.000 HD
BRANCH  26  28
ATOM     28  C   UNL     1       2.813   5.880  18.826  0.00  0.00    +0.000 C 
ATOM     29  C   UNL     1       4.228   6.031  18.205  0.00  0.00    +0.000 C 
ATOM     30  C   UNL     1       4.836   4.657  17.867  0.00  0.00    +0.000 C 
ATOM     31  C   UNL     1       4.953   3.827  19.153  0.00  0.00    +0.000 C 
ATOM     32  C   UNL     1       3.562   3.624  19.771  0.00  0.00    +0.000 C 
ATOM     33  C   UNL     1       2.670   2.890  18.757  0.00  0.00    +0.000 C 
ATOM     34  C   UNL     1       2.523   3.736  17.482  0.00  0.00    +0.000 C 
ATOM     35  C   UNL     1       3.915   3.944  16.863  0.00  0.00    +0.000 C 
ATOM     36  C   UNL     1       1.907   5.104  17.836  0.00  0.00    +0.000 C 
ATOM     37  C   UNL     1       2.945   4.998  20.103  0.00  0.00    +0.000 C 
ENDBRANCH  26  28
ENDBRANCH   3  24
TORSDOF 6
ENDMDL
MODEL 9
REMARK VINA RESULT:      -8.6      2.948      4.519
REMARK  Name = 
REMARK  6 active torsions:
REMARK  status: ('A' for Active; 'I' for Inactive)
REMARK    1  A    between atoms: N_1  and  S_2
REMARK    2  A    between atoms: S_2  and  C_5
REMARK    3  A    between atoms: C_8  and  N_9
REMARK    4  A    between atoms: C_11  and  C_12
REMARK    5  A    between atoms: N_14  and  C_15
REMARK    6  A    between atoms: C_26  and  C_27
REMARK                            x       y       z     vdW  Elec       q    Type
REMARK                         _______ _______ _______ _____ _____    ______ ____
ROOT
ATOM      1  N   UNL     1       1.167  11.556  19.516  0.00  0.00    +0.000 N 
ATOM      2  N   UNL     1       1.861  10.761  18.660  0.00  0.00    +0.000 NA
ATOM      3  C   UNL     1       1.510   9.507  18.969  0.00  0.00    +0.000 A 
ATOM      4  C   UNL     1       0.454   9.515  19.936  0.00  0.00    +0.000 A 
ATOM      5  C   UNL     1       0.208  10.841  20.246  0.00  0.00    +0.000 A 
ENDROOT
BRANCH   1   9
ATOM      6  C   UNL     1       2.138  15.637  19.687  0.00  0.00    +0.000 A 
ATOM      7  C   UNL     1       1.181  15.187  18.772  0.00  0.00    +0.000 A 
ATOM      8  C   UNL     1       0.862  13.829  18.724  0.00  0.00    +0.000 A 
ATOM      9  C   UNL     1       1.495  12.933  19.599  0.00  0.00    +0.000 A 
ATOM     10  C   UNL     1       2.430  13.400  20.534  0.00  0.00    +0.000 A 
ATOM     11  C   UNL     1       2.752  14.753  20.579  0.00  0.00    +0.000 A 
BRANCH   6  12
ATOM     12  S   UNL     1       2.604  17.344  19.718  0.00  0.00    +0.000 S 
ATOM     13  O   UNL     1       2.526  17.819  21.079  0.00  0.00    +0.000 OA
ATOM     14  O   UNL     1       1.971  18.027  18.615  0.00  0.00    +0.000 OA
BRANCH  12  15
ATOM     15  N   UNL     1       4.233  17.284  19.316  0.00  0.00    +0.000 NA
ATOM     16  H   UNL     1       4.523  16.303  19.307  0.00  0.00    +0.000 HD
ATOM     17  H   UNL     1       4.778  17.848  19.968  0.00  0.00    +0.000 HD
ENDBRANCH  12  15
ENDBRANCH   6  12
ENDBRANCH   1   9
BRANCH   5  18
ATOM     18  C   UNL     1      -0.876  11.423  21.062  0.00  0.00    +0.000 A 
ATOM     19  C   UNL     1      -0.916  11.249  22.451  0.00  0.00    +0.000 A 
ATOM     20  C   UNL     1      -1.961  11.796  23.208  0.00  0.00    +0.000 A 
ATOM     21  C   UNL     1      -2.960  12.551  22.593  0.00  0.00    +0.000 A 
ATOM     22  C   UNL     1      -2.929  12.746  21.221  0.00  0.00    +0.000 A 
ATOM     23  C   UNL     1      -1.922  12.151  20.465  0.00  0.00    +0.000 A 
ENDBRANCH   5  18
BRANCH   3  24
ATOM     24  C   UNL     1       2.133   8.321  18.356  0.00  0.00    +0.000 C 
ATOM     25  O   UNL     1       2.526   8.330  17.198  0.00  0.00    +0.000 OA
ATOM     26  N   UNL     1       2.236   7.219  19.196  0.00  0.00    +0.000 N 
ATOM     27  H   UNL     1       1.803   7.341  20.108  0.00  0.00    +0.000 HD
BRANCH  26  28
ATOM     28  C   UNL     1       2.822   5.919  18.831  0.00  0.00    +0.000 C 
ATOM     29  C   UNL     1       4.228   6.089  18.195  0.00  0.00    +0.000 C 
ATOM     30  C   UNL     1       4.847   4.724  17.842  0.00  0.00    +0.000 C 
ATOM     31  C   UNL     1       4.988   3.888  19.122  0.00  0.00    +0.000 C 
ATOM     32  C   UNL     1       3.606   3.667  19.754  0.00  0.00    +0.000 C 
ATOM     33  C   UNL     1       2.711   2.929  18.745  0.00  0.00    +0.000 C 
ATOM     34  C   UNL     1       2.540   3.780  17.477  0.00  0.00    +0.000 C 
ATOM     35  C   UNL     1       3.923   4.007  16.844  0.00  0.00    +0.000 C 
ATOM     36  C   UNL     1       1.913   5.139  17.846  0.00  0.00    +0.000 C 
ATOM     37  C   UNL     1       2.977   5.032  20.100  0.00  0.00    +0.000 C 
ENDBRANCH  26  28
ENDBRANCH   3  24
TORSDOF 6
ENDMDL
