MODEL 1
REMARK VINA RESULT:      -5.9      0.000      0.000
REMARK  Name = 
REMARK  7 active torsions:
REMARK  status: ('A' for Active; 'I' for Inactive)
REMARK    1  A    between atoms: C_1  and  C_2
REMARK    2  A    between atoms: N_4  and  C_5
REMARK    3  A    between atoms: C_6  and  C_7
REMARK    4  A    between atoms: C_10  and  C_11
REMARK    5  A    between atoms: N_12  and  C_13
REMARK    6  A    between atoms: C_13  and  C_14
REMARK    7  A    between atoms: C_14  and  O_15
REMARK                            x       y       z     vdW  Elec       q    Type
REMARK                         _______ _______ _______ _____ _____    ______ ____
ROOT
ATOM      1  C   UNL     1       3.285   7.969  17.772  0.00  0.00    +0.000 C 
ATOM      2  C   UNL     1       2.849   6.523  18.000  0.00  0.00    +0.000 C 
ATOM      3  C   UNL     1       2.477   6.303  19.499  0.00  0.00    +0.000 C 
ATOM      4  N   UNL     1       2.607   4.921  19.952  0.00  0.00    +0.000 NA
ATOM      5  C   UNL     1       1.615   4.424  20.870  0.00  0.00    +0.000 C 
ATOM      6  C   UNL     1       3.883   4.206  19.760  0.00  0.00    +0.000 C 
ATOM      7  C   UNL     1       3.720   2.689  19.948  0.00  0.00    +0.000 C 
ATOM      8  C   UNL     1       4.384   4.514  18.367  0.00  0.00    +0.000 A 
ATOM      9  C   UNL     1       5.379   3.859  17.588  0.00  0.00    +0.000 A 
ATOM     10  C   UNL     1       5.397   4.446  16.335  0.00  0.00    +0.000 A 
ATOM     11  N   UNL     1       4.487   5.480  16.356  0.00  0.00    +0.000 N 
ATOM     12  C   UNL     1       3.909   5.551  17.592  0.00  0.00    +0.000 A 
ATOM     13  H   UNL     1       4.289   6.070  15.557  0.00  0.00    +0.000 HD
ENDROOT
BRANCH  10  14
ATOM     14  C   UNL     1       6.171   4.083  15.183  0.00  0.00    +0.000 C 
ATOM     15  N   UNL     1       5.620   4.086  14.020  0.00  0.00    +0.000 NA
BRANCH  15  16
ATOM     16  C   UNL     1       6.522   3.673  12.931  0.00  0.00    +0.000 C 
BRANCH  16  17
ATOM     17  C   UNL     1       5.714   2.881  11.908  0.00  0.00    +0.000 C 
BRANCH  17  18
ATOM     18  O   UNL     1       6.454   1.733  11.498  0.00  0.00    +0.000 OA
ATOM     19  H   UNL     1       5.820   1.202  10.977  0.00  0.00    +0.000 HD
ENDBRANCH  17  18
ENDBRANCH  16  17
ENDBRANCH  15  16
ENDBRANCH  10  14
TORSDOF 4
ENDMDL
MODEL 2
REMARK VINA RESULT:      -5.9      4.976      7.301
REMARK  Name = 
REMARK  7 active torsions:
REMARK  status: ('A' for Active; 'I' for Inactive)
REMARK    1  A    between atoms: C_1  and  C_2
REMARK    2  A    between atoms: N_4  and  C_5
REMARK    3  A    between atoms: C_6  and  C_7
REMARK    4  A    between atoms: C_10  and  C_11
REMARK    5  A    between atoms: N_12  and  C_13
REMARK    6  A    between atoms: C_13  and  C_14
REMARK    7  A    between atoms: C_14  and  O_15
REMARK                            x       y       z     vdW  Elec       q    Type
REMARK                         _______ _______ _______ _____ _____    ______ ____
ROOT
ATOM      1  C   UNL     1       4.356   5.773  17.198  0.00  0.00    +0.000 C 
ATOM      2  C   UNL     1       4.412   5.170  18.601  0.00  0.00    +0.000 C 
ATOM      3  C   UNL     1       4.438   3.612  18.517  0.00  0.00    +0.000 C 
ATOM      4  N   UNL     1       3.924   2.939  19.706  0.00  0.00    +0.000 NA
ATOM      5  C   UNL     1       4.593   1.736  20.133  0.00  0.00    +0.000 C 
ATOM      6  C   UNL     1       2.582   3.277  20.214  0.00  0.00    +0.000 C 
ATOM      7  C   UNL     1       2.369   2.763  21.647  0.00  0.00    +0.000 C 
ATOM      8  C   UNL     1       2.432   4.781  20.167  0.00  0.00    +0.000 A 
ATOM      9  C   UNL     1       1.482   5.626  20.807  0.00  0.00    +0.000 A 
ATOM     10  C   UNL     1       1.829   6.938  20.543  0.00  0.00    +0.000 A 
ATOM     11  N   UNL     1       2.923   6.911  19.707  0.00  0.00    +0.000 N 
ATOM     12  C   UNL     1       3.260   5.613  19.443  0.00  0.00    +0.000 A 
ATOM     13  H   UNL     1       3.393   7.742  19.369  0.00  0.00    +0.000 HD
ENDROOT
BRANCH  10  14
ATOM     14  C   UNL     1       1.224   8.144  21.031  0.00  0.00    +0.000 C 
ATOM     15  N   UNL     1       1.052   9.138  20.232  0.00  0.00    +0.000 NA
BRANCH  15  16
ATOM     16  C   UNL     1       0.441  10.318  20.870  0.00  0.00    +0.000 C 
BRANCH  16  17
ATOM     17  C   UNL     1       0.110   9.967  22.318  0.00  0.00    +0.000 C 
BRANCH  17  18
ATOM     18  O   UNL     1      -0.366  11.129  22.995  0.00  0.00    +0.000 OA
ATOM     19  H   UNL     1       0.372  11.395  23.578  0.00  0.00    +0.000 HD
ENDBRANCH  17  18
ENDBRANCH  16  17
ENDBRANCH  15  16
ENDBRANCH  10  14
TORSDOF 4
ENDMDL
MODEL 3
REMARK VINA RESULT:      -5.8      1.316      2.708
REMARK  Name = 
REMARK  7 active torsions:
REMARK  status: ('A' for Active; 'I' for Inactive)
REMARK    1  A    between atoms: C_1  and  C_2
REMARK    2  A    between atoms: N_4  and  C_5
REMARK    3  A    between atoms: C_6  and  C_7
REMARK    4  A    between atoms: C_10  and  C_11
REMARK    5  A    between atoms: N_12  and  C_13
REMARK    6  A    between atoms: C_13  and  C_14
REMARK    7  A    between atoms: C_14  and  O_15
REMARK                            x       y       z     vdW  Elec       q    Type
REMARK                         _______ _______ _______ _____ _____    ______ ____
ROOT
ATOM      1  C   UNL     1       3.209   1.543  18.632  0.00  0.00    +0.000 C 
ATOM      2  C   UNL     1       3.537   2.969  19.070  0.00  0.00    +0.000 C 
ATOM      3  C   UNL     1       2.259   3.667  19.633  0.00  0.00    +0.000 C 
ATOM      4  N   UNL     1       2.282   5.124  19.540  0.00  0.00    +0.000 NA
ATOM      5  C   UNL     1       1.721   5.870  20.637  0.00  0.00    +0.000 C 
ATOM      6  C   UNL     1       2.533   5.769  18.239  0.00  0.00    +0.000 C 
ATOM      7  C   UNL     1       2.887   7.256  18.399  0.00  0.00    +0.000 C 
ATOM      8  C   UNL     1       3.665   5.028  17.563  0.00  0.00    +0.000 A 
ATOM      9  C   UNL     1       4.481   5.413  16.463  0.00  0.00    +0.000 A 
ATOM     10  C   UNL     1       5.452   4.443  16.288  0.00  0.00    +0.000 A 
ATOM     11  N   UNL     1       5.205   3.450  17.210  0.00  0.00    +0.000 N 
ATOM     12  C   UNL     1       4.104   3.779  17.948  0.00  0.00    +0.000 A 
ATOM     13  H   UNL     1       5.780   2.622  17.311  0.00  0.00    +0.000 HD
ENDROOT
BRANCH  10  14
ATOM     14  C   UNL     1       6.548   4.422  15.362  0.00  0.00    +0.000 C 
ATOM     15  N   UNL     1       6.527   5.199  14.336  0.00  0.00    +0.000 NA
BRANCH  15  16
ATOM     16  C   UNL     1       7.703   5.060  13.459  0.00  0.00    +0.000 C 
BRANCH  16  17
ATOM     17  C   UNL     1       7.243   4.487  12.122  0.00  0.00    +0.000 C 
BRANCH  17  18
ATOM     18  O   UNL     1       6.754   3.161  12.311  0.00  0.00    +0.000 OA
ATOM     19  H   UNL     1       5.978   3.264  12.896  0.00  0.00    +0.000 HD
ENDBRANCH  17  18
ENDBRANCH  16  17
ENDBRANCH  15  16
ENDBRANCH  10  14
TORSDOF 4
ENDMDL
MODEL 4
REMARK VINA RESULT:      -5.8      4.697      7.623
REMARK  Name = 
REMARK  7 active torsions:
REMARK  status: ('A' for Active; 'I' for Inactive)
REMARK    1  A    between atoms: C_1  and  C_2
REMARK    2  A    between atoms: N_4  and  C_5
REMARK    3  A    between atoms: C_6  and  C_7
REMARK    4  A    between atoms: C_10  and  C_11
REMARK    5  A    between atoms: N_12  and  C_13
REMARK    6  A    between atoms: C_13  and  C_14
REMARK    7  A    between atoms: C_14  and  O_15
REMARK                            x       y       z     vdW  Elec       q    Type
REMARK                         _______ _______ _______ _____ _____    ______ ____
ROOT
ATOM      1  C   UNL     1       1.894   3.086  22.035  0.00  0.00    +0.000 C 
ATOM      2  C   UNL     1       1.898   3.332  20.527  0.00  0.00    +0.000 C 
ATOM      3  C   UNL     1       2.945   2.406  19.833  0.00  0.00    +0.000 C 
ATOM      4  N   UNL     1       3.449   2.917  18.562  0.00  0.00    +0.000 NA
ATOM      5  C   UNL     1       3.679   1.967  17.505  0.00  0.00    +0.000 C 
ATOM      6  C   UNL     1       4.028   4.272  18.498  0.00  0.00    +0.000 C 
ATOM      7  C   UNL     1       4.154   4.770  17.049  0.00  0.00    +0.000 C 
ATOM      8  C   UNL     1       3.138   5.197  19.297  0.00  0.00    +0.000 A 
ATOM      9  C   UNL     1       3.071   6.618  19.307  0.00  0.00    +0.000 A 
ATOM     10  C   UNL     1       2.018   6.992  20.123  0.00  0.00    +0.000 A 
ATOM     11  N   UNL     1       1.488   5.840  20.658  0.00  0.00    +0.000 N 
ATOM     12  C   UNL     1       2.189   4.761  20.198  0.00  0.00    +0.000 A 
ATOM     13  H   UNL     1       0.690   5.825  21.282  0.00  0.00    +0.000 HD
ENDROOT
BRANCH  10  14
ATOM     14  C   UNL     1       1.507   8.307  20.386  0.00  0.00    +0.000 C 
ATOM     15  N   UNL     1       0.742   8.500  21.403  0.00  0.00    +0.000 NA
BRANCH  15  16
ATOM     16  C   UNL     1       0.273   9.890  21.542  0.00  0.00    +0.000 C 
BRANCH  16  17
ATOM     17  C   UNL     1      -0.452  10.024  22.878  0.00  0.00    +0.000 C 
BRANCH  17  18
ATOM     18  O   UNL     1       0.417   9.625  23.936  0.00  0.00    +0.000 OA
ATOM     19  H   UNL     1       1.163  10.254  23.895  0.00  0.00    +0.000 HD
ENDBRANCH  17  18
ENDBRANCH  16  17
ENDBRANCH  15  16
ENDBRANCH  10  14
TORSDOF 4
ENDMDL
MODEL 5
REMARK VINA RESULT:      -5.7      1.792      2.462
REMARK  Name = 
REMARK  7 active torsions:
REMARK  status: ('A' for Active; 'I' for Inactive)
REMARK    1  A    between atoms: C_1  and  C_2
REMARK    2  A    between atoms: N_4  and  C_5
REMARK    3  A    between atoms: C_6  and  C_7
REMARK    4  A    between atoms: C_10  and  C_11
REMARK    5  A    between atoms: N_12  and  C_13
REMARK    6  A    between atoms: C_13  and  C_14
REMARK    7  A    between atoms: C_14  and  O_15
REMARK                            x       y       z     vdW  Elec       q    Type
REMARK                         _______ _______ _______ _____ _____    ______ ____
ROOT
ATOM      1  C   UNL     1       7.879   6.583  18.393  0.00  0.00    +0.000 C 
ATOM      2  C   UNL     1       6.421   6.316  18.020  0.00  0.00    +0.000 C 
ATOM      3  C   UNL     1       5.640   5.775  19.257  0.00  0.00    +0.000 C 
ATOM      4  N   UNL     1       4.470   4.968  18.921  0.00  0.00    +0.000 NA
ATOM      5  C   UNL     1       3.298   5.117  19.745  0.00  0.00    +0.000 C 
ATOM      6  C   UNL     1       4.616   3.812  18.018  0.00  0.00    +0.000 C 
ATOM      7  C   UNL     1       3.256   3.325  17.492  0.00  0.00    +0.000 C 
ATOM      8  C   UNL     1       5.507   4.227  16.869  0.00  0.00    +0.000 A 
ATOM      9  C   UNL     1       5.714   3.611  15.603  0.00  0.00    +0.000 A 
ATOM     10  C   UNL     1       6.538   4.432  14.856  0.00  0.00    +0.000 A 
ATOM     11  N   UNL     1       6.889   5.496  15.658  0.00  0.00    +0.000 N 
ATOM     12  C   UNL     1       6.306   5.351  16.884  0.00  0.00    +0.000 A 
ATOM     13  H   UNL     1       7.478   6.260  15.351  0.00  0.00    +0.000 HD
ENDROOT
BRANCH  10  14
ATOM     14  C   UNL     1       6.966   4.280  13.495  0.00  0.00    +0.000 C 
ATOM     15  N   UNL     1       6.359   3.443  12.728  0.00  0.00    +0.000 NA
BRANCH  15  16
ATOM     16  C   UNL     1       6.914   3.373  11.365  0.00  0.00    +0.000 C 
BRANCH  16  17
ATOM     17  C   UNL     1       7.185   1.909  11.029  0.00  0.00    +0.000 C 
BRANCH  17  18
ATOM     18  O   UNL     1       6.110   1.102  11.503  0.00  0.00    +0.000 OA
ATOM     19  H   UNL     1       5.324   1.680  11.451  0.00  0.00    +0.000 HD
ENDBRANCH  17  18
ENDBRANCH  16  17
ENDBRANCH  15  16
ENDBRANCH  10  14
TORSDOF 4
ENDMDL
MODEL 6
REMARK VINA RESULT:      -5.7      4.313      6.701
REMARK  Name = 
REMARK  7 active torsions:
REMARK  status: ('A' for Active; 'I' for Inactive)
REMARK    1  A    between atoms: C_1  and  C_2
REMARK    2  A    between atoms: N_4  and  C_5
REMARK    3  A    between atoms: C_6  and  C_7
REMARK    4  A    between atoms: C_10  and  C_11
REMARK    5  A    between atoms: N_12  and  C_13
REMARK    6  A    between atoms: C_13  and  C_14
REMARK    7  A    between atoms: C_14  and  O_15
REMARK                            x       y       z     vdW  Elec       q    Type
REMARK                         _______ _______ _______ _____ _____    ______ ____
ROOT
ATOM      1  C   UNL     1       4.496   5.794  17.171  0.00  0.00    +0.000 C 
ATOM      2  C   UNL     1       4.497   5.240  18.595  0.00  0.00    +0.000 C 
ATOM      3  C   UNL     1       4.510   3.680  18.566  0.00  0.00    +0.000 C 
ATOM      4  N   UNL     1       3.947   3.053  19.759  0.00  0.00    +0.000 NA
ATOM      5  C   UNL     1       4.588   1.861  20.250  0.00  0.00    +0.000 C 
ATOM      6  C   UNL     1       2.592   3.421  20.206  0.00  0.00    +0.000 C 
ATOM      7  C   UNL     1       2.323   2.959  21.647  0.00  0.00    +0.000 C 
ATOM      8  C   UNL     1       2.459   4.924  20.101  0.00  0.00    +0.000 A 
ATOM      9  C   UNL     1       1.495   5.799  20.678  0.00  0.00    +0.000 A 
ATOM     10  C   UNL     1       1.864   7.099  20.381  0.00  0.00    +0.000 A 
ATOM     11  N   UNL     1       2.987   7.032  19.586  0.00  0.00    +0.000 N 
ATOM     12  C   UNL     1       3.320   5.723  19.380  0.00  0.00    +0.000 A 
ATOM     13  H   UNL     1       3.477   7.846  19.237  0.00  0.00    +0.000 HD
ENDROOT
BRANCH  10  14
ATOM     14  C   UNL     1       1.255   8.326  20.805  0.00  0.00    +0.000 C 
ATOM     15  N   UNL     1       1.050   9.264  19.948  0.00  0.00    +0.000 NA
BRANCH  15  16
ATOM     16  C   UNL     1       0.439  10.475  20.523  0.00  0.00    +0.000 C 
BRANCH  16  17
ATOM     17  C   UNL     1       0.133  11.448  19.388  0.00  0.00    +0.000 C 
BRANCH  17  18
ATOM     18  O   UNL     1       0.296  10.787  18.135  0.00  0.00    +0.000 OA
ATOM     19  H   UNL     1      -0.538  10.295  18.004  0.00  0.00    +0.000 HD
ENDBRANCH  17  18
ENDBRANCH  16  17
ENDBRANCH  15  16
ENDBRANCH  10  14
TORSDOF 4
ENDMDL
MODEL 7
REMARK VINA RESULT:      -5.7      1.188      1.366
REMARK  Name = 
REMARK  7 active torsions:
REMARK  status: ('A' for Active; 'I' for Inactive)
REMARK    1  A    between atoms: C_1  and  C_2
REMARK    2  A    between atoms: N_4  and  C_5
REMARK    3  A    between atoms: C_6  and  C_7
REMARK    4  A    between atoms: C_10  and  C_11
REMARK    5  A    between atoms: N_12  and  C_13
REMARK    6  A    between atoms: C_13  and  C_14
REMARK    7  A    between atoms: C_14  and  O_15
REMARK                            x       y       z     vdW  Elec       q    Type
REMARK                         _______ _______ _______ _____ _____    ______ ____
ROOT
ATOM      1  C   UNL     1       2.251   7.360  19.572  0.00  0.00    +0.000 C 
ATOM      2  C   UNL     1       2.145   5.848  19.375  0.00  0.00    +0.000 C 
ATOM      3  C   UNL     1       2.034   5.133  20.758  0.00  0.00    +0.000 C 
ATOM      4  N   UNL     1       2.497   3.747  20.754  0.00  0.00    +0.000 NA
ATOM      5  C   UNL     1       1.758   2.796  21.544  0.00  0.00    +0.000 C 
ATOM      6  C   UNL     1       3.849   3.430  20.261  0.00  0.00    +0.000 C 
ATOM      7  C   UNL     1       4.017   1.928  19.984  0.00  0.00    +0.000 C 
ATOM      8  C   UNL     1       4.082   4.227  18.997  0.00  0.00    +0.000 A 
ATOM      9  C   UNL     1       5.070   4.068  17.984  0.00  0.00    +0.000 A 
ATOM     10  C   UNL     1       4.799   4.974  16.975  0.00  0.00    +0.000 A 
ATOM     11  N   UNL     1       3.715   5.721  17.378  0.00  0.00    +0.000 N 
ATOM     12  C   UNL     1       3.310   5.304  18.614  0.00  0.00    +0.000 A 
ATOM     13  H   UNL     1       3.295   6.450  16.814  0.00  0.00    +0.000 HD
ENDROOT
BRANCH  10  14
ATOM     14  C   UNL     1       5.463   5.141  15.714  0.00  0.00    +0.000 C 
ATOM     15  N   UNL     1       6.031   4.129  15.156  0.00  0.00    +0.000 NA
BRANCH  15  16
ATOM     16  C   UNL     1       6.693   4.447  13.878  0.00  0.00    +0.000 C 
BRANCH  16  17
ATOM     17  C   UNL     1       6.093   3.560  12.790  0.00  0.00    +0.000 C 
BRANCH  17  18
ATOM     18  O   UNL     1       7.056   3.350  11.759  0.00  0.00    +0.000 OA
ATOM     19  H   UNL     1       7.390   4.243  11.546  0.00  0.00    +0.000 HD
ENDBRANCH  17  18
ENDBRANCH  16  17
ENDBRANCH  15  16
ENDBRANCH  10  14
TORSDOF 4
ENDMDL
MODEL 8
REMARK VINA RESULT:      -5.6      3.530      6.429
REMARK  Name = 
REMARK  7 active torsions:
REMARK  status: ('A' for Active; 'I' for Inactive)
REMARK    1  A    between atoms: C_1  and  C_2
REMARK    2  A    between atoms: N_4  and  C_5
REMARK    3  A    between atoms: C_6  and  C_7
REMARK    4  A    between atoms: C_10  and  C_11
REMARK    5  A    between atoms: N_12  and  C_13
REMARK    6  A    between atoms: C_13  and  C_14
REMARK    7  A    between atoms: C_14  and  O_15
REMARK                            x       y       z     vdW  Elec       q    Type
REMARK                         _______ _______ _______ _____ _____    ______ ____
ROOT
ATOM      1  C   UNL     1       7.589   6.005  18.679  0.00  0.00    +0.000 C 
ATOM      2  C   UNL     1       7.419   5.056  17.494  0.00  0.00    +0.000 C 
ATOM      3  C   UNL     1       7.715   5.805  16.158  0.00  0.00    +0.000 C 
ATOM      4  N   UNL     1       7.058   5.227  14.989  0.00  0.00    +0.000 NA
ATOM      5  C   UNL     1       7.796   5.205  13.752  0.00  0.00    +0.000 C 
ATOM      6  C   UNL     1       5.599   5.018  15.001  0.00  0.00    +0.000 C 
ATOM      7  C   UNL     1       5.148   4.079  13.870  0.00  0.00    +0.000 C 
ATOM      8  C   UNL     1       5.222   4.439  16.346  0.00  0.00    +0.000 A 
ATOM      9  C   UNL     1       4.027   3.786  16.759  0.00  0.00    +0.000 A 
ATOM     10  C   UNL     1       4.208   3.338  18.055  0.00  0.00    +0.000 A 
ATOM     11  N   UNL     1       5.455   3.760  18.461  0.00  0.00    +0.000 N 
ATOM     12  C   UNL     1       6.048   4.461  17.450  0.00  0.00    +0.000 A 
ATOM     13  H   UNL     1       5.849   3.553  19.371  0.00  0.00    +0.000 HD
ENDROOT
BRANCH  10  14
ATOM     14  C   UNL     1       3.321   2.559  18.870  0.00  0.00    +0.000 C 
ATOM     15  N   UNL     1       2.334   3.134  19.464  0.00  0.00    +0.000 NA
BRANCH  15  16
ATOM     16  C   UNL     1       1.518   2.221  20.283  0.00  0.00    +0.000 C 
BRANCH  16  17
ATOM     17  C   UNL     1       1.500   2.744  21.717  0.00  0.00    +0.000 C 
BRANCH  17  18
ATOM     18  O   UNL     1       2.259   3.949  21.797  0.00  0.00    +0.000 OA
ATOM     19  H   UNL     1       2.952   3.761  22.459  0.00  0.00    +0.000 HD
ENDBRANCH  17  18
ENDBRANCH  16  17
ENDBRANCH  15  16
ENDBRANCH  10  14
TORSDOF 4
ENDMDL
MODEL 9
REMARK VINA RESULT:      -5.6      3.898      6.270
REMARK  Name = 
REMARK  7 active torsions:
REMARK  status: ('A' for Active; 'I' for Inactive)
REMARK    1  A    between atoms: C_1  and  C_2
REMARK    2  A    between atoms: N_4  and  C_5
REMARK    3  A    between atoms: C_6  and  C_7
REMARK    4  A    between atoms: C_10  and  C_11
REMARK    5  A    between atoms: N_12  and  C_13
REMARK    6  A    between atoms: C_13  and  C_14
REMARK    7  A    between atoms: C_14  and  O_15
REMARK                            x       y       z     vdW  Elec       q    Type
REMARK                         _______ _______ _______ _____ _____    ______ ____
ROOT
ATOM      1  C   UNL     1      -0.471   8.455  22.257  0.00  0.00    +0.000 C 
ATOM      2  C   UNL     1       0.631   9.280  21.594  0.00  0.00    +0.000 C 
ATOM      3  C   UNL     1       0.030  10.577  20.969  0.00  0.00    +0.000 C 
ATOM      4  N   UNL     1       0.810  11.126  19.863  0.00  0.00    +0.000 NA
ATOM      5  C   UNL     1       0.915  12.559  19.769  0.00  0.00    +0.000 C 
ATOM      6  C   UNL     1       1.156  10.267  18.716  0.00  0.00    +0.000 C 
ATOM      7  C   UNL     1       2.267  10.888  17.855  0.00  0.00    +0.000 C 
ATOM      8  C   UNL     1       1.594   8.925  19.256  0.00  0.00    +0.000 A 
ATOM      9  C   UNL     1       2.304   7.870  18.616  0.00  0.00    +0.000 A 
ATOM     10  C   UNL     1       2.566   6.894  19.561  0.00  0.00    +0.000 A 
ATOM     11  N   UNL     1       1.978   7.299  20.738  0.00  0.00    +0.000 N 
ATOM     12  C   UNL     1       1.355   8.499  20.546  0.00  0.00    +0.000 A 
ATOM     13  H   UNL     1       2.031   6.773  21.602  0.00  0.00    +0.000 HD
ENDROOT
BRANCH  10  14
ATOM     14  C   UNL     1       3.318   5.681  19.417  0.00  0.00    +0.000 C 
ATOM     15  N   UNL     1       4.449   5.704  18.802  0.00  0.00    +0.000 NA
BRANCH  15  16
ATOM     16  C   UNL     1       5.104   4.387  18.708  0.00  0.00    +0.000 C 
BRANCH  16  17
ATOM     17  C   UNL     1       4.218   3.356  19.401  0.00  0.00    +0.000 C 
BRANCH  17  18
ATOM     18  O   UNL     1       5.010   2.247  19.820  0.00  0.00    +0.000 OA
ATOM     19  H   UNL     1       5.372   1.875  18.993  0.00  0.00    +0.000 HD
ENDBRANCH  17  18
ENDBRANCH  16  17
ENDBRANCH  15  16
ENDBRANCH  10  14
TORSDOF 4
ENDMDL
