MODEL 1
REMARK VINA RESULT:      -7.4      0.000      0.000
REMARK  Name = 
REMARK  6 active torsions:
REMARK  status: ('A' for Active; 'I' for Inactive)
REMARK    1  A    between atoms: C_1  and  C_2
REMARK    2  A    between atoms: C_6  and  C_7
REMARK    3  A    between atoms: C_8  and  N_9
REMARK    4  A    between atoms: C_10  and  C_12
REMARK    5  A    between atoms: C_12  and  S_13
REMARK    6  A    between atoms: S_13  and  C_14
REMARK                            x       y       z     vdW  Elec       q    Type
REMARK                         _______ _______ _______ _____ _____    ______ ____
ROOT
ATOM      1  N   UNL     1       2.988   6.327  19.717  0.00  0.00    +0.000 N 
ATOM      2  C   UNL     1       2.523   5.108  19.249  0.00  0.00    +0.000 C 
ATOM      3  O   UNL     1       1.625   4.934  18.427  0.00  0.00    +0.000 OA
ATOM      4  H   UNL     1       3.308   6.273  20.679  0.00  0.00    +0.000 HD
ENDROOT
BRANCH   1  12
ATOM      5  C   UNL     1       0.997   7.644  21.513  0.00  0.00    +0.000 C 
ATOM      6  C   UNL     1       1.436   8.192  20.183  0.00  0.00    +0.000 A 
ATOM      7  C   UNL     1       0.812   9.368  19.725  0.00  0.00    +0.000 A 
ATOM      8  C   UNL     1       1.117   9.905  18.478  0.00  0.00    +0.000 A 
ATOM      9  C   UNL     1       2.061   9.283  17.670  0.00  0.00    +0.000 A 
ATOM     10  C   UNL     1       2.705   8.111  18.093  0.00  0.00    +0.000 A 
ATOM     11  C   UNL     1       3.766   7.525  17.199  0.00  0.00    +0.000 C 
ATOM     12  C   UNL     1       2.393   7.563  19.360  0.00  0.00    +0.000 A 
ENDBRANCH   1  12
BRANCH   2  13
ATOM     13  C   UNL     1       3.147   3.911  19.952  0.00  0.00    +0.000 C 
BRANCH  13  14
ATOM     14  S   UNL     1       4.283   3.027  18.846  0.00  0.00    +0.000 S 
BRANCH  14  15
ATOM     15  C   UNL     1       5.577   4.172  18.550  0.00  0.00    +0.000 A 
ATOM     16  N   UNL     1       6.298   4.870  19.506  0.00  0.00    +0.000 N 
ATOM     17  C   UNL     1       7.254   5.783  19.149  0.00  0.00    +0.000 A 
ATOM     18  N   UNL     1       7.616   6.072  17.944  0.00  0.00    +0.000 NA
ATOM     19  C   UNL     1       6.950   5.394  16.961  0.00  0.00    +0.000 A 
ATOM     20  N   UNL     1       7.123   5.519  15.674  0.00  0.00    +0.000 NA
ATOM     21  N   UNL     1       6.184   4.613  15.017  0.00  0.00    +0.000 NA
ATOM     22  C   UNL     1       5.505   4.001  15.945  0.00  0.00    +0.000 A 
ATOM     23  C   UNL     1       5.904   4.421  17.274  0.00  0.00    +0.000 A 
ATOM     24  H   UNL     1       6.016   4.818  20.482  0.00  0.00    +0.000 HD
ENDBRANCH  14  15
ENDBRANCH  13  14
ENDBRANCH   2  13
TORSDOF 4
ENDMDL
MODEL 2
REMARK VINA RESULT:      -7.4      0.166      1.867
REMARK  Name = 
REMARK  6 active torsions:
REMARK  status: ('A' for Active; 'I' for Inactive)
REMARK    1  A    between atoms: C_1  and  C_2
REMARK    2  A    between atoms: C_6  and  C_7
REMARK    3  A    between atoms: C_8  and  N_9
REMARK    4  A    between atoms: C_10  and  C_12
REMARK    5  A    between atoms: C_12  and  S_13
REMARK    6  A    between atoms: S_13  and  C_14
REMARK                            x       y       z     vdW  Elec       q    Type
REMARK                         _______ _______ _______ _____ _____    ______ ____
ROOT
ATOM      1  N   UNL     1       2.920   6.449  19.733  0.00  0.00    +0.000 N 
ATOM      2  C   UNL     1       2.560   5.201  19.252  0.00  0.00    +0.000 C 
ATOM      3  O   UNL     1       1.750   4.967  18.356  0.00  0.00    +0.000 OA
ATOM      4  H   UNL     1       3.153   6.428  20.721  0.00  0.00    +0.000 HD
ENDROOT
BRANCH   1  12
ATOM      5  C   UNL     1       3.624   7.669  17.098  0.00  0.00    +0.000 C 
ATOM      6  C   UNL     1       2.632   8.251  18.067  0.00  0.00    +0.000 A 
ATOM      7  C   UNL     1       2.050   9.490  17.738  0.00  0.00    +0.000 A 
ATOM      8  C   UNL     1       1.170  10.125  18.608  0.00  0.00    +0.000 A 
ATOM      9  C   UNL     1       0.843   9.527  19.819  0.00  0.00    +0.000 A 
ATOM     10  C   UNL     1       1.401   8.291  20.181  0.00  0.00    +0.000 A 
ATOM     11  C   UNL     1       0.955   7.666  21.476  0.00  0.00    +0.000 C 
ATOM     12  C   UNL     1       2.299   7.647  19.297  0.00  0.00    +0.000 A 
ENDBRANCH   1  12
BRANCH   2  13
ATOM     13  C   UNL     1       3.176   4.049  20.033  0.00  0.00    +0.000 C 
BRANCH  13  14
ATOM     14  S   UNL     1       4.328   3.103  18.997  0.00  0.00    +0.000 S 
BRANCH  14  15
ATOM     15  C   UNL     1       5.614   4.237  18.633  0.00  0.00    +0.000 A 
ATOM     16  N   UNL     1       6.414   4.902  19.549  0.00  0.00    +0.000 N 
ATOM     17  C   UNL     1       7.355   5.811  19.144  0.00  0.00    +0.000 A 
ATOM     18  N   UNL     1       7.631   6.124  17.922  0.00  0.00    +0.000 NA
ATOM     19  C   UNL     1       6.884   5.480  16.976  0.00  0.00    +0.000 A 
ATOM     20  N   UNL     1       6.963   5.635  15.682  0.00  0.00    +0.000 NA
ATOM     21  N   UNL     1       5.965   4.758  15.076  0.00  0.00    +0.000 NA
ATOM     22  C   UNL     1       5.347   4.132  16.036  0.00  0.00    +0.000 A 
ATOM     23  C   UNL     1       5.850   4.513  17.343  0.00  0.00    +0.000 A 
ATOM     24  H   UNL     1       6.205   4.829  20.542  0.00  0.00    +0.000 HD
ENDBRANCH  14  15
ENDBRANCH  13  14
ENDBRANCH   2  13
TORSDOF 4
ENDMDL
MODEL 3
REMARK VINA RESULT:      -7.1      2.923      6.654
REMARK  Name = 
REMARK  6 active torsions:
REMARK  status: ('A' for Active; 'I' for Inactive)
REMARK    1  A    between atoms: C_1  and  C_2
REMARK    2  A    between atoms: C_6  and  C_7
REMARK    3  A    between atoms: C_8  and  N_9
REMARK    4  A    between atoms: C_10  and  C_12
REMARK    5  A    between atoms: C_12  and  S_13
REMARK    6  A    between atoms: S_13  and  C_14
REMARK                            x       y       z     vdW  Elec       q    Type
REMARK                         _______ _______ _______ _____ _____    ______ ____
ROOT
ATOM      1  N   UNL     1       6.976   5.783  15.429  0.00  0.00    +0.000 N 
ATOM      2  C   UNL     1       7.531   5.312  16.608  0.00  0.00    +0.000 C 
ATOM      3  O   UNL     1       7.990   4.188  16.803  0.00  0.00    +0.000 OA
ATOM      4  H   UNL     1       6.238   6.461  15.595  0.00  0.00    +0.000 HD
ENDROOT
BRANCH   1  12
ATOM      5  C   UNL     1       8.818   5.942  13.082  0.00  0.00    +0.000 C 
ATOM      6  C   UNL     1       7.622   5.033  13.165  0.00  0.00    +0.000 A 
ATOM      7  C   UNL     1       7.313   4.258  12.032  0.00  0.00    +0.000 A 
ATOM      8  C   UNL     1       6.189   3.438  12.005  0.00  0.00    +0.000 A 
ATOM      9  C   UNL     1       5.359   3.367  13.118  0.00  0.00    +0.000 A 
ATOM     10  C   UNL     1       5.636   4.123  14.267  0.00  0.00    +0.000 A 
ATOM     11  C   UNL     1       4.735   3.950  15.461  0.00  0.00    +0.000 C 
ATOM     12  C   UNL     1       6.777   4.959  14.293  0.00  0.00    +0.000 A 
ENDBRANCH   1  12
BRANCH   2  13
ATOM     13  C   UNL     1       7.419   6.294  17.766  0.00  0.00    +0.000 C 
BRANCH  13  14
ATOM     14  S   UNL     1       6.633   5.515  19.205  0.00  0.00    +0.000 S 
BRANCH  14  15
ATOM     15  C   UNL     1       4.934   5.435  18.781  0.00  0.00    +0.000 A 
ATOM     16  N   UNL     1       4.176   6.447  18.213  0.00  0.00    +0.000 N 
ATOM     17  C   UNL     1       2.837   6.284  17.976  0.00  0.00    +0.000 A 
ATOM     18  N   UNL     1       2.150   5.215  18.203  0.00  0.00    +0.000 NA
ATOM     19  C   UNL     1       2.857   4.177  18.744  0.00  0.00    +0.000 A 
ATOM     20  N   UNL     1       2.388   3.005  19.076  0.00  0.00    +0.000 NA
ATOM     21  N   UNL     1       3.497   2.232  19.628  0.00  0.00    +0.000 NA
ATOM     22  C   UNL     1       4.562   2.982  19.597  0.00  0.00    +0.000 A 
ATOM     23  C   UNL     1       4.284   4.293  19.041  0.00  0.00    +0.000 A 
ATOM     24  H   UNL     1       4.579   7.375  18.105  0.00  0.00    +0.000 HD
ENDBRANCH  14  15
ENDBRANCH  13  14
ENDBRANCH   2  13
TORSDOF 4
ENDMDL
MODEL 4
REMARK VINA RESULT:      -7.1      1.349      3.018
REMARK  Name = 
REMARK  6 active torsions:
REMARK  status: ('A' for Active; 'I' for Inactive)
REMARK    1  A    between atoms: C_1  and  C_2
REMARK    2  A    between atoms: C_6  and  C_7
REMARK    3  A    between atoms: C_8  and  N_9
REMARK    4  A    between atoms: C_10  and  C_12
REMARK    5  A    between atoms: C_12  and  S_13
REMARK    6  A    between atoms: S_13  and  C_14
REMARK                            x       y       z     vdW  Elec       q    Type
REMARK                         _______ _______ _______ _____ _____    ______ ____
ROOT
ATOM      1  N   UNL     1       2.929   5.092  18.478  0.00  0.00    +0.000 N 
ATOM      2  C   UNL     1       2.215   4.266  17.625  0.00  0.00    +0.000 C 
ATOM      3  O   UNL     1       1.030   4.381  17.316  0.00  0.00    +0.000 OA
ATOM      4  H   UNL     1       3.649   4.589  18.988  0.00  0.00    +0.000 HD
ENDROOT
BRANCH   1  12
ATOM      5  C   UNL     1       3.049   7.897  17.457  0.00  0.00    +0.000 C 
ATOM      6  C   UNL     1       2.389   7.488  18.746  0.00  0.00    +0.000 A 
ATOM      7  C   UNL     1       1.856   8.508  19.557  0.00  0.00    +0.000 A 
ATOM      8  C   UNL     1       1.285   8.220  20.792  0.00  0.00    +0.000 A 
ATOM      9  C   UNL     1       1.224   6.904  21.236  0.00  0.00    +0.000 A 
ATOM     10  C   UNL     1       1.743   5.860  20.454  0.00  0.00    +0.000 A 
ATOM     11  C   UNL     1       1.586   4.451  20.961  0.00  0.00    +0.000 C 
ATOM     12  C   UNL     1       2.327   6.154  19.199  0.00  0.00    +0.000 A 
ENDBRANCH   1  12
BRANCH   2  13
ATOM     13  C   UNL     1       3.004   3.051  17.157  0.00  0.00    +0.000 C 
BRANCH  13  14
ATOM     14  S   UNL     1       4.683   3.062  17.847  0.00  0.00    +0.000 S 
BRANCH  14  15
ATOM     15  C   UNL     1       5.634   3.929  16.657  0.00  0.00    +0.000 A 
ATOM     16  N   UNL     1       5.807   3.583  15.326  0.00  0.00    +0.000 N 
ATOM     17  C   UNL     1       6.623   4.313  14.502  0.00  0.00    +0.000 A 
ATOM     18  N   UNL     1       7.273   5.380  14.829  0.00  0.00    +0.000 NA
ATOM     19  C   UNL     1       7.120   5.777  16.128  0.00  0.00    +0.000 A 
ATOM     20  N   UNL     1       7.681   6.807  16.698  0.00  0.00    +0.000 NA
ATOM     21  N   UNL     1       7.242   6.827  18.091  0.00  0.00    +0.000 NA
ATOM     22  C   UNL     1       6.448   5.811  18.275  0.00  0.00    +0.000 A 
ATOM     23  C   UNL     1       6.280   5.031  17.063  0.00  0.00    +0.000 A 
ATOM     24  H   UNL     1       5.445   2.695  14.988  0.00  0.00    +0.000 HD
ENDBRANCH  14  15
ENDBRANCH  13  14
ENDBRANCH   2  13
TORSDOF 4
ENDMDL
MODEL 5
REMARK VINA RESULT:      -7.1      1.343      2.590
REMARK  Name = 
REMARK  6 active torsions:
REMARK  status: ('A' for Active; 'I' for Inactive)
REMARK    1  A    between atoms: C_1  and  C_2
REMARK    2  A    between atoms: C_6  and  C_7
REMARK    3  A    between atoms: C_8  and  N_9
REMARK    4  A    between atoms: C_10  and  C_12
REMARK    5  A    between atoms: C_12  and  S_13
REMARK    6  A    between atoms: S_13  and  C_14
REMARK                            x       y       z     vdW  Elec       q    Type
REMARK                         _______ _______ _______ _____ _____    ______ ____
ROOT
ATOM      1  N   UNL     1       2.986   5.092  18.459  0.00  0.00    +0.000 N 
ATOM      2  C   UNL     1       2.213   4.321  17.606  0.00  0.00    +0.000 C 
ATOM      3  O   UNL     1       1.014   4.468  17.372  0.00  0.00    +0.000 OA
ATOM      4  H   UNL     1       3.726   4.554  18.899  0.00  0.00    +0.000 HD
ENDROOT
BRANCH   1  12
ATOM      5  C   UNL     1       1.689   4.461  21.075  0.00  0.00    +0.000 C 
ATOM      6  C   UNL     1       1.807   5.844  20.496  0.00  0.00    +0.000 A 
ATOM      7  C   UNL     1       1.203   6.900  21.204  0.00  0.00    +0.000 A 
ATOM      8  C   UNL     1       1.214   8.199  20.706  0.00  0.00    +0.000 A 
ATOM      9  C   UNL     1       1.841   8.470  19.495  0.00  0.00    +0.000 A 
ATOM     10  C   UNL     1       2.457   7.443  18.763  0.00  0.00    +0.000 A 
ATOM     11  C   UNL     1       3.176   7.814  17.493  0.00  0.00    +0.000 C 
ATOM     12  C   UNL     1       2.442   6.122  19.268  0.00  0.00    +0.000 A 
ENDBRANCH   1  12
BRANCH   2  13
ATOM     13  C   UNL     1       2.955   3.124  17.030  0.00  0.00    +0.000 C 
BRANCH  13  14
ATOM     14  S   UNL     1       4.640   3.021  17.699  0.00  0.00    +0.000 S 
BRANCH  14  15
ATOM     15  C   UNL     1       5.616   3.919  16.553  0.00  0.00    +0.000 A 
ATOM     16  N   UNL     1       5.800   3.622  15.212  0.00  0.00    +0.000 N 
ATOM     17  C   UNL     1       6.634   4.370  14.426  0.00  0.00    +0.000 A 
ATOM     18  N   UNL     1       7.295   5.416  14.799  0.00  0.00    +0.000 NA
ATOM     19  C   UNL     1       7.131   5.766  16.111  0.00  0.00    +0.000 A 
ATOM     20  N   UNL     1       7.698   6.767  16.726  0.00  0.00    +0.000 NA
ATOM     21  N   UNL     1       7.244   6.740  18.113  0.00  0.00    +0.000 NA
ATOM     22  C   UNL     1       6.435   5.729  18.250  0.00  0.00    +0.000 A 
ATOM     23  C   UNL     1       6.270   4.997  17.008  0.00  0.00    +0.000 A 
ATOM     24  H   UNL     1       5.431   2.751  14.837  0.00  0.00    +0.000 HD
ENDBRANCH  14  15
ENDBRANCH  13  14
ENDBRANCH   2  13
TORSDOF 4
ENDMDL
MODEL 6
REMARK VINA RESULT:      -7.1      2.829      6.569
REMARK  Name = 
REMARK  6 active torsions:
REMARK  status: ('A' for Active; 'I' for Inactive)
REMARK    1  A    between atoms: C_1  and  C_2
REMARK    2  A    between atoms: C_6  and  C_7
REMARK    3  A    between atoms: C_8  and  N_9
REMARK    4  A    between atoms: C_10  and  C_12
REMARK    5  A    between atoms: C_12  and  S_13
REMARK    6  A    between atoms: S_13  and  C_14
REMARK                            x       y       z     vdW  Elec       q    Type
REMARK                         _______ _______ _______ _____ _____    ______ ____
ROOT
ATOM      1  N   UNL     1       6.841   5.816  15.306  0.00  0.00    +0.000 N 
ATOM      2  C   UNL     1       7.404   5.418  16.508  0.00  0.00    +0.000 C 
ATOM      3  O   UNL     1       7.914   4.325  16.751  0.00  0.00    +0.000 OA
ATOM      4  H   UNL     1       6.071   6.464  15.439  0.00  0.00    +0.000 HD
ENDROOT
BRANCH   1  12
ATOM      5  C   UNL     1       8.728   5.936  12.993  0.00  0.00    +0.000 C 
ATOM      6  C   UNL     1       7.559   4.994  13.089  0.00  0.00    +0.000 A 
ATOM      7  C   UNL     1       7.299   4.163  11.983  0.00  0.00    +0.000 A 
ATOM      8  C   UNL     1       6.202   3.309  11.967  0.00  0.00    +0.000 A 
ATOM      9  C   UNL     1       5.350   3.258  13.064  0.00  0.00    +0.000 A 
ATOM     10  C   UNL     1       5.578   4.069  14.187  0.00  0.00    +0.000 A 
ATOM     11  C   UNL     1       4.657   3.917  15.368  0.00  0.00    +0.000 C 
ATOM     12  C   UNL     1       6.692   4.940  14.201  0.00  0.00    +0.000 A 
ENDBRANCH   1  12
BRANCH   2  13
ATOM     13  C   UNL     1       7.235   6.437  17.624  0.00  0.00    +0.000 C 
BRANCH  13  14
ATOM     14  S   UNL     1       7.009   5.614  19.227  0.00  0.00    +0.000 S 
BRANCH  14  15
ATOM     15  C   UNL     1       5.518   4.711  19.043  0.00  0.00    +0.000 A 
ATOM     16  N   UNL     1       5.354   3.345  19.206  0.00  0.00    +0.000 N 
ATOM     17  C   UNL     1       4.145   2.742  18.980  0.00  0.00    +0.000 A 
ATOM     18  N   UNL     1       3.051   3.338  18.641  0.00  0.00    +0.000 NA
ATOM     19  C   UNL     1       3.153   4.693  18.489  0.00  0.00    +0.000 A 
ATOM     20  N   UNL     1       2.198   5.511  18.139  0.00  0.00    +0.000 NA
ATOM     21  N   UNL     1       2.771   6.853  18.088  0.00  0.00    +0.000 NA
ATOM     22  C   UNL     1       4.031   6.762  18.407  0.00  0.00    +0.000 A 
ATOM     23  C   UNL     1       4.419   5.394  18.694  0.00  0.00    +0.000 A 
ATOM     24  H   UNL     1       6.171   2.756  19.349  0.00  0.00    +0.000 HD
ENDBRANCH  14  15
ENDBRANCH  13  14
ENDBRANCH   2  13
TORSDOF 4
ENDMDL
MODEL 7
REMARK VINA RESULT:      -6.9      1.096      2.182
REMARK  Name = 
REMARK  6 active torsions:
REMARK  status: ('A' for Active; 'I' for Inactive)
REMARK    1  A    between atoms: C_1  and  C_2
REMARK    2  A    between atoms: C_6  and  C_7
REMARK    3  A    between atoms: C_8  and  N_9
REMARK    4  A    between atoms: C_10  and  C_12
REMARK    5  A    between atoms: C_12  and  S_13
REMARK    6  A    between atoms: S_13  and  C_14
REMARK                            x       y       z     vdW  Elec       q    Type
REMARK                         _______ _______ _______ _____ _____    ______ ____
ROOT
ATOM      1  N   UNL     1       2.982   5.489  18.497  0.00  0.00    +0.000 N 
ATOM      2  C   UNL     1       2.328   4.559  17.705  0.00  0.00    +0.000 C 
ATOM      3  O   UNL     1       1.122   4.516  17.470  0.00  0.00    +0.000 OA
ATOM      4  H   UNL     1       3.790   5.093  18.968  0.00  0.00    +0.000 HD
ENDROOT
BRANCH   1  12
ATOM      5  C   UNL     1       2.741   8.279  17.456  0.00  0.00    +0.000 C 
ATOM      6  C   UNL     1       2.187   7.812  18.774  0.00  0.00    +0.000 A 
ATOM      7  C   UNL     1       1.576   8.773  19.602  0.00  0.00    +0.000 A 
ATOM      8  C   UNL     1       1.094   8.436  20.862  0.00  0.00    +0.000 A 
ATOM      9  C   UNL     1       1.201   7.126  21.315  0.00  0.00    +0.000 A 
ATOM     10  C   UNL     1       1.801   6.140  20.518  0.00  0.00    +0.000 A 
ATOM     11  C   UNL     1       1.826   4.727  21.039  0.00  0.00    +0.000 C 
ATOM     12  C   UNL     1       2.295   6.484  19.237  0.00  0.00    +0.000 A 
ENDBRANCH   1  12
BRANCH   2  13
ATOM     13  C   UNL     1       3.235   3.442  17.208  0.00  0.00    +0.000 C 
BRANCH  13  14
ATOM     14  S   UNL     1       4.513   3.047  18.436  0.00  0.00    +0.000 S 
BRANCH  14  15
ATOM     15  C   UNL     1       5.770   4.233  18.150  0.00  0.00    +0.000 A 
ATOM     16  N   UNL     1       6.365   5.052  19.097  0.00  0.00    +0.000 N 
ATOM     17  C   UNL     1       7.304   5.984  18.743  0.00  0.00    +0.000 A 
ATOM     18  N   UNL     1       7.760   6.187  17.552  0.00  0.00    +0.000 NA
ATOM     19  C   UNL     1       7.221   5.389  16.581  0.00  0.00    +0.000 A 
ATOM     20  N   UNL     1       7.505   5.412  15.308  0.00  0.00    +0.000 NA
ATOM     21  N   UNL     1       6.676   4.400  14.658  0.00  0.00    +0.000 NA
ATOM     22  C   UNL     1       5.946   3.833  15.575  0.00  0.00    +0.000 A 
ATOM     23  C   UNL     1       6.200   4.389  16.890  0.00  0.00    +0.000 A 
ATOM     24  H   UNL     1       5.998   5.069  20.046  0.00  0.00    +0.000 HD
ENDBRANCH  14  15
ENDBRANCH  13  14
ENDBRANCH   2  13
TORSDOF 4
ENDMDL
MODEL 8
REMARK VINA RESULT:      -6.9      1.106      1.559
REMARK  Name = 
REMARK  6 active torsions:
REMARK  status: ('A' for Active; 'I' for Inactive)
REMARK    1  A    between atoms: C_1  and  C_2
REMARK    2  A    between atoms: C_6  and  C_7
REMARK    3  A    between atoms: C_8  and  N_9
REMARK    4  A    between atoms: C_10  and  C_12
REMARK    5  A    between atoms: C_12  and  S_13
REMARK    6  A    between atoms: S_13  and  C_14
REMARK                            x       y       z     vdW  Elec       q    Type
REMARK                         _______ _______ _______ _____ _____    ______ ____
ROOT
ATOM      1  N   UNL     1       3.028   5.491  18.444  0.00  0.00    +0.000 N 
ATOM      2  C   UNL     1       2.308   4.576  17.692  0.00  0.00    +0.000 C 
ATOM      3  O   UNL     1       1.085   4.535  17.566  0.00  0.00    +0.000 OA
ATOM      4  H   UNL     1       3.876   5.088  18.831  0.00  0.00    +0.000 HD
ENDROOT
BRANCH   1  12
ATOM      5  C   UNL     1       1.908   4.757  21.114  0.00  0.00    +0.000 C 
ATOM      6  C   UNL     1       1.855   6.138  20.520  0.00  0.00    +0.000 A 
ATOM      7  C   UNL     1       1.168   7.132  21.242  0.00  0.00    +0.000 A 
ATOM      8  C   UNL     1       1.021   8.418  20.734  0.00  0.00    +0.000 A 
ATOM      9  C   UNL     1       1.568   8.739  19.497  0.00  0.00    +0.000 A 
ATOM     10  C   UNL     1       2.261   7.775  18.749  0.00  0.00    +0.000 A 
ATOM     11  C   UNL     1       2.887   8.205  17.449  0.00  0.00    +0.000 C 
ATOM     12  C   UNL     1       2.408   6.466  19.265  0.00  0.00    +0.000 A 
ENDBRANCH   1  12
BRANCH   2  13
ATOM     13  C   UNL     1       3.168   3.475  17.090  0.00  0.00    +0.000 C 
BRANCH  13  14
ATOM     14  S   UNL     1       4.469   2.961  18.247  0.00  0.00    +0.000 S 
BRANCH  14  15
ATOM     15  C   UNL     1       5.734   4.155  18.035  0.00  0.00    +0.000 A 
ATOM     16  N   UNL     1       6.315   4.929  19.027  0.00  0.00    +0.000 N 
ATOM     17  C   UNL     1       7.262   5.873  18.729  0.00  0.00    +0.000 A 
ATOM     18  N   UNL     1       7.738   6.128  17.556  0.00  0.00    +0.000 NA
ATOM     19  C   UNL     1       7.213   5.375  16.542  0.00  0.00    +0.000 A 
ATOM     20  N   UNL     1       7.517   5.454  15.276  0.00  0.00    +0.000 NA
ATOM     21  N   UNL     1       6.696   4.475  14.568  0.00  0.00    +0.000 NA
ATOM     22  C   UNL     1       5.950   3.869  15.447  0.00  0.00    +0.000 A 
ATOM     23  C   UNL     1       6.185   4.365  16.790  0.00  0.00    +0.000 A 
ATOM     24  H   UNL     1       5.933   4.905  19.969  0.00  0.00    +0.000 HD
ENDBRANCH  14  15
ENDBRANCH  13  14
ENDBRANCH   2  13
TORSDOF 4
ENDMDL
MODEL 9
REMARK VINA RESULT:      -6.8      2.827      6.811
REMARK  Name = 
REMARK  6 active torsions:
REMARK  status: ('A' for Active; 'I' for Inactive)
REMARK    1  A    between atoms: C_1  and  C_2
REMARK    2  A    between atoms: C_6  and  C_7
REMARK    3  A    between atoms: C_8  and  N_9
REMARK    4  A    between atoms: C_10  and  C_12
REMARK    5  A    between atoms: C_12  and  S_13
REMARK    6  A    between atoms: S_13  and  C_14
REMARK                            x       y       z     vdW  Elec       q    Type
REMARK                         _______ _______ _______ _____ _____    ______ ____
ROOT
ATOM      1  N   UNL     1       6.950   5.727  15.409  0.00  0.00    +0.000 N 
ATOM      2  C   UNL     1       7.481   5.240  16.593  0.00  0.00    +0.000 C 
ATOM      3  O   UNL     1       7.951   4.119  16.778  0.00  0.00    +0.000 OA
ATOM      4  H   UNL     1       6.199   6.391  15.569  0.00  0.00    +0.000 HD
ENDROOT
BRANCH   1  12
ATOM      5  C   UNL     1       8.849   5.958  13.114  0.00  0.00    +0.000 C 
ATOM      6  C   UNL     1       7.664   5.031  13.148  0.00  0.00    +0.000 A 
ATOM      7  C   UNL     1       7.395   4.274  11.992  0.00  0.00    +0.000 A 
ATOM      8  C   UNL     1       6.285   3.439  11.921  0.00  0.00    +0.000 A 
ATOM      9  C   UNL     1       5.428   3.335  13.010  0.00  0.00    +0.000 A 
ATOM     10  C   UNL     1       5.665   4.072  14.181  0.00  0.00    +0.000 A 
ATOM     11  C   UNL     1       4.737   3.863  15.348  0.00  0.00    +0.000 C 
ATOM     12  C   UNL     1       6.792   4.923  14.252  0.00  0.00    +0.000 A 
ENDBRANCH   1  12
BRANCH   2  13
ATOM     13  C   UNL     1       7.325   6.198  17.766  0.00  0.00    +0.000 C 
BRANCH  13  14
ATOM     14  S   UNL     1       5.582   6.636  18.020  0.00  0.00    +0.000 S 
BRANCH  14  15
ATOM     15  C   UNL     1       4.897   5.239  18.827  0.00  0.00    +0.000 A 
ATOM     16  N   UNL     1       5.438   3.963  18.873  0.00  0.00    +0.000 N 
ATOM     17  C   UNL     1       4.780   2.934  19.491  0.00  0.00    +0.000 A 
ATOM     18  N   UNL     1       3.650   3.018  20.111  0.00  0.00    +0.000 NA
ATOM     19  C   UNL     1       3.083   4.262  20.114  0.00  0.00    +0.000 A 
ATOM     20  N   UNL     1       1.945   4.598  20.657  0.00  0.00    +0.000 NA
ATOM     21  N   UNL     1       1.739   6.020  20.396  0.00  0.00    +0.000 NA
ATOM     22  C   UNL     1       2.761   6.452  19.713  0.00  0.00    +0.000 A 
ATOM     23  C   UNL     1       3.724   5.399  19.455  0.00  0.00    +0.000 A 
ATOM     24  H   UNL     1       6.261   3.748  18.315  0.00  0.00    +0.000 HD
ENDBRANCH  14  15
ENDBRANCH  13  14
ENDBRANCH   2  13
TORSDOF 4
ENDMDL
