MODEL 1
REMARK VINA RESULT:      -7.7      0.000      0.000
REMARK  Name = 
REMARK  6 active torsions:
REMARK  status: ('A' for Active; 'I' for Inactive)
REMARK    1  A    between atoms: C_2  and  C_3
REMARK    2  A    between atoms: C_6  and  N_7
REMARK    3  A    between atoms: C_12  and  O_13
REMARK    4  A    between atoms: O_13  and  C_14
REMARK    5  A    between atoms: C_17  and  C_18
REMARK    6  A    between atoms: C_21  and  C_22
REMARK                            x       y       z     vdW  Elec       q    Type
REMARK                         _______ _______ _______ _____ _____    ______ ____
ROOT
ATOM      1  N   UNL     1       4.715   5.397  18.410  0.00  0.00    +0.000 N 
ATOM      2  C   UNL     1       3.473   5.130  18.992  0.00  0.00    +0.000 A 
ATOM      3  N   UNL     1       2.823   3.988  18.717  0.00  0.00    +0.000 NA
ATOM      4  C   UNL     1       1.649   3.774  19.334  0.00  0.00    +0.000 A 
ATOM      5  C   UNL     1       1.101   4.653  20.228  0.00  0.00    +0.000 A 
ATOM      6  C   UNL     1       1.852   5.778  20.460  0.00  0.00    +0.000 A 
ATOM      7  N   UNL     1       3.017   6.051  19.841  0.00  0.00    +0.000 NA
ATOM      8  H   UNL     1       4.959   6.346  18.666  0.00  0.00    +0.000 HD
ENDROOT
BRANCH   1  12
ATOM      9  C   UNL     1       5.968   4.381  14.517  0.00  0.00    +0.000 A 
ATOM     10  C   UNL     1       5.522   5.679  14.781  0.00  0.00    +0.000 A 
ATOM     11  C   UNL     1       5.095   6.018  16.065  0.00  0.00    +0.000 A 
ATOM     12  C   UNL     1       5.097   5.072  17.097  0.00  0.00    +0.000 A 
ATOM     13  C   UNL     1       5.566   3.780  16.826  0.00  0.00    +0.000 A 
ATOM     14  C   UNL     1       5.988   3.431  15.538  0.00  0.00    +0.000 A 
BRANCH   9  16
ATOM     15  N   UNL     1       6.764   3.750  12.131  0.00  0.00    +0.000 NA
ATOM     16  C   UNL     1       6.407   4.037  13.199  0.00  0.00    +0.000 C 
ENDBRANCH   9  16
ENDBRANCH   1  12
BRANCH   6  17
ATOM     17  O   UNL     1       1.359   6.677  21.397  0.00  0.00    +0.000 OA
BRANCH  17  18
ATOM     18  C   UNL     1       1.125   7.965  20.969  0.00  0.00    +0.000 A 
ATOM     19  C   UNL     1       1.485   8.428  19.707  0.00  0.00    +0.000 A 
ATOM     20  C   UNL     1       1.235   9.754  19.350  0.00  0.00    +0.000 A 
ATOM     21  C   UNL     1       0.630  10.672  20.238  0.00  0.00    +0.000 A 
ATOM     22  C   UNL     1       0.277  10.170  21.515  0.00  0.00    +0.000 A 
ATOM     23 CL   UNL     1      -0.568  11.105  22.706  0.00  0.00    +0.000 Cl
ATOM     24  C   UNL     1       0.548   8.842  21.881  0.00  0.00    +0.000 A 
BRANCH  21  25
ATOM     25  C   UNL     1       0.440  12.076  19.777  0.00  0.00    +0.000 A 
ATOM     26  C   UNL     1       1.014  13.157  20.481  0.00  0.00    +0.000 A 
ATOM     27  C   UNL     1       0.777  14.488  20.115  0.00  0.00    +0.000 A 
ATOM     28  C   UNL     1      -0.016  14.776  19.006  0.00  0.00    +0.000 A 
ATOM     29  C   UNL     1      -0.583  13.729  18.281  0.00  0.00    +0.000 A 
ATOM     30  C   UNL     1      -0.377  12.403  18.680  0.00  0.00    +0.000 A 
BRANCH  28  31
ATOM     31  C   UNL     1      -0.261  16.136  18.624  0.00  0.00    +0.000 C 
ATOM     32  N   UNL     1      -0.467  17.236  18.323  0.00  0.00    +0.000 NA
ENDBRANCH  28  31
ENDBRANCH  21  25
ENDBRANCH  17  18
ENDBRANCH   6  17
TORSDOF 6
ENDMDL
MODEL 2
REMARK VINA RESULT:      -7.6      0.561      1.237
REMARK  Name = 
REMARK  6 active torsions:
REMARK  status: ('A' for Active; 'I' for Inactive)
REMARK    1  A    between atoms: C_2  and  C_3
REMARK    2  A    between atoms: C_6  and  N_7
REMARK    3  A    between atoms: C_12  and  O_13
REMARK    4  A    between atoms: O_13  and  C_14
REMARK    5  A    between atoms: C_17  and  C_18
REMARK    6  A    between atoms: C_21  and  C_22
REMARK                            x       y       z     vdW  Elec       q    Type
REMARK                         _______ _______ _______ _____ _____    ______ ____
ROOT
ATOM      1  N   UNL     1       5.084   5.566  18.546  0.00  0.00    +0.000 N 
ATOM      2  C   UNL     1       3.811   5.210  18.999  0.00  0.00    +0.000 A 
ATOM      3  N   UNL     1       3.245   4.058  18.604  0.00  0.00    +0.000 NA
ATOM      4  C   UNL     1       2.033   3.756  19.100  0.00  0.00    +0.000 A 
ATOM      5  C   UNL     1       1.367   4.555  19.988  0.00  0.00    +0.000 A 
ATOM      6  C   UNL     1       2.037   5.697  20.348  0.00  0.00    +0.000 A 
ATOM      7  N   UNL     1       3.237   6.058  19.852  0.00  0.00    +0.000 NA
ATOM      8  H   UNL     1       5.257   6.509  18.875  0.00  0.00    +0.000 HD
ENDROOT
BRANCH   1  12
ATOM      9  C   UNL     1       6.502   4.857  14.641  0.00  0.00    +0.000 A 
ATOM     10  C   UNL     1       7.071   4.170  15.717  0.00  0.00    +0.000 A 
ATOM     11  C   UNL     1       6.614   4.409  17.013  0.00  0.00    +0.000 A 
ATOM     12  C   UNL     1       5.595   5.337  17.257  0.00  0.00    +0.000 A 
ATOM     13  C   UNL     1       5.017   6.004  16.169  0.00  0.00    +0.000 A 
ATOM     14  C   UNL     1       5.477   5.775  14.867  0.00  0.00    +0.000 A 
BRANCH   9  16
ATOM     15  N   UNL     1       7.358   4.400  12.237  0.00  0.00    +0.000 NA
ATOM     16  C   UNL     1       6.972   4.608  13.313  0.00  0.00    +0.000 C 
ENDBRANCH   9  16
ENDBRANCH   1  12
BRANCH   6  17
ATOM     17  O   UNL     1       1.421   6.516  21.285  0.00  0.00    +0.000 OA
BRANCH  17  18
ATOM     18  C   UNL     1       1.170   7.818  20.912  0.00  0.00    +0.000 A 
ATOM     19  C   UNL     1       1.519   8.338  19.669  0.00  0.00    +0.000 A 
ATOM     20  C   UNL     1       1.252   9.674  19.369  0.00  0.00    +0.000 A 
ATOM     21  C   UNL     1       0.641  10.547  20.297  0.00  0.00    +0.000 A 
ATOM     22  C   UNL     1       0.300   9.988  21.553  0.00  0.00    +0.000 A 
ATOM     23 CL   UNL     1      -0.552  10.862  22.786  0.00  0.00    +0.000 Cl
ATOM     24  C   UNL     1       0.587   8.649  21.863  0.00  0.00    +0.000 A 
BRANCH  21  25
ATOM     25  C   UNL     1       0.432  11.967  19.897  0.00  0.00    +0.000 A 
ATOM     26  C   UNL     1      -0.820  12.413  19.422  0.00  0.00    +0.000 A 
ATOM     27  C   UNL     1      -1.014  13.722  18.960  0.00  0.00    +0.000 A 
ATOM     28  C   UNL     1       0.037  14.637  18.996  0.00  0.00    +0.000 A 
ATOM     29  C   UNL     1       1.282  14.229  19.476  0.00  0.00    +0.000 A 
ATOM     30  C   UNL     1       1.478  12.908  19.894  0.00  0.00    +0.000 A 
BRANCH  28  31
ATOM     31  C   UNL     1      -0.153  15.978  18.527  0.00  0.00    +0.000 C 
ATOM     32  N   UNL     1      -0.297  17.062  18.145  0.00  0.00    +0.000 NA
ENDBRANCH  28  31
ENDBRANCH  21  25
ENDBRANCH  17  18
ENDBRANCH   6  17
TORSDOF 6
ENDMDL
MODEL 3
REMARK VINA RESULT:      -7.6      1.173      1.844
REMARK  Name = 
REMARK  6 active torsions:
REMARK  status: ('A' for Active; 'I' for Inactive)
REMARK    1  A    between atoms: C_2  and  C_3
REMARK    2  A    between atoms: C_6  and  N_7
REMARK    3  A    between atoms: C_12  and  O_13
REMARK    4  A    between atoms: O_13  and  C_14
REMARK    5  A    between atoms: C_17  and  C_18
REMARK    6  A    between atoms: C_21  and  C_22
REMARK                            x       y       z     vdW  Elec       q    Type
REMARK                         _______ _______ _______ _____ _____    ______ ____
ROOT
ATOM      1  N   UNL     1       5.032   5.589  18.681  0.00  0.00    +0.000 N 
ATOM      2  C   UNL     1       3.763   5.206  19.121  0.00  0.00    +0.000 A 
ATOM      3  N   UNL     1       3.230   4.037  18.727  0.00  0.00    +0.000 NA
ATOM      4  C   UNL     1       2.020   3.710  19.212  0.00  0.00    +0.000 A 
ATOM      5  C   UNL     1       1.323   4.499  20.086  0.00  0.00    +0.000 A 
ATOM      6  C   UNL     1       1.962   5.659  20.445  0.00  0.00    +0.000 A 
ATOM      7  N   UNL     1       3.158   6.046  19.961  0.00  0.00    +0.000 NA
ATOM      8  H   UNL     1       5.178   6.538  19.005  0.00  0.00    +0.000 HD
ENDROOT
BRANCH   1  12
ATOM      9  C   UNL     1       6.514   4.882  14.799  0.00  0.00    +0.000 A 
ATOM     10  C   UNL     1       7.120   4.257  15.893  0.00  0.00    +0.000 A 
ATOM     11  C   UNL     1       6.641   4.496  17.181  0.00  0.00    +0.000 A 
ATOM     12  C   UNL     1       5.564   5.363  17.400  0.00  0.00    +0.000 A 
ATOM     13  C   UNL     1       4.951   5.967  16.294  0.00  0.00    +0.000 A 
ATOM     14  C   UNL     1       5.431   5.738  15.000  0.00  0.00    +0.000 A 
BRANCH   9  16
ATOM     15  N   UNL     1       7.409   4.439  12.407  0.00  0.00    +0.000 NA
ATOM     16  C   UNL     1       7.006   4.633  13.479  0.00  0.00    +0.000 C 
ENDBRANCH   9  16
ENDBRANCH   1  12
BRANCH   6  17
ATOM     17  O   UNL     1       1.315   6.470  21.370  0.00  0.00    +0.000 OA
BRANCH  17  18
ATOM     18  C   UNL     1       1.174   7.801  21.046  0.00  0.00    +0.000 A 
ATOM     19  C   UNL     1       0.701   8.758  21.938  0.00  0.00    +0.000 A 
ATOM     20  C   UNL     1       0.564  10.086  21.533  0.00  0.00    +0.000 A 
ATOM     21  C   UNL     1       0.880  10.510  20.223  0.00  0.00    +0.000 A 
ATOM     22  C   UNL     1       1.357   9.512  19.338  0.00  0.00    +0.000 A 
ATOM     23 CL   UNL     1       1.897   9.846  17.724  0.00  0.00    +0.000 Cl
ATOM     24  C   UNL     1       1.474   8.171  19.740  0.00  0.00    +0.000 A 
BRANCH  21  25
ATOM     25  C   UNL     1       0.664  11.943  19.874  0.00  0.00    +0.000 A 
ATOM     26  C   UNL     1      -0.485  12.353  19.162  0.00  0.00    +0.000 A 
ATOM     27  C   UNL     1      -0.665  13.681  18.751  0.00  0.00    +0.000 A 
ATOM     28  C   UNL     1       0.286  14.647  19.074  0.00  0.00    +0.000 A 
ATOM     29  C   UNL     1       1.423  14.274  19.791  0.00  0.00    +0.000 A 
ATOM     30  C   UNL     1       1.616  12.937  20.160  0.00  0.00    +0.000 A 
BRANCH  28  31
ATOM     31  C   UNL     1       0.108  16.007  18.658  0.00  0.00    +0.000 C 
ATOM     32  N   UNL     1      -0.038  17.109  18.333  0.00  0.00    +0.000 NA
ENDBRANCH  28  31
ENDBRANCH  21  25
ENDBRANCH  17  18
ENDBRANCH   6  17
TORSDOF 6
ENDMDL
MODEL 4
REMARK VINA RESULT:      -7.6      6.641      8.026
REMARK  Name = 
REMARK  6 active torsions:
REMARK  status: ('A' for Active; 'I' for Inactive)
REMARK    1  A    between atoms: C_2  and  C_3
REMARK    2  A    between atoms: C_6  and  N_7
REMARK    3  A    between atoms: C_12  and  O_13
REMARK    4  A    between atoms: O_13  and  C_14
REMARK    5  A    between atoms: C_17  and  C_18
REMARK    6  A    between atoms: C_21  and  C_22
REMARK                            x       y       z     vdW  Elec       q    Type
REMARK                         _______ _______ _______ _____ _____    ______ ____
ROOT
ATOM      1  N   UNL     1       5.454   5.937  16.635  0.00  0.00    +0.000 N 
ATOM      2  C   UNL     1       6.487   6.504  17.385  0.00  0.00    +0.000 A 
ATOM      3  N   UNL     1       6.993   5.855  18.447  0.00  0.00    +0.000 NA
ATOM      4  C   UNL     1       8.007   6.438  19.108  0.00  0.00    +0.000 A 
ATOM      5  C   UNL     1       8.547   7.641  18.743  0.00  0.00    +0.000 A 
ATOM      6  C   UNL     1       7.978   8.213  17.634  0.00  0.00    +0.000 A 
ATOM      7  N   UNL     1       6.938   7.684  16.959  0.00  0.00    +0.000 NA
ATOM      8  H   UNL     1       5.159   6.640  15.967  0.00  0.00    +0.000 HD
ENDROOT
BRANCH   1  12
ATOM      9  C   UNL     1       2.221   3.633  18.049  0.00  0.00    +0.000 A 
ATOM     10  C   UNL     1       2.209   5.020  18.225  0.00  0.00    +0.000 A 
ATOM     11  C   UNL     1       3.282   5.787  17.769  0.00  0.00    +0.000 A 
ATOM     12  C   UNL     1       4.381   5.186  17.143  0.00  0.00    +0.000 A 
ATOM     13  C   UNL     1       4.373   3.798  16.954  0.00  0.00    +0.000 A 
ATOM     14  C   UNL     1       3.303   3.022  17.416  0.00  0.00    +0.000 A 
BRANCH   9  16
ATOM     15  N   UNL     1       0.220   2.215  18.889  0.00  0.00    +0.000 NA
ATOM     16  C   UNL     1       1.119   2.850  18.517  0.00  0.00    +0.000 C 
ENDBRANCH   9  16
ENDBRANCH   1  12
BRANCH   6  17
ATOM     17  O   UNL     1       8.525   9.412  17.197  0.00  0.00    +0.000 OA
BRANCH  17  18
ATOM     18  C   UNL     1       8.791  10.366  18.153  0.00  0.00    +0.000 A 
ATOM     19  C   UNL     1       9.178  10.057  19.454  0.00  0.00    +0.000 A 
ATOM     20  C   UNL     1       9.410  11.077  20.377  0.00  0.00    +0.000 A 
ATOM     21  C   UNL     1       9.254  12.442  20.046  0.00  0.00    +0.000 A 
ATOM     22  C   UNL     1       8.858  12.724  18.715  0.00  0.00    +0.000 A 
ATOM     23 CL   UNL     1       8.715  14.332  18.083  0.00  0.00    +0.000 Cl
ATOM     24  C   UNL     1       8.604  11.696  17.793  0.00  0.00    +0.000 A 
BRANCH  21  25
ATOM     25  C   UNL     1       9.488  13.457  21.112  0.00  0.00    +0.000 A 
ATOM     26  C   UNL     1       8.782  13.405  22.334  0.00  0.00    +0.000 A 
ATOM     27  C   UNL     1       8.925  14.397  23.313  0.00  0.00    +0.000 A 
ATOM     28  C   UNL     1       9.810  15.454  23.112  0.00  0.00    +0.000 A 
ATOM     29  C   UNL     1      10.534  15.523  21.922  0.00  0.00    +0.000 A 
ATOM     30  C   UNL     1      10.353  14.551  20.930  0.00  0.00    +0.000 A 
BRANCH  28  31
ATOM     31  C   UNL     1       9.963  16.472  24.111  0.00  0.00    +0.000 C 
ATOM     32  N   UNL     1      10.095  17.288  24.922  0.00  0.00    +0.000 NA
ENDBRANCH  28  31
ENDBRANCH  21  25
ENDBRANCH  17  18
ENDBRANCH   6  17
TORSDOF 6
ENDMDL
MODEL 5
REMARK VINA RESULT:      -7.6      6.601      8.022
REMARK  Name = 
REMARK  6 active torsions:
REMARK  status: ('A' for Active; 'I' for Inactive)
REMARK    1  A    between atoms: C_2  and  C_3
REMARK    2  A    between atoms: C_6  and  N_7
REMARK    3  A    between atoms: C_12  and  O_13
REMARK    4  A    between atoms: O_13  and  C_14
REMARK    5  A    between atoms: C_17  and  C_18
REMARK    6  A    between atoms: C_21  and  C_22
REMARK                            x       y       z     vdW  Elec       q    Type
REMARK                         _______ _______ _______ _____ _____    ______ ____
ROOT
ATOM      1  N   UNL     1       5.520   5.959  16.549  0.00  0.00    +0.000 N 
ATOM      2  C   UNL     1       6.524   6.517  17.344  0.00  0.00    +0.000 A 
ATOM      3  N   UNL     1       6.974   5.865  18.429  0.00  0.00    +0.000 NA
ATOM      4  C   UNL     1       7.965   6.438  19.134  0.00  0.00    +0.000 A 
ATOM      5  C   UNL     1       8.534   7.634  18.790  0.00  0.00    +0.000 A 
ATOM      6  C   UNL     1       8.022   8.209  17.655  0.00  0.00    +0.000 A 
ATOM      7  N   UNL     1       7.008   7.690  16.935  0.00  0.00    +0.000 NA
ATOM      8  H   UNL     1       5.264   6.663  15.866  0.00  0.00    +0.000 HD
ENDROOT
BRANCH   1  12
ATOM      9  C   UNL     1       2.228   3.796  18.046  0.00  0.00    +0.000 A 
ATOM     10  C   UNL     1       3.231   3.125  17.341  0.00  0.00    +0.000 A 
ATOM     11  C   UNL     1       4.318   3.837  16.833  0.00  0.00    +0.000 A 
ATOM     12  C   UNL     1       4.416   5.222  17.010  0.00  0.00    +0.000 A 
ATOM     13  C   UNL     1       3.416   5.881  17.737  0.00  0.00    +0.000 A 
ATOM     14  C   UNL     1       2.319   5.173  18.242  0.00  0.00    +0.000 A 
BRANCH   9  16
ATOM     15  N   UNL     1       0.217   2.459  18.990  0.00  0.00    +0.000 NA
ATOM     16  C   UNL     1       1.116   3.062  18.568  0.00  0.00    +0.000 C 
ENDBRANCH   9  16
ENDBRANCH   1  12
BRANCH   6  17
ATOM     17  O   UNL     1       8.602   9.401  17.239  0.00  0.00    +0.000 OA
BRANCH  17  18
ATOM     18  C   UNL     1       8.804  10.368  18.199  0.00  0.00    +0.000 A 
ATOM     19  C   UNL     1       9.217  10.082  19.497  0.00  0.00    +0.000 A 
ATOM     20  C   UNL     1       9.380  11.113  20.422  0.00  0.00    +0.000 A 
ATOM     21  C   UNL     1       9.127  12.465  20.097  0.00  0.00    +0.000 A 
ATOM     22  C   UNL     1       8.707  12.722  18.769  0.00  0.00    +0.000 A 
ATOM     23 CL   UNL     1       8.449  14.319  18.143  0.00  0.00    +0.000 Cl
ATOM     24  C   UNL     1       8.522  11.682  17.844  0.00  0.00    +0.000 A 
BRANCH  21  25
ATOM     25  C   UNL     1       9.294  13.490  21.166  0.00  0.00    +0.000 A 
ATOM     26  C   UNL     1      10.280  14.495  21.063  0.00  0.00    +0.000 A 
ATOM     27  C   UNL     1      10.509  15.416  22.094  0.00  0.00    +0.000 A 
ATOM     28  C   UNL     1       9.729  15.379  23.248  0.00  0.00    +0.000 A 
ATOM     29  C   UNL     1       8.736  14.407  23.371  0.00  0.00    +0.000 A 
ATOM     30  C   UNL     1       8.543  13.465  22.355  0.00  0.00    +0.000 A 
BRANCH  28  31
ATOM     31  C   UNL     1       9.957  16.318  24.307  0.00  0.00    +0.000 C 
ATOM     32  N   UNL     1      10.132  17.073  25.168  0.00  0.00    +0.000 NA
ENDBRANCH  28  31
ENDBRANCH  21  25
ENDBRANCH  17  18
ENDBRANCH   6  17
TORSDOF 6
ENDMDL
MODEL 6
REMARK VINA RESULT:      -7.5      2.631      9.552
REMARK  Name = 
REMARK  6 active torsions:
REMARK  status: ('A' for Active; 'I' for Inactive)
REMARK    1  A    between atoms: C_2  and  C_3
REMARK    2  A    between atoms: C_6  and  N_7
REMARK    3  A    between atoms: C_12  and  O_13
REMARK    4  A    between atoms: O_13  and  C_14
REMARK    5  A    between atoms: C_17  and  C_18
REMARK    6  A    between atoms: C_21  and  C_22
REMARK                            x       y       z     vdW  Elec       q    Type
REMARK                         _______ _______ _______ _____ _____    ______ ____
ROOT
ATOM      1  N   UNL     1       0.173  11.712  19.255  0.00  0.00    +0.000 N 
ATOM      2  C   UNL     1       0.060  11.015  20.461  0.00  0.00    +0.000 A 
ATOM      3  N   UNL     1      -0.430  11.622  21.554  0.00  0.00    +0.000 NA
ATOM      4  C   UNL     1      -0.545  10.890  22.675  0.00  0.00    +0.000 A 
ATOM      5  C   UNL     1      -0.200   9.567  22.745  0.00  0.00    +0.000 A 
ATOM      6  C   UNL     1       0.268   9.034  21.571  0.00  0.00    +0.000 A 
ATOM      7  N   UNL     1       0.432   9.736  20.432  0.00  0.00    +0.000 NA
ATOM      8  H   UNL     1       0.665  11.102  18.611  0.00  0.00    +0.000 HD
ENDROOT
BRANCH   1  12
ATOM      9  C   UNL     1       1.197  15.766  18.728  0.00  0.00    +0.000 A 
ATOM     10  C   UNL     1       2.209  14.809  18.850  0.00  0.00    +0.000 A 
ATOM     11  C   UNL     1       1.876  13.467  19.036  0.00  0.00    +0.000 A 
ATOM     12  C   UNL     1       0.538  13.061  19.113  0.00  0.00    +0.000 A 
ATOM     13  C   UNL     1      -0.468  14.026  18.969  0.00  0.00    +0.000 A 
ATOM     14  C   UNL     1      -0.140  15.375  18.790  0.00  0.00    +0.000 A 
BRANCH   9  16
ATOM     15  N   UNL     1       1.829  18.256  18.381  0.00  0.00    +0.000 NA
ATOM     16  C   UNL     1       1.541  17.141  18.536  0.00  0.00    +0.000 C 
ENDBRANCH   9  16
ENDBRANCH   1  12
BRANCH   6  17
ATOM     17  O   UNL     1       0.585   7.681  21.580  0.00  0.00    +0.000 OA
BRANCH  17  18
ATOM     18  C   UNL     1       1.419   7.225  20.584  0.00  0.00    +0.000 A 
ATOM     19  C   UNL     1       1.774   7.988  19.476  0.00  0.00    +0.000 A 
ATOM     20  C   UNL     1       2.608   7.451  18.494  0.00  0.00    +0.000 A 
ATOM     21  C   UNL     1       3.109   6.132  18.570  0.00  0.00    +0.000 A 
ATOM     22  C   UNL     1       2.728   5.381  19.709  0.00  0.00    +0.000 A 
ATOM     23 CL   UNL     1       3.321   3.785  20.042  0.00  0.00    +0.000 Cl
ATOM     24  C   UNL     1       1.872   5.915  20.686  0.00  0.00    +0.000 A 
BRANCH  21  25
ATOM     25  C   UNL     1       3.962   5.637  17.453  0.00  0.00    +0.000 A 
ATOM     26  C   UNL     1       4.733   6.528  16.676  0.00  0.00    +0.000 A 
ATOM     27  C   UNL     1       5.474   6.093  15.568  0.00  0.00    +0.000 A 
ATOM     28  C   UNL     1       5.492   4.742  15.228  0.00  0.00    +0.000 A 
ATOM     29  C   UNL     1       4.752   3.836  15.987  0.00  0.00    +0.000 A 
ATOM     30  C   UNL     1       3.981   4.285  17.065  0.00  0.00    +0.000 A 
BRANCH  28  31
ATOM     31  C   UNL     1       6.249   4.290  14.097  0.00  0.00    +0.000 C 
ATOM     32  N   UNL     1       6.858   3.934  13.178  0.00  0.00    +0.000 NA
ENDBRANCH  28  31
ENDBRANCH  21  25
ENDBRANCH  17  18
ENDBRANCH   6  17
TORSDOF 6
ENDMDL
MODEL 7
REMARK VINA RESULT:      -7.5      1.341      1.619
REMARK  Name = 
REMARK  6 active torsions:
REMARK  status: ('A' for Active; 'I' for Inactive)
REMARK    1  A    between atoms: C_2  and  C_3
REMARK    2  A    between atoms: C_6  and  N_7
REMARK    3  A    between atoms: C_12  and  O_13
REMARK    4  A    between atoms: O_13  and  C_14
REMARK    5  A    between atoms: C_17  and  C_18
REMARK    6  A    between atoms: C_21  and  C_22
REMARK                            x       y       z     vdW  Elec       q    Type
REMARK                         _______ _______ _______ _____ _____    ______ ____
ROOT
ATOM      1  N   UNL     1       5.148   5.113  18.277  0.00  0.00    +0.000 N 
ATOM      2  C   UNL     1       3.907   4.790  18.832  0.00  0.00    +0.000 A 
ATOM      3  N   UNL     1       3.293   3.641  18.505  0.00  0.00    +0.000 NA
ATOM      4  C   UNL     1       2.117   3.372  19.098  0.00  0.00    +0.000 A 
ATOM      5  C   UNL     1       1.534   4.201  20.017  0.00  0.00    +0.000 A 
ATOM      6  C   UNL     1       2.250   5.337  20.301  0.00  0.00    +0.000 A 
ATOM      7  N   UNL     1       3.414   5.666  19.708  0.00  0.00    +0.000 NA
ATOM      8  H   UNL     1       5.362   6.059  18.572  0.00  0.00    +0.000 HD
ENDROOT
BRANCH   1  12
ATOM      9  C   UNL     1       6.432   4.428  14.322  0.00  0.00    +0.000 A 
ATOM     10  C   UNL     1       5.069   4.362  14.626  0.00  0.00    +0.000 A 
ATOM     11  C   UNL     1       4.639   4.576  15.935  0.00  0.00    +0.000 A 
ATOM     12  C   UNL     1       5.555   4.849  16.958  0.00  0.00    +0.000 A 
ATOM     13  C   UNL     1       6.917   4.934  16.638  0.00  0.00    +0.000 A 
ATOM     14  C   UNL     1       7.356   4.712  15.328  0.00  0.00    +0.000 A 
BRANCH   9  16
ATOM     15  N   UNL     1       7.230   4.026  11.888  0.00  0.00    +0.000 NA
ATOM     16  C   UNL     1       6.870   4.210  12.977  0.00  0.00    +0.000 C 
ENDBRANCH   9  16
ENDBRANCH   1  12
BRANCH   6  17
ATOM     17  O   UNL     1       1.721   6.186  21.265  0.00  0.00    +0.000 OA
BRANCH  17  18
ATOM     18  C   UNL     1       1.495   7.493  20.894  0.00  0.00    +0.000 A 
ATOM     19  C   UNL     1       0.975   8.453  21.756  0.00  0.00    +0.000 A 
ATOM     20  C   UNL     1       0.752   9.754  21.303  0.00  0.00    +0.000 A 
ATOM     21  C   UNL     1       1.024  10.145  19.973  0.00  0.00    +0.000 A 
ATOM     22  C   UNL     1       1.550   9.144  19.120  0.00  0.00    +0.000 A 
ATOM     23 CL   UNL     1       2.048   9.449  17.486  0.00  0.00    +0.000 Cl
ATOM     24  C   UNL     1       1.755   7.830  19.570  0.00  0.00    +0.000 A 
BRANCH  21  25
ATOM     25  C   UNL     1       0.716  11.548  19.574  0.00  0.00    +0.000 A 
ATOM     26  C   UNL     1       1.582  12.609  19.919  0.00  0.00    +0.000 A 
ATOM     27  C   UNL     1       1.268  13.944  19.628  0.00  0.00    +0.000 A 
ATOM     28  C   UNL     1       0.091  14.252  18.948  0.00  0.00    +0.000 A 
ATOM     29  C   UNL     1      -0.775  13.223  18.580  0.00  0.00    +0.000 A 
ATOM     30  C   UNL     1      -0.475  11.897  18.913  0.00  0.00    +0.000 A 
BRANCH  28  31
ATOM     31  C   UNL     1      -0.235  15.615  18.645  0.00  0.00    +0.000 C 
ATOM     32  N   UNL     1      -0.491  16.716  18.392  0.00  0.00    +0.000 NA
ENDBRANCH  28  31
ENDBRANCH  21  25
ENDBRANCH  17  18
ENDBRANCH   6  17
TORSDOF 6
ENDMDL
MODEL 8
REMARK VINA RESULT:      -7.5      0.571      1.038
REMARK  Name = 
REMARK  6 active torsions:
REMARK  status: ('A' for Active; 'I' for Inactive)
REMARK    1  A    between atoms: C_2  and  C_3
REMARK    2  A    between atoms: C_6  and  N_7
REMARK    3  A    between atoms: C_12  and  O_13
REMARK    4  A    between atoms: O_13  and  C_14
REMARK    5  A    between atoms: C_17  and  C_18
REMARK    6  A    between atoms: C_21  and  C_22
REMARK                            x       y       z     vdW  Elec       q    Type
REMARK                         _______ _______ _______ _____ _____    ______ ____
ROOT
ATOM      1  N   UNL     1       4.686   5.711  18.483  0.00  0.00    +0.000 N 
ATOM      2  C   UNL     1       3.515   5.302  19.125  0.00  0.00    +0.000 A 
ATOM      3  N   UNL     1       3.096   4.030  19.030  0.00  0.00    +0.000 NA
ATOM      4  C   UNL     1       1.981   3.689  19.698  0.00  0.00    +0.000 A 
ATOM      5  C   UNL     1       1.271   4.569  20.471  0.00  0.00    +0.000 A 
ATOM      6  C   UNL     1       1.793   5.837  20.522  0.00  0.00    +0.000 A 
ATOM      7  N   UNL     1       2.888   6.233  19.844  0.00  0.00    +0.000 NA
ATOM      8  H   UNL     1       4.744   6.717  18.595  0.00  0.00    +0.000 HD
ENDROOT
BRANCH   1  12
ATOM      9  C   UNL     1       5.910   4.455  14.651  0.00  0.00    +0.000 A 
ATOM     10  C   UNL     1       5.942   3.551  15.716  0.00  0.00    +0.000 A 
ATOM     11  C   UNL     1       5.549   3.964  16.989  0.00  0.00    +0.000 A 
ATOM     12  C   UNL     1       5.130   5.279  17.221  0.00  0.00    +0.000 A 
ATOM     13  C   UNL     1       5.082   6.171  16.142  0.00  0.00    +0.000 A 
ATOM     14  C   UNL     1       5.482   5.765  14.864  0.00  0.00    +0.000 A 
BRANCH   9  16
ATOM     15  N   UNL     1       6.640   3.688  12.284  0.00  0.00    +0.000 NA
ATOM     16  C   UNL     1       6.312   4.028  13.345  0.00  0.00    +0.000 C 
ENDBRANCH   9  16
ENDBRANCH   1  12
BRANCH   6  17
ATOM     17  O   UNL     1       1.134   6.753  21.333  0.00  0.00    +0.000 OA
BRANCH  17  18
ATOM     18  C   UNL     1       1.060   8.051  20.881  0.00  0.00    +0.000 A 
ATOM     19  C   UNL     1       1.565   8.462  19.651  0.00  0.00    +0.000 A 
ATOM     20  C   UNL     1       1.473   9.801  19.268  0.00  0.00    +0.000 A 
ATOM     21  C   UNL     1       0.888  10.783  20.099  0.00  0.00    +0.000 A 
ATOM     22  C   UNL     1       0.385  10.333  21.344  0.00  0.00    +0.000 A 
ATOM     23 CL   UNL     1      -0.462  11.359  22.458  0.00  0.00    +0.000 Cl
ATOM     24  C   UNL     1       0.497   8.990  21.738  0.00  0.00    +0.000 A 
BRANCH  21  25
ATOM     25  C   UNL     1       0.871  12.194  19.618  0.00  0.00    +0.000 A 
ATOM     26  C   UNL     1       2.027  13.002  19.692  0.00  0.00    +0.000 A 
ATOM     27  C   UNL     1       2.009  14.354  19.325  0.00  0.00    +0.000 A 
ATOM     28  C   UNL     1       0.838  14.929  18.836  0.00  0.00    +0.000 A 
ATOM     29  C   UNL     1      -0.315  14.151  18.735  0.00  0.00    +0.000 A 
ATOM     30  C   UNL     1      -0.300  12.812  19.145  0.00  0.00    +0.000 A 
BRANCH  28  31
ATOM     31  C   UNL     1       0.813  16.311  18.456  0.00  0.00    +0.000 C 
ATOM     32  N   UNL     1       0.787  17.425  18.140  0.00  0.00    +0.000 NA
ENDBRANCH  28  31
ENDBRANCH  21  25
ENDBRANCH  17  18
ENDBRANCH   6  17
TORSDOF 6
ENDMDL
MODEL 9
REMARK VINA RESULT:      -7.5      4.505     11.310
REMARK  Name = 
REMARK  6 active torsions:
REMARK  status: ('A' for Active; 'I' for Inactive)
REMARK    1  A    between atoms: C_2  and  C_3
REMARK    2  A    between atoms: C_6  and  N_7
REMARK    3  A    between atoms: C_12  and  O_13
REMARK    4  A    between atoms: O_13  and  C_14
REMARK    5  A    between atoms: C_17  and  C_18
REMARK    6  A    between atoms: C_21  and  C_22
REMARK                            x       y       z     vdW  Elec       q    Type
REMARK                         _______ _______ _______ _____ _____    ______ ____
ROOT
ATOM      1  N   UNL     1      -2.413  13.417  20.444  0.00  0.00    +0.000 N 
ATOM      2  C   UNL     1      -2.045  12.381  19.582  0.00  0.00    +0.000 A 
ATOM      3  N   UNL     1      -2.980  11.688  18.912  0.00  0.00    +0.000 NA
ATOM      4  C   UNL     1      -2.560  10.726  18.072  0.00  0.00    +0.000 A 
ATOM      5  C   UNL     1      -1.239  10.435  17.865  0.00  0.00    +0.000 A 
ATOM      6  C   UNL     1      -0.362  11.213  18.578  0.00  0.00    +0.000 A 
ATOM      7  N   UNL     1      -0.735  12.166  19.455  0.00  0.00    +0.000 NA
ATOM      8  H   UNL     1      -1.569  13.715  20.919  0.00  0.00    +0.000 HD
ENDROOT
BRANCH   1  12
ATOM      9  C   UNL     1      -5.789  13.338  22.965  0.00  0.00    +0.000 A 
ATOM     10  C   UNL     1      -5.873  13.968  21.720  0.00  0.00    +0.000 A 
ATOM     11  C   UNL     1      -4.756  14.007  20.886  0.00  0.00    +0.000 A 
ATOM     12  C   UNL     1      -3.542  13.431  21.281  0.00  0.00    +0.000 A 
ATOM     13  C   UNL     1      -3.476  12.784  22.522  0.00  0.00    +0.000 A 
ATOM     14  C   UNL     1      -4.591  12.749  23.367  0.00  0.00    +0.000 A 
BRANCH   9  16
ATOM     15  N   UNL     1      -7.869  13.272  24.513  0.00  0.00    +0.000 NA
ATOM     16  C   UNL     1      -6.938  13.297  23.818  0.00  0.00    +0.000 C 
ENDBRANCH   9  16
ENDBRANCH   1  12
BRANCH   6  17
ATOM     17  O   UNL     1       0.992  10.988  18.364  0.00  0.00    +0.000 OA
BRANCH  17  18
ATOM     18  C   UNL     1       1.464   9.720  18.619  0.00  0.00    +0.000 A 
ATOM     19  C   UNL     1       1.118   8.988  19.750  0.00  0.00    +0.000 A 
ATOM     20  C   UNL     1       1.654   7.716  19.953  0.00  0.00    +0.000 A 
ATOM     21  C   UNL     1       2.564   7.128  19.045  0.00  0.00    +0.000 A 
ATOM     22  C   UNL     1       2.898   7.899  17.905  0.00  0.00    +0.000 A 
ATOM     23 CL   UNL     1       3.911   7.317  16.623  0.00  0.00    +0.000 Cl
ATOM     24  C   UNL     1       2.375   9.188  17.712  0.00  0.00    +0.000 A 
BRANCH  21  25
ATOM     25  C   UNL     1       3.111   5.780  19.369  0.00  0.00    +0.000 A 
ATOM     26  C   UNL     1       2.394   4.882  20.188  0.00  0.00    +0.000 A 
ATOM     27  C   UNL     1       2.928   3.645  20.574  0.00  0.00    +0.000 A 
ATOM     28  C   UNL     1       4.186   3.255  20.117  0.00  0.00    +0.000 A 
ATOM     29  C   UNL     1       4.910   4.115  19.293  0.00  0.00    +0.000 A 
ATOM     30  C   UNL     1       4.388   5.367  18.948  0.00  0.00    +0.000 A 
BRANCH  28  31
ATOM     31  C   UNL     1       4.738   1.990  20.506  0.00  0.00    +0.000 C 
ATOM     32  N   UNL     1       5.190   0.973  20.827  0.00  0.00    +0.000 NA
ENDBRANCH  28  31
ENDBRANCH  21  25
ENDBRANCH  17  18
ENDBRANCH   6  17
TORSDOF 6
ENDMDL
