MODEL 1
REMARK VINA RESULT:      -7.4      0.000      0.000
REMARK  Name = 
REMARK  11 active torsions:
REMARK  status: ('A' for Active; 'I' for Inactive)
REMARK    1  A    between atoms: C_2  and  C_3
REMARK    2  A    between atoms: C_3  and  C_4
REMARK    3  A    between atoms: C_4  and  C_5
REMARK    4  A    between atoms: C_5  and  C_6
REMARK    5  A    between atoms: C_7  and  C_8
REMARK    6  A    between atoms: C_9  and  C_10
REMARK    7  A    between atoms: N_15  and  C1*_16
REMARK    8  A    between atoms: C4*_18  and  C5*_19
REMARK    9  A    between atoms: C5*_19  and  O5*_20
REMARK   10  A    between atoms: C3*_21  and  O3*_22
REMARK   11  A    between atoms: C2*_23  and  O2*_24
REMARK                            x       y       z     vdW  Elec       q    Type
REMARK                         _______ _______ _______ _____ _____    ______ ____
ROOT
ATOM      1  C   UNL     1       3.273   4.646  19.855  0.00  0.00    +0.000 A 
ATOM      2  C   UNL     1       2.819   3.383  20.189  0.00  0.00    +0.000 A 
ATOM      3  N   UNL     1       3.731   2.433  19.739  0.00  0.00    +0.000 NA
ATOM      4  C   UNL     1       4.698   3.119  19.161  0.00  0.00    +0.000 A 
ATOM      5  N   UNL     1       4.482   4.466  19.237  0.00  0.00    +0.000 N 
ENDROOT
BRANCH   2   6
ATOM      6  C   UNL     1       1.572   3.073  20.904  0.00  0.00    +0.000 C 
ATOM      7  N   UNL     1       0.424   3.143  20.171  0.00  0.00    +0.000 N 
ATOM      8  O   UNL     1       1.516   2.755  22.089  0.00  0.00    +0.000 OA
ATOM      9  H   UNL     1       0.430   3.409  19.196  0.00  0.00    +0.000 HD
ATOM     10  H   UNL     1      -0.440   2.926  20.643  0.00  0.00    +0.000 HD
ENDBRANCH   2   6
BRANCH   5  11
ATOM     11  C1* UNL     1       5.366   5.533  18.807  0.00  0.00    +0.000 C 
ATOM     12  O4* UNL     1       5.096   5.874  17.435  0.00  0.00    +0.000 OA
ATOM     13  C4* UNL     1       6.356   6.058  16.743  0.00  0.00    +0.000 C 
ATOM     14  C3* UNL     1       7.469   5.976  17.791  0.00  0.00    +0.000 C 
ATOM     15  C2* UNL     1       6.846   5.159  18.913  0.00  0.00    +0.000 C 
BRANCH  14  16
ATOM     16  O3* UNL     1       7.822   7.278  18.287  0.00  0.00    +0.000 OA
ATOM     17  H3* UNL     1       8.782   7.413  18.215  0.00  0.00    +0.000 HD
ENDBRANCH  14  16
BRANCH  15  18
ATOM     18  O2* UNL     1       7.411   5.457  20.189  0.00  0.00    +0.000 OA
ATOM     19  H2* UNL     1       7.029   6.297  20.504  0.00  0.00    +0.000 HD
ENDBRANCH  15  18
BRANCH  13  20
ATOM     20  C5* UNL     1       6.461   4.971  15.671  0.00  0.00    +0.000 C 
BRANCH  20  21
ATOM     21  O5* UNL     1       7.471   5.303  14.720  0.00  0.00    +0.000 OA
ATOM     22  H5* UNL     1       8.158   5.810  15.191  0.00  0.00    +0.000 HD
ENDBRANCH  20  21
ENDBRANCH  13  20
ENDBRANCH   5  11
BRANCH   1  24
ATOM     23  C   UNL     1       2.121   7.077  20.220  0.00  0.00    +0.000 C 
ATOM     24  C   UNL     1       2.664   5.900  20.073  0.00  0.00    +0.000 C 
BRANCH  23  25
ATOM     25  C   UNL     1       1.490   8.449  20.390  0.00  0.00    +0.000 C 
BRANCH  25  26
ATOM     26  C   UNL     1       0.385   8.387  21.448  0.00  0.00    +0.000 C 
BRANCH  26  27
ATOM     27  C   UNL     1       0.681   9.314  22.626  0.00  0.00    +0.000 C 
BRANCH  27  29
ATOM     28  N   UNL     1      -1.396  10.836  23.205  0.00  0.00    +0.000 NA
ATOM     29  C   UNL     1      -0.489  10.170  22.947  0.00  0.00    +0.000 C 
ENDBRANCH  27  29
ENDBRANCH  26  27
ENDBRANCH  25  26
ENDBRANCH  23  25
ENDBRANCH   1  24
TORSDOF 11
ENDMDL
MODEL 2
REMARK VINA RESULT:      -7.1      1.355      1.491
REMARK  Name = 
REMARK  11 active torsions:
REMARK  status: ('A' for Active; 'I' for Inactive)
REMARK    1  A    between atoms: C_2  and  C_3
REMARK    2  A    between atoms: C_3  and  C_4
REMARK    3  A    between atoms: C_4  and  C_5
REMARK    4  A    between atoms: C_5  and  C_6
REMARK    5  A    between atoms: C_7  and  C_8
REMARK    6  A    between atoms: C_9  and  C_10
REMARK    7  A    between atoms: N_15  and  C1*_16
REMARK    8  A    between atoms: C4*_18  and  C5*_19
REMARK    9  A    between atoms: C5*_19  and  O5*_20
REMARK   10  A    between atoms: C3*_21  and  O3*_22
REMARK   11  A    between atoms: C2*_23  and  O2*_24
REMARK                            x       y       z     vdW  Elec       q    Type
REMARK                         _______ _______ _______ _____ _____    ______ ____
ROOT
ATOM      1  C   UNL     1       3.395   4.850  19.252  0.00  0.00    +0.000 A 
ATOM      2  C   UNL     1       2.940   3.749  19.952  0.00  0.00    +0.000 A 
ATOM      3  N   UNL     1       3.740   2.650  19.649  0.00  0.00    +0.000 NA
ATOM      4  C   UNL     1       4.641   3.095  18.796  0.00  0.00    +0.000 A 
ATOM      5  N   UNL     1       4.495   4.431  18.551  0.00  0.00    +0.000 N 
ENDROOT
BRANCH   2   6
ATOM      6  C   UNL     1       1.797   3.721  20.876  0.00  0.00    +0.000 C 
ATOM      7  N   UNL     1       2.049   3.244  22.129  0.00  0.00    +0.000 N 
ATOM      8  O   UNL     1       0.666   4.101  20.588  0.00  0.00    +0.000 OA
ATOM      9  H   UNL     1       2.964   2.914  22.401  0.00  0.00    +0.000 HD
ATOM     10  H   UNL     1       1.278   3.224  22.779  0.00  0.00    +0.000 HD
ENDBRANCH   2   6
BRANCH   5  11
ATOM     11  C1* UNL     1       5.352   5.288  17.753  0.00  0.00    +0.000 C 
ATOM     12  O4* UNL     1       4.725   5.572  16.489  0.00  0.00    +0.000 OA
ATOM     13  C4* UNL     1       5.722   5.476  15.442  0.00  0.00    +0.000 C 
ATOM     14  C3* UNL     1       7.079   5.271  16.120  0.00  0.00    +0.000 C 
ATOM     15  C2* UNL     1       6.718   4.662  17.467  0.00  0.00    +0.000 C 
BRANCH  14  16
ATOM     16  O3* UNL     1       7.759   6.519  16.326  0.00  0.00    +0.000 OA
ATOM     17  H3* UNL     1       7.206   7.117  16.857  0.00  0.00    +0.000 HD
ENDBRANCH  14  16
BRANCH  15  18
ATOM     18  O2* UNL     1       7.688   4.944  18.475  0.00  0.00    +0.000 OA
ATOM     19  H2* UNL     1       7.923   4.107  18.917  0.00  0.00    +0.000 HD
ENDBRANCH  15  18
BRANCH  13  20
ATOM     20  C5* UNL     1       5.327   4.313  14.528  0.00  0.00    +0.000 C 
BRANCH  20  21
ATOM     21  O5* UNL     1       6.479   3.567  14.143  0.00  0.00    +0.000 OA
ATOM     22  H5* UNL     1       6.718   3.846  13.241  0.00  0.00    +0.000 HD
ENDBRANCH  20  21
ENDBRANCH  13  20
ENDBRANCH   5  11
BRANCH   1  24
ATOM     23  C   UNL     1       2.370   7.361  19.130  0.00  0.00    +0.000 C 
ATOM     24  C   UNL     1       2.875   6.162  19.217  0.00  0.00    +0.000 C 
BRANCH  23  25
ATOM     25  C   UNL     1       1.781   8.759  19.028  0.00  0.00    +0.000 C 
BRANCH  25  26
ATOM     26  C   UNL     1       0.772   8.984  20.158  0.00  0.00    +0.000 C 
BRANCH  26  27
ATOM     27  C   UNL     1       1.323   8.517  21.505  0.00  0.00    +0.000 C 
BRANCH  27  29
ATOM     28  N   UNL     1       0.206   9.822  23.509  0.00  0.00    +0.000 NA
ATOM     29  C   UNL     1       0.695   9.256  22.630  0.00  0.00    +0.000 C 
ENDBRANCH  27  29
ENDBRANCH  26  27
ENDBRANCH  25  26
ENDBRANCH  23  25
ENDBRANCH   1  24
TORSDOF 11
ENDMDL
MODEL 3
REMARK VINA RESULT:      -7.1      1.557      1.800
REMARK  Name = 
REMARK  11 active torsions:
REMARK  status: ('A' for Active; 'I' for Inactive)
REMARK    1  A    between atoms: C_2  and  C_3
REMARK    2  A    between atoms: C_3  and  C_4
REMARK    3  A    between atoms: C_4  and  C_5
REMARK    4  A    between atoms: C_5  and  C_6
REMARK    5  A    between atoms: C_7  and  C_8
REMARK    6  A    between atoms: C_9  and  C_10
REMARK    7  A    between atoms: N_15  and  C1*_16
REMARK    8  A    between atoms: C4*_18  and  C5*_19
REMARK    9  A    between atoms: C5*_19  and  O5*_20
REMARK   10  A    between atoms: C3*_21  and  O3*_22
REMARK   11  A    between atoms: C2*_23  and  O2*_24
REMARK                            x       y       z     vdW  Elec       q    Type
REMARK                         _______ _______ _______ _____ _____    ______ ____
ROOT
ATOM      1  C   UNL     1       3.240   4.691  19.876  0.00  0.00    +0.000 A 
ATOM      2  C   UNL     1       2.813   3.426  20.230  0.00  0.00    +0.000 A 
ATOM      3  N   UNL     1       3.745   2.487  19.796  0.00  0.00    +0.000 NA
ATOM      4  C   UNL     1       4.696   3.184  19.205  0.00  0.00    +0.000 A 
ATOM      5  N   UNL     1       4.452   4.527  19.259  0.00  0.00    +0.000 N 
ENDROOT
BRANCH   2   6
ATOM      6  C   UNL     1       1.574   3.101  20.952  0.00  0.00    +0.000 C 
ATOM      7  N   UNL     1       0.423   3.143  20.220  0.00  0.00    +0.000 N 
ATOM      8  O   UNL     1       1.526   2.796  22.141  0.00  0.00    +0.000 OA
ATOM      9  H   UNL     1       0.421   3.398  19.243  0.00  0.00    +0.000 HD
ATOM     10  H   UNL     1      -0.436   2.915  20.697  0.00  0.00    +0.000 HD
ENDBRANCH   2   6
BRANCH   5  11
ATOM     11  C1* UNL     1       5.313   5.606  18.811  0.00  0.00    +0.000 C 
ATOM     12  O4* UNL     1       4.977   5.975  17.461  0.00  0.00    +0.000 OA
ATOM     13  C4* UNL     1       6.202   6.178  16.713  0.00  0.00    +0.000 C 
ATOM     14  C3* UNL     1       7.364   6.075  17.705  0.00  0.00    +0.000 C 
ATOM     15  C2* UNL     1       6.797   5.232  18.837  0.00  0.00    +0.000 C 
BRANCH  14  16
ATOM     16  O3* UNL     1       7.739   7.366  18.211  0.00  0.00    +0.000 OA
ATOM     17  H3* UNL     1       8.625   7.324  18.610  0.00  0.00    +0.000 HD
ENDBRANCH  14  16
BRANCH  15  18
ATOM     18  O2* UNL     1       7.422   5.503  20.090  0.00  0.00    +0.000 OA
ATOM     19  H2* UNL     1       7.684   4.654  20.493  0.00  0.00    +0.000 HD
ENDBRANCH  15  18
BRANCH  13  20
ATOM     20  C5* UNL     1       6.257   5.115  15.614  0.00  0.00    +0.000 C 
BRANCH  20  21
ATOM     21  O5* UNL     1       7.452   5.250  14.848  0.00  0.00    +0.000 OA
ATOM     22  H5* UNL     1       7.739   4.353  14.597  0.00  0.00    +0.000 HD
ENDBRANCH  20  21
ENDBRANCH  13  20
ENDBRANCH   5  11
BRANCH   1  24
ATOM     23  C   UNL     1       2.064   7.102  20.293  0.00  0.00    +0.000 C 
ATOM     24  C   UNL     1       2.605   5.936  20.073  0.00  0.00    +0.000 C 
BRANCH  23  25
ATOM     25  C   UNL     1       1.434   8.461  20.551  0.00  0.00    +0.000 C 
BRANCH  25  26
ATOM     26  C   UNL     1       1.158   9.169  19.221  0.00  0.00    +0.000 C 
BRANCH  26  27
ATOM     27  C   UNL     1       0.003  10.162  19.341  0.00  0.00    +0.000 C 
BRANCH  27  29
ATOM     28  N   UNL     1      -1.590  10.051  17.240  0.00  0.00    +0.000 NA
ATOM     29  C   UNL     1      -0.890  10.096  18.156  0.00  0.00    +0.000 C 
ENDBRANCH  27  29
ENDBRANCH  26  27
ENDBRANCH  25  26
ENDBRANCH  23  25
ENDBRANCH   1  24
TORSDOF 11
ENDMDL
MODEL 4
REMARK VINA RESULT:      -7.1      1.188      1.242
REMARK  Name = 
REMARK  11 active torsions:
REMARK  status: ('A' for Active; 'I' for Inactive)
REMARK    1  A    between atoms: C_2  and  C_3
REMARK    2  A    between atoms: C_3  and  C_4
REMARK    3  A    between atoms: C_4  and  C_5
REMARK    4  A    between atoms: C_5  and  C_6
REMARK    5  A    between atoms: C_7  and  C_8
REMARK    6  A    between atoms: C_9  and  C_10
REMARK    7  A    between atoms: N_15  and  C1*_16
REMARK    8  A    between atoms: C4*_18  and  C5*_19
REMARK    9  A    between atoms: C5*_19  and  O5*_20
REMARK   10  A    between atoms: C3*_21  and  O3*_22
REMARK   11  A    between atoms: C2*_23  and  O2*_24
REMARK                            x       y       z     vdW  Elec       q    Type
REMARK                         _______ _______ _______ _____ _____    ______ ____
ROOT
ATOM      1  C   UNL     1       3.351   4.520  19.533  0.00  0.00    +0.000 A 
ATOM      2  C   UNL     1       2.959   3.335  20.127  0.00  0.00    +0.000 A 
ATOM      3  N   UNL     1       3.787   2.305  19.688  0.00  0.00    +0.000 NA
ATOM      4  C   UNL     1       4.644   2.872  18.860  0.00  0.00    +0.000 A 
ATOM      5  N   UNL     1       4.442   4.219  18.762  0.00  0.00    +0.000 N 
ENDROOT
BRANCH   2   6
ATOM      6  C   UNL     1       1.848   3.167  21.075  0.00  0.00    +0.000 C 
ATOM      7  N   UNL     1       0.596   3.138  20.534  0.00  0.00    +0.000 N 
ATOM      8  O   UNL     1       1.987   3.049  22.290  0.00  0.00    +0.000 OA
ATOM      9  H   UNL     1       0.441   3.241  19.541  0.00  0.00    +0.000 HD
ATOM     10  H   UNL     1      -0.179   3.016  21.169  0.00  0.00    +0.000 HD
ENDBRANCH   2   6
BRANCH   5  11
ATOM     11  C1* UNL     1       5.242   5.187  18.035  0.00  0.00    +0.000 C 
ATOM     12  O4* UNL     1       4.654   5.442  16.746  0.00  0.00    +0.000 OA
ATOM     13  C4* UNL     1       5.708   5.486  15.752  0.00  0.00    +0.000 C 
ATOM     14  C3* UNL     1       7.043   5.405  16.498  0.00  0.00    +0.000 C 
ATOM     15  C2* UNL     1       6.681   4.719  17.807  0.00  0.00    +0.000 C 
BRANCH  14  16
ATOM     16  O3* UNL     1       7.573   6.711  16.773  0.00  0.00    +0.000 OA
ATOM     17  H3* UNL     1       8.499   6.643  17.058  0.00  0.00    +0.000 HD
ENDBRANCH  14  16
BRANCH  15  18
ATOM     18  O2* UNL     1       7.561   5.071  18.873  0.00  0.00    +0.000 OA
ATOM     19  H2* UNL     1       7.596   6.044  18.933  0.00  0.00    +0.000 HD
ENDBRANCH  15  18
BRANCH  13  20
ATOM     20  C5* UNL     1       5.488   4.317  14.789  0.00  0.00    +0.000 C 
BRANCH  20  21
ATOM     21  O5* UNL     1       6.566   4.226  13.860  0.00  0.00    +0.000 OA
ATOM     22  H5* UNL     1       7.103   3.453  14.113  0.00  0.00    +0.000 HD
ENDBRANCH  20  21
ENDBRANCH  13  20
ENDBRANCH   5  11
BRANCH   1  24
ATOM     23  C   UNL     1       2.274   6.996  19.820  0.00  0.00    +0.000 C 
ATOM     24  C   UNL     1       2.784   5.807  19.651  0.00  0.00    +0.000 C 
BRANCH  23  25
ATOM     25  C   UNL     1       1.679   8.380  20.017  0.00  0.00    +0.000 C 
BRANCH  25  26
ATOM     26  C   UNL     1       0.806   8.398  21.275  0.00  0.00    +0.000 C 
BRANCH  26  27
ATOM     27  C   UNL     1      -0.157   9.585  21.275  0.00  0.00    +0.000 C 
BRANCH  27  29
ATOM     28  N   UNL     1       1.140  11.883  21.221  0.00  0.00    +0.000 NA
ATOM     29  C   UNL     1       0.577  10.875  21.243  0.00  0.00    +0.000 C 
ENDBRANCH  27  29
ENDBRANCH  26  27
ENDBRANCH  25  26
ENDBRANCH  23  25
ENDBRANCH   1  24
TORSDOF 11
ENDMDL
MODEL 5
REMARK VINA RESULT:      -7.0      1.961      2.221
REMARK  Name = 
REMARK  11 active torsions:
REMARK  status: ('A' for Active; 'I' for Inactive)
REMARK    1  A    between atoms: C_2  and  C_3
REMARK    2  A    between atoms: C_3  and  C_4
REMARK    3  A    between atoms: C_4  and  C_5
REMARK    4  A    between atoms: C_5  and  C_6
REMARK    5  A    between atoms: C_7  and  C_8
REMARK    6  A    between atoms: C_9  and  C_10
REMARK    7  A    between atoms: N_15  and  C1*_16
REMARK    8  A    between atoms: C4*_18  and  C5*_19
REMARK    9  A    between atoms: C5*_19  and  O5*_20
REMARK   10  A    between atoms: C3*_21  and  O3*_22
REMARK   11  A    between atoms: C2*_23  and  O2*_24
REMARK                            x       y       z     vdW  Elec       q    Type
REMARK                         _______ _______ _______ _____ _____    ______ ____
ROOT
ATOM      1  C   UNL     1       3.327   4.579  19.427  0.00  0.00    +0.000 A 
ATOM      2  C   UNL     1       2.903   3.401  20.014  0.00  0.00    +0.000 A 
ATOM      3  N   UNL     1       3.681   2.347  19.543  0.00  0.00    +0.000 NA
ATOM      4  C   UNL     1       4.542   2.893  18.705  0.00  0.00    +0.000 A 
ATOM      5  N   UNL     1       4.389   4.248  18.629  0.00  0.00    +0.000 N 
ENDROOT
BRANCH   2   6
ATOM      6  C   UNL     1       1.806   3.262  20.983  0.00  0.00    +0.000 C 
ATOM      7  N   UNL     1       0.544   3.244  20.465  0.00  0.00    +0.000 N 
ATOM      8  O   UNL     1       1.965   3.158  22.197  0.00  0.00    +0.000 OA
ATOM      9  H   UNL     1       0.374   3.336  19.473  0.00  0.00    +0.000 HD
ATOM     10  H   UNL     1      -0.220   3.141  21.115  0.00  0.00    +0.000 HD
ENDBRANCH   2   6
BRANCH   5  11
ATOM     11  C1* UNL     1       5.210   5.195  17.897  0.00  0.00    +0.000 C 
ATOM     12  O4* UNL     1       4.603   5.493  16.627  0.00  0.00    +0.000 OA
ATOM     13  C4* UNL     1       5.634   5.512  15.609  0.00  0.00    +0.000 C 
ATOM     14  C3* UNL     1       6.982   5.366  16.322  0.00  0.00    +0.000 C 
ATOM     15  C2* UNL     1       6.623   4.675  17.629  0.00  0.00    +0.000 C 
BRANCH  14  16
ATOM     16  O3* UNL     1       7.569   6.647  16.604  0.00  0.00    +0.000 OA
ATOM     17  H3* UNL     1       8.380   6.534  17.128  0.00  0.00    +0.000 HD
ENDBRANCH  14  16
BRANCH  15  18
ATOM     18  O2* UNL     1       7.541   4.975  18.679  0.00  0.00    +0.000 OA
ATOM     19  H2* UNL     1       7.642   4.180  19.235  0.00  0.00    +0.000 HD
ENDBRANCH  15  18
BRANCH  13  20
ATOM     20  C5* UNL     1       5.347   4.367  14.634  0.00  0.00    +0.000 C 
BRANCH  20  21
ATOM     21  O5* UNL     1       6.552   3.685  14.294  0.00  0.00    +0.000 OA
ATOM     22  H5* UNL     1       7.269   4.345  14.294  0.00  0.00    +0.000 HD
ENDBRANCH  20  21
ENDBRANCH  13  20
ENDBRANCH   5  11
BRANCH   1  24
ATOM     23  C   UNL     1       2.347   7.101  19.650  0.00  0.00    +0.000 C 
ATOM     24  C   UNL     1       2.812   5.885  19.574  0.00  0.00    +0.000 C 
BRANCH  23  25
ATOM     25  C   UNL     1       1.806   8.519  19.738  0.00  0.00    +0.000 C 
BRANCH  25  26
ATOM     26  C   UNL     1       1.289   8.966  18.368  0.00  0.00    +0.000 C 
BRANCH  26  27
ATOM     27  C   UNL     1       0.376  10.186  18.482  0.00  0.00    +0.000 C 
BRANCH  27  29
ATOM     28  N   UNL     1      -1.852   9.858  17.105  0.00  0.00    +0.000 NA
ATOM     29  C   UNL     1      -0.877   9.996  17.708  0.00  0.00    +0.000 C 
ENDBRANCH  27  29
ENDBRANCH  26  27
ENDBRANCH  25  26
ENDBRANCH  23  25
ENDBRANCH   1  24
TORSDOF 11
ENDMDL
MODEL 6
REMARK VINA RESULT:      -7.0      2.665      5.702
REMARK  Name = 
REMARK  11 active torsions:
REMARK  status: ('A' for Active; 'I' for Inactive)
REMARK    1  A    between atoms: C_2  and  C_3
REMARK    2  A    between atoms: C_3  and  C_4
REMARK    3  A    between atoms: C_4  and  C_5
REMARK    4  A    between atoms: C_5  and  C_6
REMARK    5  A    between atoms: C_7  and  C_8
REMARK    6  A    between atoms: C_9  and  C_10
REMARK    7  A    between atoms: N_15  and  C1*_16
REMARK    8  A    between atoms: C4*_18  and  C5*_19
REMARK    9  A    between atoms: C5*_19  and  O5*_20
REMARK   10  A    between atoms: C3*_21  and  O3*_22
REMARK   11  A    between atoms: C2*_23  and  O2*_24
REMARK                            x       y       z     vdW  Elec       q    Type
REMARK                         _______ _______ _______ _____ _____    ______ ____
ROOT
ATOM      1  C   UNL     1       4.600   5.734  18.097  0.00  0.00    +0.000 A 
ATOM      2  C   UNL     1       5.975   5.662  17.979  0.00  0.00    +0.000 A 
ATOM      3  N   UNL     1       6.390   4.356  18.228  0.00  0.00    +0.000 NA
ATOM      4  C   UNL     1       5.286   3.679  18.481  0.00  0.00    +0.000 A 
ATOM      5  N   UNL     1       4.173   4.463  18.379  0.00  0.00    +0.000 N 
ENDROOT
BRANCH   2   6
ATOM      6  C   UNL     1       6.875   6.775  17.645  0.00  0.00    +0.000 C 
ATOM      7  N   UNL     1       7.955   6.941  18.463  0.00  0.00    +0.000 N 
ATOM      8  O   UNL     1       6.713   7.534  16.693  0.00  0.00    +0.000 OA
ATOM      9  H   UNL     1       8.117   6.343  19.261  0.00  0.00    +0.000 HD
ATOM     10  H   UNL     1       8.588   7.696  18.245  0.00  0.00    +0.000 HD
ENDBRANCH   2   6
BRANCH   5  11
ATOM     11  C1* UNL     1       2.785   4.054  18.486  0.00  0.00    +0.000 C 
ATOM     12  O4* UNL     1       2.168   4.698  19.616  0.00  0.00    +0.000 OA
ATOM     13  C4* UNL     1       1.349   3.729  20.317  0.00  0.00    +0.000 C 
ATOM     14  C3* UNL     1       1.340   2.448  19.478  0.00  0.00    +0.000 C 
ATOM     15  C2* UNL     1       2.622   2.543  18.663  0.00  0.00    +0.000 C 
BRANCH  14  16
ATOM     16  O3* UNL     1       0.211   2.407  18.591  0.00  0.00    +0.000 OA
ATOM     17  H3* UNL     1       0.355   3.007  17.840  0.00  0.00    +0.000 HD
ENDBRANCH  14  16
BRANCH  15  18
ATOM     18  O2* UNL     1       2.539   1.838  17.426  0.00  0.00    +0.000 OA
ATOM     19  H2* UNL     1       1.673   2.030  17.021  0.00  0.00    +0.000 HD
ENDBRANCH  15  18
BRANCH  13  20
ATOM     20  C5* UNL     1       1.953   3.530  21.709  0.00  0.00    +0.000 C 
BRANCH  20  21
ATOM     21  O5* UNL     1       1.647   2.228  22.205  0.00  0.00    +0.000 OA
ATOM     22  H5* UNL     1       1.482   1.655  21.434  0.00  0.00    +0.000 HD
ENDBRANCH  20  21
ENDBRANCH  13  20
ENDBRANCH   5  11
BRANCH   1  24
ATOM     23  C   UNL     1       2.923   7.852  17.831  0.00  0.00    +0.000 C 
ATOM     24  C   UNL     1       3.751   6.854  17.970  0.00  0.00    +0.000 C 
BRANCH  23  25
ATOM     25  C   UNL     1       1.957   9.015  17.669  0.00  0.00    +0.000 C 
BRANCH  25  26
ATOM     26  C   UNL     1       1.242   9.289  18.994  0.00  0.00    +0.000 C 
BRANCH  26  27
ATOM     27  C   UNL     1       0.311  10.496  18.893  0.00  0.00    +0.000 C 
BRANCH  27  29
ATOM     28  N   UNL     1      -1.731  10.011  17.293  0.00  0.00    +0.000 NA
ATOM     29  C   UNL     1      -0.837  10.218  17.993  0.00  0.00    +0.000 C 
ENDBRANCH  27  29
ENDBRANCH  26  27
ENDBRANCH  25  26
ENDBRANCH  23  25
ENDBRANCH   1  24
TORSDOF 11
ENDMDL
MODEL 7
REMARK VINA RESULT:      -6.9      1.629      2.059
REMARK  Name = 
REMARK  11 active torsions:
REMARK  status: ('A' for Active; 'I' for Inactive)
REMARK    1  A    between atoms: C_2  and  C_3
REMARK    2  A    between atoms: C_3  and  C_4
REMARK    3  A    between atoms: C_4  and  C_5
REMARK    4  A    between atoms: C_5  and  C_6
REMARK    5  A    between atoms: C_7  and  C_8
REMARK    6  A    between atoms: C_9  and  C_10
REMARK    7  A    between atoms: N_15  and  C1*_16
REMARK    8  A    between atoms: C4*_18  and  C5*_19
REMARK    9  A    between atoms: C5*_19  and  O5*_20
REMARK   10  A    between atoms: C3*_21  and  O3*_22
REMARK   11  A    between atoms: C2*_23  and  O2*_24
REMARK                            x       y       z     vdW  Elec       q    Type
REMARK                         _______ _______ _______ _____ _____    ______ ____
ROOT
ATOM      1  C   UNL     1       3.245   4.760  19.871  0.00  0.00    +0.000 A 
ATOM      2  C   UNL     1       2.808   3.498  20.229  0.00  0.00    +0.000 A 
ATOM      3  N   UNL     1       3.743   2.553  19.815  0.00  0.00    +0.000 NA
ATOM      4  C   UNL     1       4.705   3.243  19.232  0.00  0.00    +0.000 A 
ATOM      5  N   UNL     1       4.466   4.587  19.273  0.00  0.00    +0.000 N 
ENDROOT
BRANCH   2   6
ATOM      6  C   UNL     1       1.558   3.183  20.936  0.00  0.00    +0.000 C 
ATOM      7  N   UNL     1       0.416   3.242  20.192  0.00  0.00    +0.000 N 
ATOM      8  O   UNL     1       1.494   2.872  22.122  0.00  0.00    +0.000 OA
ATOM      9  H   UNL     1       0.428   3.502  19.215  0.00  0.00    +0.000 HD
ATOM     10  H   UNL     1      -0.451   3.021  20.658  0.00  0.00    +0.000 HD
ENDBRANCH   2   6
BRANCH   5  11
ATOM     11  C1* UNL     1       5.337   5.659  18.829  0.00  0.00    +0.000 C 
ATOM     12  O4* UNL     1       4.970   6.073  17.501  0.00  0.00    +0.000 OA
ATOM     13  C4* UNL     1       6.176   6.271  16.722  0.00  0.00    +0.000 C 
ATOM     14  C3* UNL     1       7.364   6.116  17.676  0.00  0.00    +0.000 C 
ATOM     15  C2* UNL     1       6.812   5.254  18.802  0.00  0.00    +0.000 C 
BRANCH  14  16
ATOM     16  O3* UNL     1       7.782   7.384  18.206  0.00  0.00    +0.000 OA
ATOM     17  H3* UNL     1       7.397   7.521  19.088  0.00  0.00    +0.000 HD
ENDBRANCH  14  16
BRANCH  15  18
ATOM     18  O2* UNL     1       7.479   5.477  20.042  0.00  0.00    +0.000 OA
ATOM     19  H2* UNL     1       6.952   6.111  20.564  0.00  0.00    +0.000 HD
ENDBRANCH  15  18
BRANCH  13  20
ATOM     20  C5* UNL     1       6.176   5.237  15.593  0.00  0.00    +0.000 C 
BRANCH  20  21
ATOM     21  O5* UNL     1       7.489   4.717  15.393  0.00  0.00    +0.000 OA
ATOM     22  H5* UNL     1       7.393   3.791  15.104  0.00  0.00    +0.000 HD
ENDBRANCH  20  21
ENDBRANCH  13  20
ENDBRANCH   5  11
BRANCH   1  24
ATOM     23  C   UNL     1       2.066   7.174  20.261  0.00  0.00    +0.000 C 
ATOM     24  C   UNL     1       2.612   6.008  20.051  0.00  0.00    +0.000 C 
BRANCH  23  25
ATOM     25  C   UNL     1       1.430   8.532  20.508  0.00  0.00    +0.000 C 
BRANCH  25  26
ATOM     26  C   UNL     1       0.810   9.061  19.212  0.00  0.00    +0.000 C 
BRANCH  26  27
ATOM     27  C   UNL     1       1.877   9.360  18.159  0.00  0.00    +0.000 C 
BRANCH  27  29
ATOM     28  N   UNL     1       2.440  11.937  18.068  0.00  0.00    +0.000 NA
ATOM     29  C   UNL     1       2.197  10.809  18.111  0.00  0.00    +0.000 C 
ENDBRANCH  27  29
ENDBRANCH  26  27
ENDBRANCH  25  26
ENDBRANCH  23  25
ENDBRANCH   1  24
TORSDOF 11
ENDMDL
MODEL 8
REMARK VINA RESULT:      -6.9      1.465      1.522
REMARK  Name = 
REMARK  11 active torsions:
REMARK  status: ('A' for Active; 'I' for Inactive)
REMARK    1  A    between atoms: C_2  and  C_3
REMARK    2  A    between atoms: C_3  and  C_4
REMARK    3  A    between atoms: C_4  and  C_5
REMARK    4  A    between atoms: C_5  and  C_6
REMARK    5  A    between atoms: C_7  and  C_8
REMARK    6  A    between atoms: C_9  and  C_10
REMARK    7  A    between atoms: N_15  and  C1*_16
REMARK    8  A    between atoms: C4*_18  and  C5*_19
REMARK    9  A    between atoms: C5*_19  and  O5*_20
REMARK   10  A    between atoms: C3*_21  and  O3*_22
REMARK   11  A    between atoms: C2*_23  and  O2*_24
REMARK                            x       y       z     vdW  Elec       q    Type
REMARK                         _______ _______ _______ _____ _____    ______ ____
ROOT
ATOM      1  C   UNL     1       2.930   4.510  18.935  0.00  0.00    +0.000 A 
ATOM      2  C   UNL     1       2.339   3.260  18.951  0.00  0.00    +0.000 A 
ATOM      3  N   UNL     1       3.137   2.366  18.242  0.00  0.00    +0.000 NA
ATOM      4  C   UNL     1       4.170   3.071  17.824  0.00  0.00    +0.000 A 
ATOM      5  N   UNL     1       4.107   4.368  18.249  0.00  0.00    +0.000 N 
ENDROOT
BRANCH   2   6
ATOM      6  C   UNL     1       1.071   2.910  19.607  0.00  0.00    +0.000 C 
ATOM      7  N   UNL     1       1.033   3.062  20.962  0.00  0.00    +0.000 N 
ATOM      8  O   UNL     1       0.074   2.507  19.014  0.00  0.00    +0.000 OA
ATOM      9  H   UNL     1       1.836   3.383  21.485  0.00  0.00    +0.000 HD
ATOM     10  H   UNL     1       0.168   2.834  21.428  0.00  0.00    +0.000 HD
ENDBRANCH   2   6
BRANCH   5  11
ATOM     11  C1* UNL     1       5.102   5.410  18.076  0.00  0.00    +0.000 C 
ATOM     12  O4* UNL     1       5.147   5.823  16.698  0.00  0.00    +0.000 OA
ATOM     13  C4* UNL     1       6.533   5.977  16.302  0.00  0.00    +0.000 C 
ATOM     14  C3* UNL     1       7.390   5.796  17.558  0.00  0.00    +0.000 C 
ATOM     15  C2* UNL     1       6.509   4.960  18.475  0.00  0.00    +0.000 C 
BRANCH  14  16
ATOM     16  O3* UNL     1       7.676   7.055  18.186  0.00  0.00    +0.000 OA
ATOM     17  H3* UNL     1       8.103   7.655  17.552  0.00  0.00    +0.000 HD
ENDBRANCH  14  16
BRANCH  15  18
ATOM     18  O2* UNL     1       6.796   5.174  19.856  0.00  0.00    +0.000 OA
ATOM     19  H2* UNL     1       6.062   4.806  20.383  0.00  0.00    +0.000 HD
ENDBRANCH  15  18
BRANCH  13  20
ATOM     20  C5* UNL     1       6.826   4.934  15.220  0.00  0.00    +0.000 C 
BRANCH  20  21
ATOM     21  O5* UNL     1       7.796   5.429  14.300  0.00  0.00    +0.000 OA
ATOM     22  H5* UNL     1       8.324   6.102  14.767  0.00  0.00    +0.000 HD
ENDBRANCH  20  21
ENDBRANCH  13  20
ENDBRANCH   5  11
BRANCH   1  24
ATOM     23  C   UNL     1       2.010   6.811  20.042  0.00  0.00    +0.000 C 
ATOM     24  C   UNL     1       2.466   5.723  19.488  0.00  0.00    +0.000 C 
BRANCH  23  25
ATOM     25  C   UNL     1       1.478   8.080  20.689  0.00  0.00    +0.000 C 
BRANCH  25  26
ATOM     26  C   UNL     1       1.107   9.100  19.609  0.00  0.00    +0.000 C 
BRANCH  26  27
ATOM     27  C   UNL     1       0.005  10.046  20.084  0.00  0.00    +0.000 C 
BRANCH  27  29
ATOM     28  N   UNL     1       1.008  12.055  21.470  0.00  0.00    +0.000 NA
ATOM     29  C   UNL     1       0.564  11.178  20.865  0.00  0.00    +0.000 C 
ENDBRANCH  27  29
ENDBRANCH  26  27
ENDBRANCH  25  26
ENDBRANCH  23  25
ENDBRANCH   1  24
TORSDOF 11
ENDMDL
MODEL 9
REMARK VINA RESULT:      -6.9      2.374      5.598
REMARK  Name = 
REMARK  11 active torsions:
REMARK  status: ('A' for Active; 'I' for Inactive)
REMARK    1  A    between atoms: C_2  and  C_3
REMARK    2  A    between atoms: C_3  and  C_4
REMARK    3  A    between atoms: C_4  and  C_5
REMARK    4  A    between atoms: C_5  and  C_6
REMARK    5  A    between atoms: C_7  and  C_8
REMARK    6  A    between atoms: C_9  and  C_10
REMARK    7  A    between atoms: N_15  and  C1*_16
REMARK    8  A    between atoms: C4*_18  and  C5*_19
REMARK    9  A    between atoms: C5*_19  and  O5*_20
REMARK   10  A    between atoms: C3*_21  and  O3*_22
REMARK   11  A    between atoms: C2*_23  and  O2*_24
REMARK                            x       y       z     vdW  Elec       q    Type
REMARK                         _______ _______ _______ _____ _____    ______ ____
ROOT
ATOM      1  C   UNL     1       4.566   5.673  18.109  0.00  0.00    +0.000 A 
ATOM      2  C   UNL     1       5.943   5.594  18.004  0.00  0.00    +0.000 A 
ATOM      3  N   UNL     1       6.354   4.302  18.318  0.00  0.00    +0.000 NA
ATOM      4  C   UNL     1       5.247   3.639  18.596  0.00  0.00    +0.000 A 
ATOM      5  N   UNL     1       4.136   4.418  18.449  0.00  0.00    +0.000 N 
ENDROOT
BRANCH   2   6
ATOM      6  C   UNL     1       6.847   6.689  17.623  0.00  0.00    +0.000 C 
ATOM      7  N   UNL     1       7.911   6.905  18.449  0.00  0.00    +0.000 N 
ATOM      8  O   UNL     1       6.700   7.392  16.627  0.00  0.00    +0.000 OA
ATOM      9  H   UNL     1       8.060   6.353  19.282  0.00  0.00    +0.000 HD
ATOM     10  H   UNL     1       8.547   7.647  18.199  0.00  0.00    +0.000 HD
ENDBRANCH   2   6
BRANCH   5  11
ATOM     11  C1* UNL     1       2.746   4.017  18.566  0.00  0.00    +0.000 C 
ATOM     12  O4* UNL     1       2.197   4.502  19.804  0.00  0.00    +0.000 OA
ATOM     13  C4* UNL     1       1.392   3.455  20.401  0.00  0.00    +0.000 C 
ATOM     14  C3* UNL     1       1.318   2.305  19.392  0.00  0.00    +0.000 C 
ATOM     15  C2* UNL     1       2.562   2.498  18.536  0.00  0.00    +0.000 C 
BRANCH  14  16
ATOM     16  O3* UNL     1       0.148   2.406  18.565  0.00  0.00    +0.000 OA
ATOM     17  H3* UNL     1      -0.337   1.563  18.569  0.00  0.00    +0.000 HD
ENDBRANCH  14  16
BRANCH  15  18
ATOM     18  O2* UNL     1       2.407   1.977  17.218  0.00  0.00    +0.000 OA
ATOM     19  H2* UNL     1       2.323   1.006  17.280  0.00  0.00    +0.000 HD
ENDBRANCH  15  18
BRANCH  13  20
ATOM     20  C5* UNL     1       2.057   3.052  21.720  0.00  0.00    +0.000 C 
BRANCH  20  21
ATOM     21  O5* UNL     1       1.137   2.343  22.547  0.00  0.00    +0.000 OA
ATOM     22  H5* UNL     1       0.980   2.887  23.340  0.00  0.00    +0.000 HD
ENDBRANCH  20  21
ENDBRANCH  13  20
ENDBRANCH   5  11
BRANCH   1  24
ATOM     23  C   UNL     1       2.946   7.831  17.808  0.00  0.00    +0.000 C 
ATOM     24  C   UNL     1       3.720   6.787  17.922  0.00  0.00    +0.000 C 
BRANCH  23  25
ATOM     25  C   UNL     1       2.044   9.048  17.677  0.00  0.00    +0.000 C 
BRANCH  25  26
ATOM     26  C   UNL     1       1.292   9.283  18.989  0.00  0.00    +0.000 C 
BRANCH  26  27
ATOM     27  C   UNL     1       0.685  10.684  19.047  0.00  0.00    +0.000 C 
BRANCH  27  29
ATOM     28  N   UNL     1       0.864  11.702  21.475  0.00  0.00    +0.000 NA
ATOM     29  C   UNL     1       0.787  11.261  20.411  0.00  0.00    +0.000 C 
ENDBRANCH  27  29
ENDBRANCH  26  27
ENDBRANCH  25  26
ENDBRANCH  23  25
ENDBRANCH   1  24
TORSDOF 11
ENDMDL
