MODEL 1
REMARK VINA RESULT:      -9.0      0.000      0.000
REMARK  Name = 
REMARK  10 active torsions:
REMARK  status: ('A' for Active; 'I' for Inactive)
REMARK    1  A    between atoms: C_1  and  C_2
REMARK    2  A    between atoms: C_2  and  C_3
REMARK    3  A    between atoms: C_2  and  O_4
REMARK    4  A    between atoms: C_2  and  C_5
REMARK    5  A    between atoms: C_5  and  C_6
REMARK    6  A    between atoms: N_8  and  C_9
REMARK    7  A    between atoms: C_12  and  C_13
REMARK    8  A    between atoms: C_13  and  C_14
REMARK    9  A    between atoms: C_14  and  N_15
REMARK   10  A    between atoms: C_18  and  C_19
REMARK                            x       y       z     vdW  Elec       q    Type
REMARK                         _______ _______ _______ _____ _____    ______ ____
ROOT
ATOM      1  C   UNL     1       2.080   6.261  20.502  0.00  0.00    +0.000 C 
ENDROOT
BRANCH   1   5
ATOM      2  C   UNL     1       0.500   9.997  18.966  0.00  0.00    +0.000 C 
ATOM      3  C   UNL     1       1.675   9.344  18.237  0.00  0.00    +0.000 C 
ATOM      4  C   UNL     1       1.813   7.889  18.648  0.00  0.00    +0.000 C 
ATOM      5  C   UNL     1       1.983   7.751  20.167  0.00  0.00    +0.000 C 
ATOM      6  C   UNL     1       0.847   8.453  20.925  0.00  0.00    +0.000 C 
ATOM      7  C   UNL     1       0.679   9.900  20.482  0.00  0.00    +0.000 C 
BRANCH   2  10
ATOM      8  C   UNL     1      -0.748  12.138  18.462  0.00  0.00    +0.000 C 
ATOM      9  O   UNL     1      -0.620  13.329  18.210  0.00  0.00    +0.000 OA
ATOM     10  N   UNL     1       0.379  11.382  18.548  0.00  0.00    +0.000 N 
ATOM     11  H   UNL     1       1.227  11.931  18.454  0.00  0.00    +0.000 HD
BRANCH   8  12
ATOM     12  C   UNL     1      -2.084  11.452  18.676  0.00  0.00    +0.000 C 
BRANCH  12  14
ATOM     13  C   UNL     1      -4.267  11.606  17.396  0.00  0.00    +0.000 C 
ATOM     14  C   UNL     1      -2.835  11.066  17.396  0.00  0.00    +0.000 C 
ATOM     15  C   UNL     1      -2.794   9.563  17.113  0.00  0.00    +0.000 C 
BRANCH  14  16
ATOM     16  O   UNL     1      -2.136  11.718  16.317  0.00  0.00    +0.000 OA
ATOM     17  H   UNL     1      -2.622  11.533  15.495  0.00  0.00    +0.000 HD
ENDBRANCH  14  16
ENDBRANCH  12  14
ENDBRANCH   8  12
ENDBRANCH   2  10
ENDBRANCH   1   5
BRANCH   1  18
ATOM     18  C   UNL     1       1.106   5.403  19.699  0.00  0.00    +0.000 C 
BRANCH  18  19
ATOM     19  N   UNL     1       1.759   4.242  19.070  0.00  0.00    +0.000 NA
ATOM     20  C   UNL     1       2.112   4.526  17.672  0.00  0.00    +0.000 C 
ATOM     21  C   UNL     1       3.022   3.488  17.033  0.00  0.00    +0.000 C 
ATOM     22  C   UNL     1       4.238   3.137  17.891  0.00  0.00    +0.000 C 
ATOM     23  C   UNL     1       3.771   2.765  19.300  0.00  0.00    +0.000 C 
ATOM     24  C   UNL     1       2.878   3.823  19.928  0.00  0.00    +0.000 C 
BRANCH  22  25
ATOM     25  C   UNL     1       5.352   4.176  17.851  0.00  0.00    +0.000 A 
ATOM     26  C   UNL     1       5.813   4.870  18.985  0.00  0.00    +0.000 A 
ATOM     27  C   UNL     1       6.809   5.861  18.909  0.00  0.00    +0.000 A 
ATOM     28  C   UNL     1       7.383   6.183  17.692  0.00  0.00    +0.000 A 
ATOM     29  C   UNL     1       6.957   5.484  16.581  0.00  0.00    +0.000 A 
ATOM     30  C   UNL     1       5.970   4.506  16.648  0.00  0.00    +0.000 A 
ATOM     31  C   UNL     1       5.706   4.019  15.271  0.00  0.00    +0.000 C 
ATOM     32  C   UNL     1       6.950   4.564  14.574  0.00  0.00    +0.000 C 
ATOM     33  O   UNL     1       7.441   5.702  15.316  0.00  0.00    +0.000 OA
ENDBRANCH  22  25
ENDBRANCH  18  19
ENDBRANCH   1  18
TORSDOF 8
ENDMDL
MODEL 2
REMARK VINA RESULT:      -8.5      0.585      1.080
REMARK  Name = 
REMARK  10 active torsions:
REMARK  status: ('A' for Active; 'I' for Inactive)
REMARK    1  A    between atoms: C_1  and  C_2
REMARK    2  A    between atoms: C_2  and  C_3
REMARK    3  A    between atoms: C_2  and  O_4
REMARK    4  A    between atoms: C_2  and  C_5
REMARK    5  A    between atoms: C_5  and  C_6
REMARK    6  A    between atoms: N_8  and  C_9
REMARK    7  A    between atoms: C_12  and  C_13
REMARK    8  A    between atoms: C_13  and  C_14
REMARK    9  A    between atoms: C_14  and  N_15
REMARK   10  A    between atoms: C_18  and  C_19
REMARK                            x       y       z     vdW  Elec       q    Type
REMARK                         _______ _______ _______ _____ _____    ______ ____
ROOT
ATOM      1  C   UNL     1       2.046   6.127  20.545  0.00  0.00    +0.000 C 
ENDROOT
BRANCH   1   5
ATOM      2  C   UNL     1       1.311  10.345  19.846  0.00  0.00    +0.000 C 
ATOM      3  C   UNL     1       0.549   9.646  20.972  0.00  0.00    +0.000 C 
ATOM      4  C   UNL     1       1.219   8.332  21.331  0.00  0.00    +0.000 C 
ATOM      5  C   UNL     1       1.333   7.410  20.109  0.00  0.00    +0.000 C 
ATOM      6  C   UNL     1       2.041   8.111  18.941  0.00  0.00    +0.000 C 
ATOM      7  C   UNL     1       1.397   9.450  18.609  0.00  0.00    +0.000 C 
BRANCH   2  10
ATOM      8  C   UNL     1      -0.556  11.799  18.956  0.00  0.00    +0.000 C 
ATOM      9  O   UNL     1      -0.979  12.946  18.890  0.00  0.00    +0.000 OA
ATOM     10  N   UNL     1       0.662  11.604  19.528  0.00  0.00    +0.000 N 
ATOM     11  H   UNL     1       1.060  12.458  19.903  0.00  0.00    +0.000 HD
BRANCH   8  12
ATOM     12  C   UNL     1      -1.301  10.585  18.435  0.00  0.00    +0.000 C 
BRANCH  12  14
ATOM     13  C   UNL     1      -3.642  11.443  17.976  0.00  0.00    +0.000 C 
ATOM     14  C   UNL     1      -2.359  10.876  17.364  0.00  0.00    +0.000 C 
ATOM     15  C   UNL     1      -2.643   9.670  16.465  0.00  0.00    +0.000 C 
BRANCH  14  16
ATOM     16  O   UNL     1      -1.799  11.905  16.525  0.00  0.00    +0.000 OA
ATOM     17  H   UNL     1      -1.603  12.673  17.089  0.00  0.00    +0.000 HD
ENDBRANCH  14  16
ENDBRANCH  12  14
ENDBRANCH   8  12
ENDBRANCH   2  10
ENDBRANCH   1   5
BRANCH   1  18
ATOM     18  C   UNL     1       1.169   4.884  20.418  0.00  0.00    +0.000 C 
BRANCH  18  19
ATOM     19  N   UNL     1       1.713   3.902  19.466  0.00  0.00    +0.000 NA
ATOM     20  C   UNL     1       1.915   4.505  18.140  0.00  0.00    +0.000 C 
ATOM     21  C   UNL     1       2.718   3.644  17.176  0.00  0.00    +0.000 C 
ATOM     22  C   UNL     1       4.012   3.100  17.782  0.00  0.00    +0.000 C 
ATOM     23  C   UNL     1       3.696   2.409  19.110  0.00  0.00    +0.000 C 
ATOM     24  C   UNL     1       2.909   3.292  20.067  0.00  0.00    +0.000 C 
BRANCH  22  25
ATOM     25  C   UNL     1       5.143   4.117  17.856  0.00  0.00    +0.000 A 
ATOM     26  C   UNL     1       5.549   4.749  19.047  0.00  0.00    +0.000 A 
ATOM     27  C   UNL     1       6.564   5.723  19.076  0.00  0.00    +0.000 A 
ATOM     28  C   UNL     1       7.214   6.090  17.910  0.00  0.00    +0.000 A 
ATOM     29  C   UNL     1       6.841   5.453  16.744  0.00  0.00    +0.000 A 
ATOM     30  C   UNL     1       5.835   4.492  16.708  0.00  0.00    +0.000 A 
ATOM     31  C   UNL     1       5.644   4.075  15.296  0.00  0.00    +0.000 C 
ATOM     32  C   UNL     1       6.936   4.628  14.699  0.00  0.00    +0.000 C 
ATOM     33  O   UNL     1       7.402   5.719  15.522  0.00  0.00    +0.000 OA
ENDBRANCH  22  25
ENDBRANCH  18  19
ENDBRANCH   1  18
TORSDOF 8
ENDMDL
MODEL 3
REMARK VINA RESULT:      -8.4      1.742      2.975
REMARK  Name = 
REMARK  10 active torsions:
REMARK  status: ('A' for Active; 'I' for Inactive)
REMARK    1  A    between atoms: C_1  and  C_2
REMARK    2  A    between atoms: C_2  and  C_3
REMARK    3  A    between atoms: C_2  and  O_4
REMARK    4  A    between atoms: C_2  and  C_5
REMARK    5  A    between atoms: C_5  and  C_6
REMARK    6  A    between atoms: N_8  and  C_9
REMARK    7  A    between atoms: C_12  and  C_13
REMARK    8  A    between atoms: C_13  and  C_14
REMARK    9  A    between atoms: C_14  and  N_15
REMARK   10  A    between atoms: C_18  and  C_19
REMARK                            x       y       z     vdW  Elec       q    Type
REMARK                         _______ _______ _______ _____ _____    ______ ____
ROOT
ATOM      1  C   UNL     1       2.250   6.296  20.432  0.00  0.00    +0.000 C 
ENDROOT
BRANCH   1   5
ATOM      2  C   UNL     1       1.062  10.385  19.602  0.00  0.00    +0.000 C 
ATOM      3  C   UNL     1       0.380   9.643  20.752  0.00  0.00    +0.000 C 
ATOM      4  C   UNL     1       1.189   8.421  21.150  0.00  0.00    +0.000 C 
ATOM      5  C   UNL     1       1.402   7.479  19.958  0.00  0.00    +0.000 C 
ATOM      6  C   UNL     1       2.030   8.215  18.766  0.00  0.00    +0.000 C 
ATOM      7  C   UNL     1       1.244   9.465  18.393  0.00  0.00    +0.000 C 
BRANCH   2  10
ATOM      8  C   UNL     1       0.694  12.677  18.600  0.00  0.00    +0.000 C 
ATOM      9  O   UNL     1      -0.156  13.498  18.280  0.00  0.00    +0.000 OA
ATOM     10  N   UNL     1       0.280  11.554  19.247  0.00  0.00    +0.000 N 
ATOM     11  H   UNL     1      -0.730  11.501  19.332  0.00  0.00    +0.000 HD
BRANCH   8  12
ATOM     12  C   UNL     1       2.177  12.836  18.327  0.00  0.00    +0.000 C 
BRANCH  12  14
ATOM     13  C   UNL     1       4.166  14.407  18.298  0.00  0.00    +0.000 C 
ATOM     14  C   UNL     1       2.832  14.066  18.965  0.00  0.00    +0.000 C 
ATOM     15  C   UNL     1       2.971  13.944  20.485  0.00  0.00    +0.000 C 
BRANCH  14  16
ATOM     16  O   UNL     1       1.937  15.166  18.711  0.00  0.00    +0.000 OA
ATOM     17  H   UNL     1       2.065  15.822  19.418  0.00  0.00    +0.000 HD
ENDBRANCH  14  16
ENDBRANCH  12  14
ENDBRANCH   8  12
ENDBRANCH   2  10
ENDBRANCH   1   5
BRANCH   1  18
ATOM     18  C   UNL     1       1.467   4.986  20.491  0.00  0.00    +0.000 C 
BRANCH  18  19
ATOM     19  N   UNL     1       1.951   3.993  19.517  0.00  0.00    +0.000 NA
ATOM     20  C   UNL     1       2.079   4.583  18.178  0.00  0.00    +0.000 C 
ATOM     21  C   UNL     1       2.821   3.709  17.177  0.00  0.00    +0.000 C 
ATOM     22  C   UNL     1       4.145   3.163  17.713  0.00  0.00    +0.000 C 
ATOM     23  C   UNL     1       3.902   2.485  19.063  0.00  0.00    +0.000 C 
ATOM     24  C   UNL     1       3.176   3.381  20.055  0.00  0.00    +0.000 C 
BRANCH  22  25
ATOM     25  C   UNL     1       5.284   4.175  17.713  0.00  0.00    +0.000 A 
ATOM     26  C   UNL     1       5.753   4.823  18.871  0.00  0.00    +0.000 A 
ATOM     27  C   UNL     1       6.773   5.791  18.832  0.00  0.00    +0.000 A 
ATOM     28  C   UNL     1       7.365   6.135  17.629  0.00  0.00    +0.000 A 
ATOM     29  C   UNL     1       6.931   5.481  16.494  0.00  0.00    +0.000 A 
ATOM     30  C   UNL     1       5.919   4.526  16.524  0.00  0.00    +0.000 A 
ATOM     31  C   UNL     1       5.655   4.087  15.131  0.00  0.00    +0.000 C 
ATOM     32  C   UNL     1       6.918   4.622  14.461  0.00  0.00    +0.000 C 
ATOM     33  O   UNL     1       7.430   5.724  15.241  0.00  0.00    +0.000 OA
ENDBRANCH  22  25
ENDBRANCH  18  19
ENDBRANCH   1  18
TORSDOF 8
ENDMDL
MODEL 4
REMARK VINA RESULT:      -8.3      1.887      2.790
REMARK  Name = 
REMARK  10 active torsions:
REMARK  status: ('A' for Active; 'I' for Inactive)
REMARK    1  A    between atoms: C_1  and  C_2
REMARK    2  A    between atoms: C_2  and  C_3
REMARK    3  A    between atoms: C_2  and  O_4
REMARK    4  A    between atoms: C_2  and  C_5
REMARK    5  A    between atoms: C_5  and  C_6
REMARK    6  A    between atoms: N_8  and  C_9
REMARK    7  A    between atoms: C_12  and  C_13
REMARK    8  A    between atoms: C_13  and  C_14
REMARK    9  A    between atoms: C_14  and  N_15
REMARK   10  A    between atoms: C_18  and  C_19
REMARK                            x       y       z     vdW  Elec       q    Type
REMARK                         _______ _______ _______ _____ _____    ______ ____
ROOT
ATOM      1  C   UNL     1       2.117   6.924  20.292  0.00  0.00    +0.000 C 
ENDROOT
BRANCH   1   5
ATOM      2  C   UNL     1       0.636  10.912  21.140  0.00  0.00    +0.000 C 
ATOM      3  C   UNL     1       0.500   9.836  22.217  0.00  0.00    +0.000 C 
ATOM      4  C   UNL     1       1.417   8.664  21.917  0.00  0.00    +0.000 C 
ATOM      5  C   UNL     1       1.133   8.072  20.530  0.00  0.00    +0.000 C 
ATOM      6  C   UNL     1       1.203   9.146  19.436  0.00  0.00    +0.000 C 
ATOM      7  C   UNL     1       0.317  10.342  19.757  0.00  0.00    +0.000 C 
BRANCH   2  10
ATOM      8  C   UNL     1      -0.045  13.347  21.189  0.00  0.00    +0.000 C 
ATOM      9  O   UNL     1      -0.968  14.117  21.422  0.00  0.00    +0.000 OA
ATOM     10  N   UNL     1      -0.239  12.027  21.453  0.00  0.00    +0.000 N 
ATOM     11  H   UNL     1      -1.184  11.823  21.762  0.00  0.00    +0.000 HD
BRANCH   8  12
ATOM     12  C   UNL     1       1.300  13.772  20.633  0.00  0.00    +0.000 C 
BRANCH  12  14
ATOM     13  C   UNL     1       2.369  13.206  18.405  0.00  0.00    +0.000 C 
ATOM     14  C   UNL     1       1.324  14.060  19.127  0.00  0.00    +0.000 C 
ATOM     15  C   UNL     1       1.489  15.549  18.810  0.00  0.00    +0.000 C 
BRANCH  14  16
ATOM     16  O   UNL     1       0.033  13.663  18.628  0.00  0.00    +0.000 OA
ATOM     17  H   UNL     1       0.150  12.840  18.123  0.00  0.00    +0.000 HD
ENDBRANCH  14  16
ENDBRANCH  12  14
ENDBRANCH   8  12
ENDBRANCH   2  10
ENDBRANCH   1   5
BRANCH   1  18
ATOM     18  C   UNL     1       1.544   5.559  20.665  0.00  0.00    +0.000 C 
BRANCH  18  19
ATOM     19  N   UNL     1       1.912   4.508  19.701  0.00  0.00    +0.000 NA
ATOM     20  C   UNL     1       2.105   5.067  18.356  0.00  0.00    +0.000 C 
ATOM     21  C   UNL     1       2.744   4.106  17.364  0.00  0.00    +0.000 C 
ATOM     22  C   UNL     1       3.998   3.419  17.906  0.00  0.00    +0.000 C 
ATOM     23  C   UNL     1       3.681   2.786  19.262  0.00  0.00    +0.000 C 
ATOM     24  C   UNL     1       3.061   3.768  20.245  0.00  0.00    +0.000 C 
BRANCH  22  25
ATOM     25  C   UNL     1       5.244   4.296  17.897  0.00  0.00    +0.000 A 
ATOM     26  C   UNL     1       5.802   4.872  19.053  0.00  0.00    +0.000 A 
ATOM     27  C   UNL     1       6.924   5.720  19.007  0.00  0.00    +0.000 A 
ATOM     28  C   UNL     1       7.531   6.011  17.797  0.00  0.00    +0.000 A 
ATOM     29  C   UNL     1       7.007   5.425  16.663  0.00  0.00    +0.000 A 
ATOM     30  C   UNL     1       5.895   4.589  16.701  0.00  0.00    +0.000 A 
ATOM     31  C   UNL     1       5.560   4.202  15.308  0.00  0.00    +0.000 C 
ATOM     32  C   UNL     1       6.863   4.601  14.621  0.00  0.00    +0.000 C 
ATOM     33  O   UNL     1       7.509   5.627  15.404  0.00  0.00    +0.000 OA
ENDBRANCH  22  25
ENDBRANCH  18  19
ENDBRANCH   1  18
TORSDOF 8
ENDMDL
MODEL 5
REMARK VINA RESULT:      -8.2      1.735      2.843
REMARK  Name = 
REMARK  10 active torsions:
REMARK  status: ('A' for Active; 'I' for Inactive)
REMARK    1  A    between atoms: C_1  and  C_2
REMARK    2  A    between atoms: C_2  and  C_3
REMARK    3  A    between atoms: C_2  and  O_4
REMARK    4  A    between atoms: C_2  and  C_5
REMARK    5  A    between atoms: C_5  and  C_6
REMARK    6  A    between atoms: N_8  and  C_9
REMARK    7  A    between atoms: C_12  and  C_13
REMARK    8  A    between atoms: C_13  and  C_14
REMARK    9  A    between atoms: C_14  and  N_15
REMARK   10  A    between atoms: C_18  and  C_19
REMARK                            x       y       z     vdW  Elec       q    Type
REMARK                         _______ _______ _______ _____ _____    ______ ____
ROOT
ATOM      1  C   UNL     1       2.281   6.372  20.354  0.00  0.00    +0.000 C 
ENDROOT
BRANCH   1   5
ATOM      2  C   UNL     1       1.198  10.380  19.098  0.00  0.00    +0.000 C 
ATOM      3  C   UNL     1       0.427   9.742  20.253  0.00  0.00    +0.000 C 
ATOM      4  C   UNL     1       1.193   8.555  20.811  0.00  0.00    +0.000 C 
ATOM      5  C   UNL     1       1.482   7.514  19.721  0.00  0.00    +0.000 C 
ATOM      6  C   UNL     1       2.201   8.143  18.520  0.00  0.00    +0.000 C 
ATOM      7  C   UNL     1       1.457   9.360  17.987  0.00  0.00    +0.000 C 
BRANCH   2  10
ATOM      8  C   UNL     1       0.691  12.840  18.806  0.00  0.00    +0.000 C 
ATOM      9  O   UNL     1       0.021  13.651  18.178  0.00  0.00    +0.000 OA
ATOM     10  N   UNL     1       0.455  11.518  18.589  0.00  0.00    +0.000 N 
ATOM     11  H   UNL     1      -0.230  11.357  17.857  0.00  0.00    +0.000 HD
BRANCH   8  12
ATOM     12  C   UNL     1       1.760  13.217  19.813  0.00  0.00    +0.000 C 
BRANCH  12  14
ATOM     13  C   UNL     1       0.060  13.368  21.689  0.00  0.00    +0.000 C 
ATOM     14  C   UNL     1       1.267  14.028  21.018  0.00  0.00    +0.000 C 
ATOM     15  C   UNL     1       0.995  15.495  20.675  0.00  0.00    +0.000 C 
BRANCH  14  16
ATOM     16  O   UNL     1       2.345  14.011  21.973  0.00  0.00    +0.000 OA
ATOM     17  H   UNL     1       1.968  13.794  22.843  0.00  0.00    +0.000 HD
ENDBRANCH  14  16
ENDBRANCH  12  14
ENDBRANCH   8  12
ENDBRANCH   2  10
ENDBRANCH   1   5
BRANCH   1  18
ATOM     18  C   UNL     1       1.488   5.071  20.453  0.00  0.00    +0.000 C 
BRANCH  18  19
ATOM     19  N   UNL     1       1.992   4.030  19.541  0.00  0.00    +0.000 NA
ATOM     20  C   UNL     1       2.096   4.535  18.165  0.00  0.00    +0.000 C 
ATOM     21  C   UNL     1       2.855   3.618  17.217  0.00  0.00    +0.000 C 
ATOM     22  C   UNL     1       4.196   3.143  17.776  0.00  0.00    +0.000 C 
ATOM     23  C   UNL     1       3.980   2.548  19.169  0.00  0.00    +0.000 C 
ATOM     24  C   UNL     1       3.237   3.487  20.107  0.00  0.00    +0.000 C 
BRANCH  22  25
ATOM     25  C   UNL     1       5.307   4.182  17.702  0.00  0.00    +0.000 A 
ATOM     26  C   UNL     1       5.785   4.898  18.817  0.00  0.00    +0.000 A 
ATOM     27  C   UNL     1       6.777   5.888  18.709  0.00  0.00    +0.000 A 
ATOM     28  C   UNL     1       7.333   6.189  17.477  0.00  0.00    +0.000 A 
ATOM     29  C   UNL     1       6.892   5.471  16.385  0.00  0.00    +0.000 A 
ATOM     30  C   UNL     1       5.907   4.492  16.484  0.00  0.00    +0.000 A 
ATOM     31  C   UNL     1       5.624   3.981  15.120  0.00  0.00    +0.000 C 
ATOM     32  C   UNL     1       6.857   4.515  14.395  0.00  0.00    +0.000 C 
ATOM     33  O   UNL     1       7.357   5.666  15.110  0.00  0.00    +0.000 OA
ENDBRANCH  22  25
ENDBRANCH  18  19
ENDBRANCH   1  18
TORSDOF 8
ENDMDL
MODEL 6
REMARK VINA RESULT:      -8.1      6.196      8.348
REMARK  Name = 
REMARK  10 active torsions:
REMARK  status: ('A' for Active; 'I' for Inactive)
REMARK    1  A    between atoms: C_1  and  C_2
REMARK    2  A    between atoms: C_2  and  C_3
REMARK    3  A    between atoms: C_2  and  O_4
REMARK    4  A    between atoms: C_2  and  C_5
REMARK    5  A    between atoms: C_5  and  C_6
REMARK    6  A    between atoms: N_8  and  C_9
REMARK    7  A    between atoms: C_12  and  C_13
REMARK    8  A    between atoms: C_13  and  C_14
REMARK    9  A    between atoms: C_14  and  N_15
REMARK   10  A    between atoms: C_18  and  C_19
REMARK                            x       y       z     vdW  Elec       q    Type
REMARK                         _______ _______ _______ _____ _____    ______ ____
ROOT
ATOM      1  C   UNL     1       7.788   9.067  17.868  0.00  0.00    +0.000 C 
ENDROOT
BRANCH   1   5
ATOM      2  C   UNL     1       9.838  12.575  19.387  0.00  0.00    +0.000 C 
ATOM      3  C   UNL     1       9.576  12.473  17.884  0.00  0.00    +0.000 C 
ATOM      4  C   UNL     1       8.516  11.424  17.599  0.00  0.00    +0.000 C 
ATOM      5  C   UNL     1       8.918  10.056  18.166  0.00  0.00    +0.000 C 
ATOM      6  C   UNL     1       9.246  10.142  19.664  0.00  0.00    +0.000 C 
ATOM      7  C   UNL     1      10.277  11.224  19.956  0.00  0.00    +0.000 C 
BRANCH   2  10
ATOM      8  C   UNL     1      10.654  14.899  19.959  0.00  0.00    +0.000 C 
ATOM      9  O   UNL     1      11.639  15.562  20.256  0.00  0.00    +0.000 OA
ATOM     10  N   UNL     1      10.844  13.591  19.637  0.00  0.00    +0.000 N 
ATOM     11  H   UNL     1      11.808  13.296  19.749  0.00  0.00    +0.000 HD
BRANCH   8  12
ATOM     12  C   UNL     1       9.240  15.445  19.920  0.00  0.00    +0.000 C 
BRANCH  12  14
ATOM     13  C   UNL     1       8.732  17.685  18.848  0.00  0.00    +0.000 C 
ATOM     14  C   UNL     1       8.855  16.176  18.628  0.00  0.00    +0.000 C 
ATOM     15  C   UNL     1       7.604  15.594  17.966  0.00  0.00    +0.000 C 
BRANCH  14  16
ATOM     16  O   UNL     1       9.951  15.968  17.716  0.00  0.00    +0.000 OA
ATOM     17  H   UNL     1      10.694  15.599  18.224  0.00  0.00    +0.000 HD
ENDBRANCH  14  16
ENDBRANCH  12  14
ENDBRANCH   8  12
ENDBRANCH   2  10
ENDBRANCH   1   5
BRANCH   1  18
ATOM     18  C   UNL     1       8.133   7.631  18.255  0.00  0.00    +0.000 C 
BRANCH  18  19
ATOM     19  N   UNL     1       7.530   6.639  17.348  0.00  0.00    +0.000 NA
ATOM     20  C   UNL     1       7.362   5.342  18.018  0.00  0.00    +0.000 C 
ATOM     21  C   UNL     1       6.509   4.345  17.248  0.00  0.00    +0.000 C 
ATOM     22  C   UNL     1       5.185   4.933  16.755  0.00  0.00    +0.000 C 
ATOM     23  C   UNL     1       5.462   6.229  15.991  0.00  0.00    +0.000 C 
ATOM     24  C   UNL     1       6.301   7.219  16.784  0.00  0.00    +0.000 C 
BRANCH  22  25
ATOM     25  C   UNL     1       4.116   5.055  17.834  0.00  0.00    +0.000 A 
ATOM     26  C   UNL     1       3.756   6.272  18.443  0.00  0.00    +0.000 A 
ATOM     27  C   UNL     1       2.800   6.346  19.472  0.00  0.00    +0.000 A 
ATOM     28  C   UNL     1       2.165   5.200  19.920  0.00  0.00    +0.000 A 
ATOM     29  C   UNL     1       2.491   4.008  19.306  0.00  0.00    +0.000 A 
ATOM     30  C   UNL     1       3.439   3.927  18.290  0.00  0.00    +0.000 A 
ATOM     31  C   UNL     1       3.595   2.499  17.916  0.00  0.00    +0.000 C 
ATOM     32  C   UNL     1       2.335   1.935  18.566  0.00  0.00    +0.000 C 
ATOM     33  O   UNL     1       1.939   2.802  19.651  0.00  0.00    +0.000 OA
ENDBRANCH  22  25
ENDBRANCH  18  19
ENDBRANCH   1  18
TORSDOF 8
ENDMDL
MODEL 7
REMARK VINA RESULT:      -8.0      1.670      2.222
REMARK  Name = 
REMARK  10 active torsions:
REMARK  status: ('A' for Active; 'I' for Inactive)
REMARK    1  A    between atoms: C_1  and  C_2
REMARK    2  A    between atoms: C_2  and  C_3
REMARK    3  A    between atoms: C_2  and  O_4
REMARK    4  A    between atoms: C_2  and  C_5
REMARK    5  A    between atoms: C_5  and  C_6
REMARK    6  A    between atoms: N_8  and  C_9
REMARK    7  A    between atoms: C_12  and  C_13
REMARK    8  A    between atoms: C_13  and  C_14
REMARK    9  A    between atoms: C_14  and  N_15
REMARK   10  A    between atoms: C_18  and  C_19
REMARK                            x       y       z     vdW  Elec       q    Type
REMARK                         _______ _______ _______ _____ _____    ______ ____
ROOT
ATOM      1  C   UNL     1       1.946   5.243  20.940  0.00  0.00    +0.000 C 
ENDROOT
BRANCH   1   5
ATOM      2  C   UNL     1       1.181   9.186  19.301  0.00  0.00    +0.000 C 
ATOM      3  C   UNL     1       2.219   8.297  18.615  0.00  0.00    +0.000 C 
ATOM      4  C   UNL     1       2.054   6.853  19.054  0.00  0.00    +0.000 C 
ATOM      5  C   UNL     1       2.156   6.716  20.579  0.00  0.00    +0.000 C 
ATOM      6  C   UNL     1       1.165   7.646  21.294  0.00  0.00    +0.000 C 
ATOM      7  C   UNL     1       1.300   9.087  20.823  0.00  0.00    +0.000 C 
BRANCH   2  10
ATOM      8  C   UNL     1       0.605  11.646  19.194  0.00  0.00    +0.000 C 
ATOM      9  O   UNL     1       0.991  12.743  18.811  0.00  0.00    +0.000 OA
ATOM     10  N   UNL     1       1.349  10.558  18.858  0.00  0.00    +0.000 N 
ATOM     11  H   UNL     1       2.202  10.804  18.366  0.00  0.00    +0.000 HD
BRANCH   8  12
ATOM     12  C   UNL     1      -0.653  11.424  20.012  0.00  0.00    +0.000 C 
BRANCH  12  14
ATOM     13  C   UNL     1      -1.114  11.161  22.490  0.00  0.00    +0.000 C 
ATOM     14  C   UNL     1      -0.675  12.117  21.379  0.00  0.00    +0.000 C 
ATOM     15  C   UNL     1      -1.502  13.406  21.378  0.00  0.00    +0.000 C 
BRANCH  14  16
ATOM     16  O   UNL     1       0.688  12.491  21.655  0.00  0.00    +0.000 OA
ATOM     17  H   UNL     1       0.929  12.118  22.521  0.00  0.00    +0.000 HD
ENDBRANCH  14  16
ENDBRANCH  12  14
ENDBRANCH   8  12
ENDBRANCH   2  10
ENDBRANCH   1   5
BRANCH   1  18
ATOM     18  C   UNL     1       0.976   4.530  20.001  0.00  0.00    +0.000 C 
BRANCH  18  19
ATOM     19  N   UNL     1       1.649   3.559  19.123  0.00  0.00    +0.000 NA
ATOM     20  C   UNL     1       1.901   4.131  17.793  0.00  0.00    +0.000 C 
ATOM     21  C   UNL     1       2.825   3.299  16.916  0.00  0.00    +0.000 C 
ATOM     22  C   UNL     1       4.107   2.864  17.627  0.00  0.00    +0.000 C 
ATOM     23  C   UNL     1       3.747   2.195  18.955  0.00  0.00    +0.000 C 
ATOM     24  C   UNL     1       2.839   3.052  19.824  0.00  0.00    +0.000 C 
BRANCH  22  25
ATOM     25  C   UNL     1       5.160   3.959  17.739  0.00  0.00    +0.000 A 
ATOM     26  C   UNL     1       5.483   4.612  18.944  0.00  0.00    +0.000 A 
ATOM     27  C   UNL     1       6.424   5.655  19.008  0.00  0.00    +0.000 A 
ATOM     28  C   UNL     1       7.082   6.074  17.864  0.00  0.00    +0.000 A 
ATOM     29  C   UNL     1       6.793   5.418  16.685  0.00  0.00    +0.000 A 
ATOM     30  C   UNL     1       5.859   4.388  16.614  0.00  0.00    +0.000 A 
ATOM     31  C   UNL     1       5.742   3.967  15.196  0.00  0.00    +0.000 C 
ATOM     32  C   UNL     1       7.009   4.613  14.641  0.00  0.00    +0.000 C 
ATOM     33  O   UNL     1       7.370   5.731  15.481  0.00  0.00    +0.000 OA
ENDBRANCH  22  25
ENDBRANCH  18  19
ENDBRANCH   1  18
TORSDOF 8
ENDMDL
MODEL 8
REMARK VINA RESULT:      -8.0      6.415      9.861
REMARK  Name = 
REMARK  10 active torsions:
REMARK  status: ('A' for Active; 'I' for Inactive)
REMARK    1  A    between atoms: C_1  and  C_2
REMARK    2  A    between atoms: C_2  and  C_3
REMARK    3  A    between atoms: C_2  and  O_4
REMARK    4  A    between atoms: C_2  and  C_5
REMARK    5  A    between atoms: C_5  and  C_6
REMARK    6  A    between atoms: N_8  and  C_9
REMARK    7  A    between atoms: C_12  and  C_13
REMARK    8  A    between atoms: C_13  and  C_14
REMARK    9  A    between atoms: C_14  and  N_15
REMARK   10  A    between atoms: C_18  and  C_19
REMARK                            x       y       z     vdW  Elec       q    Type
REMARK                         _______ _______ _______ _____ _____    ______ ____
ROOT
ATOM      1  C   UNL     1       8.173   8.795  17.520  0.00  0.00    +0.000 C 
ENDROOT
BRANCH   1   5
ATOM      2  C   UNL     1       6.097   5.173  18.701  0.00  0.00    +0.000 C 
ATOM      3  C   UNL     1       7.600   5.275  18.963  0.00  0.00    +0.000 C 
ATOM      4  C   UNL     1       8.058   6.720  18.876  0.00  0.00    +0.000 C 
ATOM      5  C   UNL     1       7.710   7.336  17.514  0.00  0.00    +0.000 C 
ATOM      6  C   UNL     1       6.215   7.192  17.199  0.00  0.00    +0.000 C 
ATOM      7  C   UNL     1       5.744   5.750  17.329  0.00  0.00    +0.000 C 
BRANCH   2  10
ATOM      8  C   UNL     1       4.446   3.302  19.108  0.00  0.00    +0.000 C 
ATOM      9  O   UNL     1       4.268   2.094  19.015  0.00  0.00    +0.000 OA
ATOM     10  N   UNL     1       5.679   3.787  18.802  0.00  0.00    +0.000 N 
ATOM     11  H   UNL     1       6.309   3.069  18.458  0.00  0.00    +0.000 HD
BRANCH   8  12
ATOM     12  C   UNL     1       3.382   4.288  19.549  0.00  0.00    +0.000 C 
BRANCH  12  14
ATOM     13  C   UNL     1       1.062   4.704  20.483  0.00  0.00    +0.000 C 
ATOM     14  C   UNL     1       2.164   3.669  20.246  0.00  0.00    +0.000 C 
ATOM     15  C   UNL     1       2.531   2.924  21.532  0.00  0.00    +0.000 C 
BRANCH  14  16
ATOM     16  O   UNL     1       1.638   2.692  19.328  0.00  0.00    +0.000 OA
ATOM     17  H   UNL     1       1.266   1.962  19.852  0.00  0.00    +0.000 HD
ENDBRANCH  14  16
ENDBRANCH  12  14
ENDBRANCH   8  12
ENDBRANCH   2  10
ENDBRANCH   1   5
BRANCH   1  18
ATOM     18  C   UNL     1       8.343   9.362  18.927  0.00  0.00    +0.000 C 
BRANCH  18  19
ATOM     19  N   UNL     1       9.600  10.114  19.086  0.00  0.00    +0.000 NA
ATOM     20  C   UNL     1       9.944  10.837  17.854  0.00  0.00    +0.000 C 
ATOM     21  C   UNL     1      11.073  11.845  18.013  0.00  0.00    +0.000 C 
ATOM     22  C   UNL     1      10.893  12.773  19.215  0.00  0.00    +0.000 C 
ATOM     23  C   UNL     1      10.633  11.933  20.467  0.00  0.00    +0.000 C 
ATOM     24  C   UNL     1       9.488  10.946  20.294  0.00  0.00    +0.000 C 
BRANCH  22  25
ATOM     25  C   UNL     1       9.888  13.896  18.991  0.00  0.00    +0.000 A 
ATOM     26  C   UNL     1       8.572  13.878  19.490  0.00  0.00    +0.000 A 
ATOM     27  C   UNL     1       7.651  14.907  19.224  0.00  0.00    +0.000 A 
ATOM     28  C   UNL     1       8.023  15.997  18.454  0.00  0.00    +0.000 A 
ATOM     29  C   UNL     1       9.320  16.035  17.988  0.00  0.00    +0.000 A 
ATOM     30  C   UNL     1      10.236  15.018  18.243  0.00  0.00    +0.000 A 
ATOM     31  C   UNL     1      11.499  15.344  17.535  0.00  0.00    +0.000 C 
ATOM     32  C   UNL     1      11.244  16.820  17.243  0.00  0.00    +0.000 C 
ATOM     33  O   UNL     1       9.819  17.053  17.216  0.00  0.00    +0.000 OA
ENDBRANCH  22  25
ENDBRANCH  18  19
ENDBRANCH   1  18
TORSDOF 8
ENDMDL
MODEL 9
REMARK VINA RESULT:      -7.9      3.241      9.738
REMARK  Name = 
REMARK  10 active torsions:
REMARK  status: ('A' for Active; 'I' for Inactive)
REMARK    1  A    between atoms: C_1  and  C_2
REMARK    2  A    between atoms: C_2  and  C_3
REMARK    3  A    between atoms: C_2  and  O_4
REMARK    4  A    between atoms: C_2  and  C_5
REMARK    5  A    between atoms: C_5  and  C_6
REMARK    6  A    between atoms: N_8  and  C_9
REMARK    7  A    between atoms: C_12  and  C_13
REMARK    8  A    between atoms: C_13  and  C_14
REMARK    9  A    between atoms: C_14  and  N_15
REMARK   10  A    between atoms: C_18  and  C_19
REMARK                            x       y       z     vdW  Elec       q    Type
REMARK                         _______ _______ _______ _____ _____    ______ ____
ROOT
ATOM      1  C   UNL     1       1.533   9.857  18.282  0.00  0.00    +0.000 C 
ENDROOT
BRANCH   1   5
ATOM      2  C   UNL     1       3.541   6.120  19.190  0.00  0.00    +0.000 C 
ATOM      3  C   UNL     1       3.366   6.521  17.725  0.00  0.00    +0.000 C 
ATOM      4  C   UNL     1       3.036   7.999  17.614  0.00  0.00    +0.000 C 
ATOM      5  C   UNL     1       1.778   8.352  18.418  0.00  0.00    +0.000 C 
ATOM      6  C   UNL     1       1.902   7.904  19.881  0.00  0.00    +0.000 C 
ATOM      7  C   UNL     1       2.277   6.433  19.994  0.00  0.00    +0.000 C 
BRANCH   2  10
ATOM      8  C   UNL     1       5.100   4.131  19.266  0.00  0.00    +0.000 C 
ATOM      9  O   UNL     1       5.166   2.926  19.474  0.00  0.00    +0.000 OA
ATOM     10  N   UNL     1       3.869   4.709  19.272  0.00  0.00    +0.000 N 
ATOM     11  H   UNL     1       3.131   4.058  19.521  0.00  0.00    +0.000 HD
BRANCH   8  12
ATOM     12  C   UNL     1       6.301   5.016  18.995  0.00  0.00    +0.000 C 
BRANCH  12  14
ATOM     13  C   UNL     1       7.287   6.295  17.040  0.00  0.00    +0.000 C 
ATOM     14  C   UNL     1       6.878   4.921  17.577  0.00  0.00    +0.000 C 
ATOM     15  C   UNL     1       5.951   4.185  16.607  0.00  0.00    +0.000 C 
BRANCH  14  16
ATOM     16  O   UNL     1       8.080   4.136  17.691  0.00  0.00    +0.000 OA
ATOM     17  H   UNL     1       8.216   3.676  16.845  0.00  0.00    +0.000 HD
ENDBRANCH  14  16
ENDBRANCH  12  14
ENDBRANCH   8  12
ENDBRANCH   2  10
ENDBRANCH   1   5
BRANCH   1  18
ATOM     18  C   UNL     1       0.060  10.237  18.413  0.00  0.00    +0.000 C 
BRANCH  18  19
ATOM     19  N   UNL     1      -0.150  11.394  19.299  0.00  0.00    +0.000 NA
ATOM     20  C   UNL     1       1.024  11.630  20.150  0.00  0.00    +0.000 C 
ATOM     21  C   UNL     1       1.000  12.955  20.898  0.00  0.00    +0.000 C 
ATOM     22  C   UNL     1       0.667  14.150  20.004  0.00  0.00    +0.000 C 
ATOM     23  C   UNL     1      -0.618  13.856  19.227  0.00  0.00    +0.000 C 
ATOM     24  C   UNL     1      -0.567  12.537  18.471  0.00  0.00    +0.000 C 
BRANCH  22  25
ATOM     25  C   UNL     1       1.828  14.628  19.142  0.00  0.00    +0.000 A 
ATOM     26  C   UNL     1       2.986  13.865  18.897  0.00  0.00    +0.000 A 
ATOM     27  C   UNL     1       4.064  14.353  18.138  0.00  0.00    +0.000 A 
ATOM     28  C   UNL     1       4.015  15.624  17.590  0.00  0.00    +0.000 A 
ATOM     29  C   UNL     1       2.871  16.366  17.801  0.00  0.00    +0.000 A 
ATOM     30  C   UNL     1       1.802  15.890  18.554  0.00  0.00    +0.000 A 
ATOM     31  C   UNL     1       0.782  16.965  18.640  0.00  0.00    +0.000 C 
ATOM     32  C   UNL     1       1.278  17.866  17.512  0.00  0.00    +0.000 C 
ATOM     33  O   UNL     1       2.690  17.635  17.316  0.00  0.00    +0.000 OA
ENDBRANCH  22  25
ENDBRANCH  18  19
ENDBRANCH   1  18
TORSDOF 8
ENDMDL
