MODEL 1
REMARK VINA RESULT:      -6.7      0.000      0.000
REMARK  Name = 
REMARK  12 active torsions:
REMARK  status: ('A' for Active; 'I' for Inactive)
REMARK    1  A    between atoms: O_1  and  C_2
REMARK    2  A    between atoms: C_2  and  C_3
REMARK    3  A    between atoms: C_3  and  C_4
REMARK    4  A    between atoms: C_4  and  C_5
REMARK    5  A    between atoms: C_5  and  N_6
REMARK    6  A    between atoms: N_10  and  C_11
REMARK    7  A    between atoms: C_14  and  C_15
REMARK    8  A    between atoms: C_15  and  N_16
REMARK    9  A    between atoms: N_27  and  C_28
REMARK   10  A    between atoms: C_28  and  C_29
REMARK   11  A    between atoms: C_29  and  C_30
REMARK   12  A    between atoms: C_30  and  O_31
REMARK                            x       y       z     vdW  Elec       q    Type
REMARK                         _______ _______ _______ _____ _____    ______ ____
ROOT
ATOM      1  N   UNL     1       4.698   5.733  16.657  0.00  0.00    +0.000 N 
ATOM      2  C   UNL     1       3.869   6.352  17.591  0.00  0.00    +0.000 A 
ATOM      3  N   UNL     1       3.512   7.640  17.396  0.00  0.00    +0.000 NA
ATOM      4  C   UNL     1       2.588   8.223  18.215  0.00  0.00    +0.000 A 
ATOM      5  N   UNL     1       2.146   9.547  17.953  0.00  0.00    +0.000 N 
ATOM      6  C   UNL     1       2.104   7.466  19.288  0.00  0.00    +0.000 A 
ATOM      7  N   UNL     1       1.193   7.752  20.287  0.00  0.00    +0.000 NA
ATOM      8  C   UNL     1       1.099   6.659  20.989  0.00  0.00    +0.000 A 
ATOM      9  N   UNL     1       1.975   5.704  20.551  0.00  0.00    +0.000 N 
ATOM     10  C   UNL     1       2.597   6.179  19.423  0.00  0.00    +0.000 A 
ATOM     11  N   UNL     1       3.471   5.564  18.613  0.00  0.00    +0.000 NA
ATOM     12  H   UNL     1       5.102   4.916  17.098  0.00  0.00    +0.000 HD
ATOM     13  H   UNL     1       2.857  10.181  18.303  0.00  0.00    +0.000 HD
ENDROOT
BRANCH   5  14
ATOM     14  C   UNL     1       0.829   9.988  18.229  0.00  0.00    +0.000 A 
ATOM     15  C   UNL     1       0.564  10.968  19.189  0.00  0.00    +0.000 A 
ATOM     16  C   UNL     1      -0.746  11.446  19.383  0.00  0.00    +0.000 A 
ATOM     17  C   UNL     1      -1.810  10.969  18.601  0.00  0.00    +0.000 A 
ATOM     18  C   UNL     1      -1.546   9.956  17.677  0.00  0.00    +0.000 A 
ATOM     19  C   UNL     1      -0.247   9.504  17.470  0.00  0.00    +0.000 A 
BRANCH  17  20
ATOM     20  C   UNL     1      -3.227  11.474  18.744  0.00  0.00    +0.000 C 
BRANCH  20  21
ATOM     21  N   UNL     1      -4.267  10.930  17.867  0.00  0.00    +0.000 NA
ATOM     22  C   UNL     1      -4.799  11.793  16.806  0.00  0.00    +0.000 C 
ATOM     23  C   UNL     1      -6.039  12.622  17.192  0.00  0.00    +0.000 C 
ATOM     24  O   UNL     1      -7.060  11.831  17.815  0.00  0.00    +0.000 OA
ATOM     25  C   UNL     1      -6.558  11.065  18.914  0.00  0.00    +0.000 C 
ATOM     26  C   UNL     1      -5.356  10.201  18.516  0.00  0.00    +0.000 C 
ENDBRANCH  20  21
ENDBRANCH  17  20
ENDBRANCH   5  14
BRANCH   1  27
ATOM     27  C   UNL     1       5.624   6.614  15.961  0.00  0.00    +0.000 C 
BRANCH  27  28
ATOM     28  C   UNL     1       7.056   6.420  16.477  0.00  0.00    +0.000 C 
BRANCH  28  29
ATOM     29  C   UNL     1       7.157   6.065  17.966  0.00  0.00    +0.000 C 
BRANCH  29  30
ATOM     30  C   UNL     1       7.448   4.593  18.231  0.00  0.00    +0.000 C 
BRANCH  30  31
ATOM     31  O   UNL     1       6.269   3.953  18.702  0.00  0.00    +0.000 OA
ATOM     32  H   UNL     1       6.163   3.138  18.181  0.00  0.00    +0.000 HD
ENDBRANCH  30  31
ENDBRANCH  29  30
ENDBRANCH  28  29
ENDBRANCH  27  28
ENDBRANCH   1  27
BRANCH   9  33
ATOM     33  C   UNL     1       2.266   4.485  21.266  0.00  0.00    +0.000 C 
BRANCH  33  34
ATOM     34  C   UNL     1       1.258   3.369  21.041  0.00  0.00    +0.000 C 
BRANCH  34  35
ATOM     35  C   UNL     1       1.157   2.941  19.586  0.00  0.00    +0.000 C 
BRANCH  35  36
ATOM     36  O   UNL     1       2.458   2.621  19.107  0.00  0.00    +0.000 OA
ATOM     37  H   UNL     1       2.974   3.444  19.073  0.00  0.00    +0.000 HD
ENDBRANCH  35  36
ENDBRANCH  34  35
ENDBRANCH  33  34
ENDBRANCH   9  33
TORSDOF 12
ENDMDL
MODEL 2
REMARK VINA RESULT:      -6.5      2.013      2.400
REMARK  Name = 
REMARK  12 active torsions:
REMARK  status: ('A' for Active; 'I' for Inactive)
REMARK    1  A    between atoms: O_1  and  C_2
REMARK    2  A    between atoms: C_2  and  C_3
REMARK    3  A    between atoms: C_3  and  C_4
REMARK    4  A    between atoms: C_4  and  C_5
REMARK    5  A    between atoms: C_5  and  N_6
REMARK    6  A    between atoms: N_10  and  C_11
REMARK    7  A    between atoms: C_14  and  C_15
REMARK    8  A    between atoms: C_15  and  N_16
REMARK    9  A    between atoms: N_27  and  C_28
REMARK   10  A    between atoms: C_28  and  C_29
REMARK   11  A    between atoms: C_29  and  C_30
REMARK   12  A    between atoms: C_30  and  O_31
REMARK                            x       y       z     vdW  Elec       q    Type
REMARK                         _______ _______ _______ _____ _____    ______ ____
ROOT
ATOM      1  N   UNL     1       4.419   5.130  16.485  0.00  0.00    +0.000 N 
ATOM      2  C   UNL     1       3.763   5.820  17.503  0.00  0.00    +0.000 A 
ATOM      3  N   UNL     1       3.594   7.155  17.384  0.00  0.00    +0.000 NA
ATOM      4  C   UNL     1       2.831   7.830  18.293  0.00  0.00    +0.000 A 
ATOM      5  N   UNL     1       2.579   9.216  18.114  0.00  0.00    +0.000 N 
ATOM      6  C   UNL     1       2.316   7.104  19.372  0.00  0.00    +0.000 A 
ATOM      7  N   UNL     1       1.534   7.475  20.450  0.00  0.00    +0.000 NA
ATOM      8  C   UNL     1       1.326   6.376  21.117  0.00  0.00    +0.000 A 
ATOM      9  N   UNL     1       2.012   5.323  20.578  0.00  0.00    +0.000 N 
ATOM     10  C   UNL     1       2.616   5.752  19.423  0.00  0.00    +0.000 A 
ATOM     11  N   UNL     1       3.325   5.053  18.524  0.00  0.00    +0.000 NA
ATOM     12  H   UNL     1       4.724   4.241  16.863  0.00  0.00    +0.000 HD
ATOM     13  H   UNL     1       3.401   9.720  18.430  0.00  0.00    +0.000 HD
ENDROOT
BRANCH   5  14
ATOM     14  C   UNL     1       1.368   9.835  18.509  0.00  0.00    +0.000 A 
ATOM     15  C   UNL     1       1.329  10.812  19.507  0.00  0.00    +0.000 A 
ATOM     16  C   UNL     1       0.124  11.469  19.819  0.00  0.00    +0.000 A 
ATOM     17  C   UNL     1      -1.059  11.178  19.121  0.00  0.00    +0.000 A 
ATOM     18  C   UNL     1      -1.022  10.167  18.158  0.00  0.00    +0.000 A 
ATOM     19  C   UNL     1       0.175   9.538  17.834  0.00  0.00    +0.000 A 
BRANCH  17  20
ATOM     20  C   UNL     1      -2.370  11.879  19.392  0.00  0.00    +0.000 C 
BRANCH  20  21
ATOM     21  N   UNL     1      -2.413  12.938  20.403  0.00  0.00    +0.000 NA
ATOM     22  C   UNL     1      -1.778  12.682  21.701  0.00  0.00    +0.000 C 
ATOM     23  C   UNL     1      -2.703  12.086  22.780  0.00  0.00    +0.000 C 
ATOM     24  O   UNL     1      -3.937  12.805  22.908  0.00  0.00    +0.000 OA
ATOM     25  C   UNL     1      -4.605  12.966  21.653  0.00  0.00    +0.000 C 
ATOM     26  C   UNL     1      -3.699  13.607  20.596  0.00  0.00    +0.000 C 
ENDBRANCH  20  21
ENDBRANCH  17  20
ENDBRANCH   5  14
BRANCH   1  27
ATOM     27  C   UNL     1       5.416   5.894  15.751  0.00  0.00    +0.000 C 
BRANCH  27  28
ATOM     28  C   UNL     1       6.798   5.238  15.861  0.00  0.00    +0.000 C 
BRANCH  28  29
ATOM     29  C   UNL     1       7.363   5.170  17.286  0.00  0.00    +0.000 C 
BRANCH  29  30
ATOM     30  C   UNL     1       7.448   6.523  17.982  0.00  0.00    +0.000 C 
BRANCH  30  31
ATOM     31  O   UNL     1       8.229   6.401  19.163  0.00  0.00    +0.000 OA
ATOM     32  H   UNL     1       8.337   7.298  19.524  0.00  0.00    +0.000 HD
ENDBRANCH  30  31
ENDBRANCH  29  30
ENDBRANCH  28  29
ENDBRANCH  27  28
ENDBRANCH   1  27
BRANCH   9  33
ATOM     33  C   UNL     1       2.164   4.042  21.223  0.00  0.00    +0.000 C 
BRANCH  33  34
ATOM     34  C   UNL     1       1.154   2.993  20.783  0.00  0.00    +0.000 C 
BRANCH  34  35
ATOM     35  C   UNL     1       1.580   2.243  19.532  0.00  0.00    +0.000 C 
BRANCH  35  36
ATOM     36  O   UNL     1       0.952   2.835  18.402  0.00  0.00    +0.000 OA
ATOM     37  H   UNL     1       0.511   3.649  18.698  0.00  0.00    +0.000 HD
ENDBRANCH  35  36
ENDBRANCH  34  35
ENDBRANCH  33  34
ENDBRANCH   9  33
TORSDOF 12
ENDMDL
MODEL 3
REMARK VINA RESULT:      -6.4      2.188      2.713
REMARK  Name = 
REMARK  12 active torsions:
REMARK  status: ('A' for Active; 'I' for Inactive)
REMARK    1  A    between atoms: O_1  and  C_2
REMARK    2  A    between atoms: C_2  and  C_3
REMARK    3  A    between atoms: C_3  and  C_4
REMARK    4  A    between atoms: C_4  and  C_5
REMARK    5  A    between atoms: C_5  and  N_6
REMARK    6  A    between atoms: N_10  and  C_11
REMARK    7  A    between atoms: C_14  and  C_15
REMARK    8  A    between atoms: C_15  and  N_16
REMARK    9  A    between atoms: N_27  and  C_28
REMARK   10  A    between atoms: C_28  and  C_29
REMARK   11  A    between atoms: C_29  and  C_30
REMARK   12  A    between atoms: C_30  and  O_31
REMARK                            x       y       z     vdW  Elec       q    Type
REMARK                         _______ _______ _______ _____ _____    ______ ____
ROOT
ATOM      1  N   UNL     1       4.380   5.057  16.359  0.00  0.00    +0.000 N 
ATOM      2  C   UNL     1       3.777   5.856  17.329  0.00  0.00    +0.000 A 
ATOM      3  N   UNL     1       3.659   7.182  17.101  0.00  0.00    +0.000 NA
ATOM      4  C   UNL     1       2.944   7.962  17.966  0.00  0.00    +0.000 A 
ATOM      5  N   UNL     1       2.743   9.337  17.676  0.00  0.00    +0.000 N 
ATOM      6  C   UNL     1       2.426   7.349  19.112  0.00  0.00    +0.000 A 
ATOM      7  N   UNL     1       1.686   7.841  20.170  0.00  0.00    +0.000 NA
ATOM      8  C   UNL     1       1.449   6.810  20.931  0.00  0.00    +0.000 A 
ATOM      9  N   UNL     1       2.080   5.689  20.468  0.00  0.00    +0.000 N 
ATOM     10  C   UNL     1       2.673   5.995  19.270  0.00  0.00    +0.000 A 
ATOM     11  N   UNL     1       3.332   5.195  18.419  0.00  0.00    +0.000 NA
ATOM     12  H   UNL     1       4.659   4.191  16.804  0.00  0.00    +0.000 HD
ATOM     13  H   UNL     1       3.592   9.831  17.933  0.00  0.00    +0.000 HD
ENDROOT
BRANCH   5  14
ATOM     14  C   UNL     1       1.568  10.036  18.042  0.00  0.00    +0.000 A 
ATOM     15  C   UNL     1       0.293   9.516  17.802  0.00  0.00    +0.000 A 
ATOM     16  C   UNL     1      -0.855  10.196  18.252  0.00  0.00    +0.000 A 
ATOM     17  C   UNL     1      -0.746  11.397  18.972  0.00  0.00    +0.000 A 
ATOM     18  C   UNL     1       0.528  11.935  19.166  0.00  0.00    +0.000 A 
ATOM     19  C   UNL     1       1.661  11.248  18.743  0.00  0.00    +0.000 A 
BRANCH  17  20
ATOM     20  C   UNL     1      -1.943  12.147  19.508  0.00  0.00    +0.000 C 
BRANCH  20  21
ATOM     21  N   UNL     1      -1.809  12.898  20.760  0.00  0.00    +0.000 NA
ATOM     22  C   UNL     1      -0.992  12.316  21.831  0.00  0.00    +0.000 C 
ATOM     23  C   UNL     1      -1.757  11.437  22.839  0.00  0.00    +0.000 C 
ATOM     24  O   UNL     1      -2.940  12.072  23.339  0.00  0.00    +0.000 OA
ATOM     25  C   UNL     1      -3.786  12.551  22.289  0.00  0.00    +0.000 C 
ATOM     26  C   UNL     1      -3.036  13.467  21.316  0.00  0.00    +0.000 C 
ENDBRANCH  20  21
ENDBRANCH  17  20
ENDBRANCH   5  14
BRANCH   1  27
ATOM     27  C   UNL     1       5.390   5.716  15.543  0.00  0.00    +0.000 C 
BRANCH  27  28
ATOM     28  C   UNL     1       6.641   6.032  16.372  0.00  0.00    +0.000 C 
BRANCH  28  29
ATOM     29  C   UNL     1       7.240   4.829  17.112  0.00  0.00    +0.000 C 
BRANCH  29  30
ATOM     30  C   UNL     1       7.164   4.939  18.630  0.00  0.00    +0.000 C 
BRANCH  30  31
ATOM     31  O   UNL     1       6.149   4.071  19.119  0.00  0.00    +0.000 OA
ATOM     32  H   UNL     1       6.152   3.284  18.549  0.00  0.00    +0.000 HD
ENDBRANCH  30  31
ENDBRANCH  29  30
ENDBRANCH  28  29
ENDBRANCH  27  28
ENDBRANCH   1  27
BRANCH   9  33
ATOM     33  C   UNL     1       2.196   4.460  21.216  0.00  0.00    +0.000 C 
BRANCH  33  34
ATOM     34  C   UNL     1       1.213   3.377  20.801  0.00  0.00    +0.000 C 
BRANCH  34  35
ATOM     35  C   UNL     1       1.871   2.228  20.054  0.00  0.00    +0.000 C 
BRANCH  35  36
ATOM     36  O   UNL     1       3.277   2.444  20.020  0.00  0.00    +0.000 OA
ATOM     37  H   UNL     1       3.694   1.638  19.672  0.00  0.00    +0.000 HD
ENDBRANCH  35  36
ENDBRANCH  34  35
ENDBRANCH  33  34
ENDBRANCH   9  33
TORSDOF 12
ENDMDL
MODEL 4
REMARK VINA RESULT:      -6.4      2.954      9.668
REMARK  Name = 
REMARK  12 active torsions:
REMARK  status: ('A' for Active; 'I' for Inactive)
REMARK    1  A    between atoms: O_1  and  C_2
REMARK    2  A    between atoms: C_2  and  C_3
REMARK    3  A    between atoms: C_3  and  C_4
REMARK    4  A    between atoms: C_4  and  C_5
REMARK    5  A    between atoms: C_5  and  N_6
REMARK    6  A    between atoms: N_10  and  C_11
REMARK    7  A    between atoms: C_14  and  C_15
REMARK    8  A    between atoms: C_15  and  N_16
REMARK    9  A    between atoms: N_27  and  C_28
REMARK   10  A    between atoms: C_28  and  C_29
REMARK   11  A    between atoms: C_29  and  C_30
REMARK   12  A    between atoms: C_30  and  O_31
REMARK                            x       y       z     vdW  Elec       q    Type
REMARK                         _______ _______ _______ _____ _____    ______ ____
ROOT
ATOM      1  N   UNL     1      -3.099  14.300  21.261  0.00  0.00    +0.000 N 
ATOM      2  C   UNL     1      -2.676  13.313  20.372  0.00  0.00    +0.000 A 
ATOM      3  N   UNL     1      -1.354  13.060  20.258  0.00  0.00    +0.000 NA
ATOM      4  C   UNL     1      -0.924  12.004  19.506  0.00  0.00    +0.000 A 
ATOM      5  N   UNL     1       0.458  11.683  19.462  0.00  0.00    +0.000 N 
ATOM      6  C   UNL     1      -1.890  11.268  18.811  0.00  0.00    +0.000 A 
ATOM      7  N   UNL     1      -1.795  10.175  17.971  0.00  0.00    +0.000 NA
ATOM      8  C   UNL     1      -3.022   9.887  17.643  0.00  0.00    +0.000 A 
ATOM      9  N   UNL     1      -3.905  10.798  18.153  0.00  0.00    +0.000 N 
ATOM     10  C   UNL     1      -3.209  11.668  18.953  0.00  0.00    +0.000 A 
ATOM     11  N   UNL     1      -3.666  12.671  19.716  0.00  0.00    +0.000 NA
ATOM     12  H   UNL     1      -4.041  14.565  21.000  0.00  0.00    +0.000 HD
ATOM     13  H   UNL     1       0.901  12.326  18.813  0.00  0.00    +0.000 HD
ENDROOT
BRANCH   5  14
ATOM     14  C   UNL     1       0.938  10.357  19.337  0.00  0.00    +0.000 A 
ATOM     15  C   UNL     1       1.521   9.890  18.156  0.00  0.00    +0.000 A 
ATOM     16  C   UNL     1       2.063   8.593  18.088  0.00  0.00    +0.000 A 
ATOM     17  C   UNL     1       2.054   7.748  19.209  0.00  0.00    +0.000 A 
ATOM     18  C   UNL     1       1.427   8.203  20.371  0.00  0.00    +0.000 A 
ATOM     19  C   UNL     1       0.915   9.494  20.443  0.00  0.00    +0.000 A 
BRANCH  17  20
ATOM     20  C   UNL     1       2.654   6.361  19.201  0.00  0.00    +0.000 C 
BRANCH  20  21
ATOM     21  N   UNL     1       2.679   5.605  17.946  0.00  0.00    +0.000 NA
ATOM     22  C   UNL     1       1.755   4.474  17.802  0.00  0.00    +0.000 C 
ATOM     23  C   UNL     1       2.315   3.107  18.239  0.00  0.00    +0.000 C 
ATOM     24  O   UNL     1       3.605   2.833  17.676  0.00  0.00    +0.000 OA
ATOM     25  C   UNL     1       4.535   3.896  17.905  0.00  0.00    +0.000 C 
ATOM     26  C   UNL     1       3.996   5.248  17.423  0.00  0.00    +0.000 C 
ENDBRANCH  20  21
ENDBRANCH  17  20
ENDBRANCH   5  14
BRANCH   1  27
ATOM     27  C   UNL     1      -2.160  15.390  21.480  0.00  0.00    +0.000 C 
BRANCH  27  28
ATOM     28  C   UNL     1      -2.628  16.666  20.770  0.00  0.00    +0.000 C 
BRANCH  28  29
ATOM     29  C   UNL     1      -1.689  17.165  19.664  0.00  0.00    +0.000 C 
BRANCH  29  30
ATOM     30  C   UNL     1      -0.414  16.342  19.520  0.00  0.00    +0.000 C 
BRANCH  30  31
ATOM     31  O   UNL     1      -0.560  15.424  18.445  0.00  0.00    +0.000 OA
ATOM     32  H   UNL     1       0.245  15.494  17.903  0.00  0.00    +0.000 HD
ENDBRANCH  30  31
ENDBRANCH  29  30
ENDBRANCH  28  29
ENDBRANCH  27  28
ENDBRANCH   1  27
BRANCH   9  33
ATOM     33  C   UNL     1      -5.295  10.877  17.772  0.00  0.00    +0.000 C 
BRANCH  33  34
ATOM     34  C   UNL     1      -6.265  10.933  18.942  0.00  0.00    +0.000 C 
BRANCH  34  35
ATOM     35  C   UNL     1      -6.857   9.578  19.291  0.00  0.00    +0.000 C 
BRANCH  35  36
ATOM     36  O   UNL     1      -7.262   9.588  20.655  0.00  0.00    +0.000 OA
ATOM     37  H   UNL     1      -8.014   8.980  20.748  0.00  0.00    +0.000 HD
ENDBRANCH  35  36
ENDBRANCH  34  35
ENDBRANCH  33  34
ENDBRANCH   9  33
TORSDOF 12
ENDMDL
MODEL 5
REMARK VINA RESULT:      -6.3      2.385      3.055
REMARK  Name = 
REMARK  12 active torsions:
REMARK  status: ('A' for Active; 'I' for Inactive)
REMARK    1  A    between atoms: O_1  and  C_2
REMARK    2  A    between atoms: C_2  and  C_3
REMARK    3  A    between atoms: C_3  and  C_4
REMARK    4  A    between atoms: C_4  and  C_5
REMARK    5  A    between atoms: C_5  and  N_6
REMARK    6  A    between atoms: N_10  and  C_11
REMARK    7  A    between atoms: C_14  and  C_15
REMARK    8  A    between atoms: C_15  and  N_16
REMARK    9  A    between atoms: N_27  and  C_28
REMARK   10  A    between atoms: C_28  and  C_29
REMARK   11  A    between atoms: C_29  and  C_30
REMARK   12  A    between atoms: C_30  and  O_31
REMARK                            x       y       z     vdW  Elec       q    Type
REMARK                         _______ _______ _______ _____ _____    ______ ____
ROOT
ATOM      1  N   UNL     1       4.417   5.114  16.527  0.00  0.00    +0.000 N 
ATOM      2  C   UNL     1       3.780   5.881  17.501  0.00  0.00    +0.000 A 
ATOM      3  N   UNL     1       3.629   7.207  17.292  0.00  0.00    +0.000 NA
ATOM      4  C   UNL     1       2.883   7.954  18.159  0.00  0.00    +0.000 A 
ATOM      5  N   UNL     1       2.649   9.328  17.888  0.00  0.00    +0.000 N 
ATOM      6  C   UNL     1       2.367   7.310  19.289  0.00  0.00    +0.000 A 
ATOM      7  N   UNL     1       1.599   7.765  20.344  0.00  0.00    +0.000 NA
ATOM      8  C   UNL     1       1.381   6.717  21.086  0.00  0.00    +0.000 A 
ATOM      9  N   UNL     1       2.047   5.620  20.615  0.00  0.00    +0.000 N 
ATOM     10  C   UNL     1       2.647   5.961  19.429  0.00  0.00    +0.000 A 
ATOM     11  N   UNL     1       3.339   5.192  18.575  0.00  0.00    +0.000 NA
ATOM     12  H   UNL     1       4.712   4.249  16.963  0.00  0.00    +0.000 HD
ATOM     13  H   UNL     1       3.481   9.840  18.163  0.00  0.00    +0.000 HD
ENDROOT
BRANCH   5  14
ATOM     14  C   UNL     1       1.450   9.990  18.249  0.00  0.00    +0.000 A 
ATOM     15  C   UNL     1       0.201   9.555  17.800  0.00  0.00    +0.000 A 
ATOM     16  C   UNL     1      -0.979  10.183  18.242  0.00  0.00    +0.000 A 
ATOM     17  C   UNL     1      -0.930  11.243  19.162  0.00  0.00    +0.000 A 
ATOM     18  C   UNL     1       0.324  11.704  19.569  0.00  0.00    +0.000 A 
ATOM     19  C   UNL     1       1.486  11.065  19.150  0.00  0.00    +0.000 A 
BRANCH  17  20
ATOM     20  C   UNL     1      -2.167  11.928  19.696  0.00  0.00    +0.000 C 
BRANCH  20  21
ATOM     21  N   UNL     1      -2.022  12.935  20.750  0.00  0.00    +0.000 NA
ATOM     22  C   UNL     1      -1.782  12.471  22.122  0.00  0.00    +0.000 C 
ATOM     23  C   UNL     1      -3.047  12.256  22.974  0.00  0.00    +0.000 C 
ATOM     24  O   UNL     1      -3.943  13.374  22.925  0.00  0.00    +0.000 OA
ATOM     25  C   UNL     1      -4.255  13.763  21.584  0.00  0.00    +0.000 C 
ATOM     26  C   UNL     1      -2.995  14.026  20.751  0.00  0.00    +0.000 C 
ENDBRANCH  20  21
ENDBRANCH  17  20
ENDBRANCH   5  14
BRANCH   1  27
ATOM     27  C   UNL     1       5.419   5.812  15.736  0.00  0.00    +0.000 C 
BRANCH  27  28
ATOM     28  C   UNL     1       5.734   5.040  14.449  0.00  0.00    +0.000 C 
BRANCH  28  29
ATOM     29  C   UNL     1       7.213   4.675  14.267  0.00  0.00    +0.000 C 
BRANCH  29  30
ATOM     30  C   UNL     1       7.813   5.165  12.955  0.00  0.00    +0.000 C 
BRANCH  30  31
ATOM     31  O   UNL     1       8.900   6.040  13.227  0.00  0.00    +0.000 OA
ATOM     32  H   UNL     1       9.485   5.578  13.850  0.00  0.00    +0.000 HD
ENDBRANCH  30  31
ENDBRANCH  29  30
ENDBRANCH  28  29
ENDBRANCH  27  28
ENDBRANCH   1  27
BRANCH   9  33
ATOM     33  C   UNL     1       2.187   4.384  21.345  0.00  0.00    +0.000 C 
BRANCH  33  34
ATOM     34  C   UNL     1       1.200   3.299  20.938  0.00  0.00    +0.000 C 
BRANCH  34  35
ATOM     35  C   UNL     1       1.764   2.338  19.905  0.00  0.00    +0.000 C 
BRANCH  35  36
ATOM     36  O   UNL     1       1.371   2.770  18.608  0.00  0.00    +0.000 OA
ATOM     37  H   UNL     1       0.404   2.870  18.607  0.00  0.00    +0.000 HD
ENDBRANCH  35  36
ENDBRANCH  34  35
ENDBRANCH  33  34
ENDBRANCH   9  33
TORSDOF 12
ENDMDL
MODEL 6
REMARK VINA RESULT:      -6.3      2.292      2.817
REMARK  Name = 
REMARK  12 active torsions:
REMARK  status: ('A' for Active; 'I' for Inactive)
REMARK    1  A    between atoms: O_1  and  C_2
REMARK    2  A    between atoms: C_2  and  C_3
REMARK    3  A    between atoms: C_3  and  C_4
REMARK    4  A    between atoms: C_4  and  C_5
REMARK    5  A    between atoms: C_5  and  N_6
REMARK    6  A    between atoms: N_10  and  C_11
REMARK    7  A    between atoms: C_14  and  C_15
REMARK    8  A    between atoms: C_15  and  N_16
REMARK    9  A    between atoms: N_27  and  C_28
REMARK   10  A    between atoms: C_28  and  C_29
REMARK   11  A    between atoms: C_29  and  C_30
REMARK   12  A    between atoms: C_30  and  O_31
REMARK                            x       y       z     vdW  Elec       q    Type
REMARK                         _______ _______ _______ _____ _____    ______ ____
ROOT
ATOM      1  N   UNL     1       4.555   4.874  16.475  0.00  0.00    +0.000 N 
ATOM      2  C   UNL     1       3.925   5.688  17.414  0.00  0.00    +0.000 A 
ATOM      3  N   UNL     1       3.854   7.017  17.184  0.00  0.00    +0.000 NA
ATOM      4  C   UNL     1       3.118   7.816  18.013  0.00  0.00    +0.000 A 
ATOM      5  N   UNL     1       2.970   9.196  17.717  0.00  0.00    +0.000 N 
ATOM      6  C   UNL     1       2.526   7.217  19.130  0.00  0.00    +0.000 A 
ATOM      7  N   UNL     1       1.745   7.727  20.150  0.00  0.00    +0.000 NA
ATOM      8  C   UNL     1       1.442   6.703  20.895  0.00  0.00    +0.000 A 
ATOM      9  N   UNL     1       2.065   5.565  20.462  0.00  0.00    +0.000 N 
ATOM     10  C   UNL     1       2.727   5.856  19.296  0.00  0.00    +0.000 A 
ATOM     11  N   UNL     1       3.406   5.039  18.479  0.00  0.00    +0.000 NA
ATOM     12  H   UNL     1       4.786   4.000  16.932  0.00  0.00    +0.000 HD
ATOM     13  H   UNL     1       3.818   9.666  18.018  0.00  0.00    +0.000 HD
ENDROOT
BRANCH   5  14
ATOM     14  C   UNL     1       1.797   9.928  18.024  0.00  0.00    +0.000 A 
ATOM     15  C   UNL     1       0.520   9.403  17.806  0.00  0.00    +0.000 A 
ATOM     16  C   UNL     1      -0.626  10.120  18.198  0.00  0.00    +0.000 A 
ATOM     17  C   UNL     1      -0.514  11.364  18.838  0.00  0.00    +0.000 A 
ATOM     18  C   UNL     1       0.763  11.904  19.009  0.00  0.00    +0.000 A 
ATOM     19  C   UNL     1       1.894  11.182  18.644  0.00  0.00    +0.000 A 
BRANCH  17  20
ATOM     20  C   UNL     1      -1.710  12.158  19.311  0.00  0.00    +0.000 C 
BRANCH  20  21
ATOM     21  N   UNL     1      -2.216  11.939  20.668  0.00  0.00    +0.000 NA
ATOM     22  C   UNL     1      -3.306  12.798  21.146  0.00  0.00    +0.000 C 
ATOM     23  C   UNL     1      -2.862  14.074  21.886  0.00  0.00    +0.000 C 
ATOM     24  O   UNL     1      -1.887  13.811  22.904  0.00  0.00    +0.000 OA
ATOM     25  C   UNL     1      -0.775  13.058  22.410  0.00  0.00    +0.000 C 
ATOM     26  C   UNL     1      -1.216  11.763  21.720  0.00  0.00    +0.000 C 
ENDBRANCH  20  21
ENDBRANCH  17  20
ENDBRANCH   5  14
BRANCH   1  27
ATOM     27  C   UNL     1       5.622   5.505  15.714  0.00  0.00    +0.000 C 
BRANCH  27  28
ATOM     28  C   UNL     1       6.921   4.697  15.819  0.00  0.00    +0.000 C 
BRANCH  28  29
ATOM     29  C   UNL     1       7.451   4.519  17.248  0.00  0.00    +0.000 C 
BRANCH  29  30
ATOM     30  C   UNL     1       7.476   5.807  18.062  0.00  0.00    +0.000 C 
BRANCH  30  31
ATOM     31  O   UNL     1       7.534   5.493  19.447  0.00  0.00    +0.000 OA
ATOM     32  H   UNL     1       8.459   5.610  19.724  0.00  0.00    +0.000 HD
ENDBRANCH  30  31
ENDBRANCH  29  30
ENDBRANCH  28  29
ENDBRANCH  27  28
ENDBRANCH   1  27
BRANCH   9  33
ATOM     33  C   UNL     1       2.109   4.333  21.212  0.00  0.00    +0.000 C 
BRANCH  33  34
ATOM     34  C   UNL     1       1.023   3.334  20.843  0.00  0.00    +0.000 C 
BRANCH  34  35
ATOM     35  C   UNL     1       1.429   2.402  19.713  0.00  0.00    +0.000 C 
BRANCH  35  36
ATOM     36  O   UNL     1       0.351   2.295  18.791  0.00  0.00    +0.000 OA
ATOM     37  H   UNL     1       0.078   1.363  18.759  0.00  0.00    +0.000 HD
ENDBRANCH  35  36
ENDBRANCH  34  35
ENDBRANCH  33  34
ENDBRANCH   9  33
TORSDOF 12
ENDMDL
MODEL 7
REMARK VINA RESULT:      -6.2      1.700      2.078
REMARK  Name = 
REMARK  12 active torsions:
REMARK  status: ('A' for Active; 'I' for Inactive)
REMARK    1  A    between atoms: O_1  and  C_2
REMARK    2  A    between atoms: C_2  and  C_3
REMARK    3  A    between atoms: C_3  and  C_4
REMARK    4  A    between atoms: C_4  and  C_5
REMARK    5  A    between atoms: C_5  and  N_6
REMARK    6  A    between atoms: N_10  and  C_11
REMARK    7  A    between atoms: C_14  and  C_15
REMARK    8  A    between atoms: C_15  and  N_16
REMARK    9  A    between atoms: N_27  and  C_28
REMARK   10  A    between atoms: C_28  and  C_29
REMARK   11  A    between atoms: C_29  and  C_30
REMARK   12  A    between atoms: C_30  and  O_31
REMARK                            x       y       z     vdW  Elec       q    Type
REMARK                         _______ _______ _______ _____ _____    ______ ____
ROOT
ATOM      1  N   UNL     1       4.295   4.911  16.551  0.00  0.00    +0.000 N 
ATOM      2  C   UNL     1       3.710   5.737  17.509  0.00  0.00    +0.000 A 
ATOM      3  N   UNL     1       3.665   7.068  17.284  0.00  0.00    +0.000 NA
ATOM      4  C   UNL     1       2.970   7.881  18.134  0.00  0.00    +0.000 A 
ATOM      5  N   UNL     1       2.847   9.266  17.846  0.00  0.00    +0.000 N 
ATOM      6  C   UNL     1       2.393   7.293  19.265  0.00  0.00    +0.000 A 
ATOM      7  N   UNL     1       1.652   7.818  20.306  0.00  0.00    +0.000 NA
ATOM      8  C   UNL     1       1.345   6.799  21.057  0.00  0.00    +0.000 A 
ATOM      9  N   UNL     1       1.929   5.648  20.605  0.00  0.00    +0.000 N 
ATOM     10  C   UNL     1       2.566   5.927  19.423  0.00  0.00    +0.000 A 
ATOM     11  N   UNL     1       3.204   5.097  18.585  0.00  0.00    +0.000 NA
ATOM     12  H   UNL     1       4.518   4.031  16.999  0.00  0.00    +0.000 HD
ATOM     13  H   UNL     1       3.713   9.715  18.125  0.00  0.00    +0.000 HD
ENDROOT
BRANCH   5  14
ATOM     14  C   UNL     1       1.700  10.024  18.185  0.00  0.00    +0.000 A 
ATOM     15  C   UNL     1       1.797  11.281  18.787  0.00  0.00    +0.000 A 
ATOM     16  C   UNL     1       0.642  12.047  19.036  0.00  0.00    +0.000 A 
ATOM     17  C   UNL     1      -0.629  11.578  18.665  0.00  0.00    +0.000 A 
ATOM     18  C   UNL     1      -0.722  10.300  18.109  0.00  0.00    +0.000 A 
ATOM     19  C   UNL     1       0.423   9.557  17.840  0.00  0.00    +0.000 A 
BRANCH  17  20
ATOM     20  C   UNL     1      -1.895  12.374  18.878  0.00  0.00    +0.000 C 
BRANCH  20  21
ATOM     21  N   UNL     1      -2.738  12.073  20.038  0.00  0.00    +0.000 NA
ATOM     22  C   UNL     1      -4.177  12.337  19.934  0.00  0.00    +0.000 C 
ATOM     23  C   UNL     1      -4.625  13.735  20.403  0.00  0.00    +0.000 C 
ATOM     24  O   UNL     1      -4.098  14.081  21.690  0.00  0.00    +0.000 OA
ATOM     25  C   UNL     1      -2.678  13.918  21.758  0.00  0.00    +0.000 C 
ATOM     26  C   UNL     1      -2.239  12.510  21.341  0.00  0.00    +0.000 C 
ENDBRANCH  20  21
ENDBRANCH  17  20
ENDBRANCH   5  14
BRANCH   1  27
ATOM     27  C   UNL     1       5.357   5.520  15.763  0.00  0.00    +0.000 C 
BRANCH  27  28
ATOM     28  C   UNL     1       6.507   4.530  15.538  0.00  0.00    +0.000 C 
BRANCH  28  29
ATOM     29  C   UNL     1       7.596   4.558  16.618  0.00  0.00    +0.000 C 
BRANCH  29  30
ATOM     30  C   UNL     1       7.087   4.955  17.998  0.00  0.00    +0.000 C 
BRANCH  30  31
ATOM     31  O   UNL     1       6.330   3.886  18.550  0.00  0.00    +0.000 OA
ATOM     32  H   UNL     1       6.954   3.317  19.032  0.00  0.00    +0.000 HD
ENDBRANCH  30  31
ENDBRANCH  29  30
ENDBRANCH  28  29
ENDBRANCH  27  28
ENDBRANCH   1  27
BRANCH   9  33
ATOM     33  C   UNL     1       1.963   4.413  21.350  0.00  0.00    +0.000 C 
BRANCH  33  34
ATOM     34  C   UNL     1       1.039   3.330  20.814  0.00  0.00    +0.000 C 
BRANCH  34  35
ATOM     35  C   UNL     1       1.788   2.150  20.216  0.00  0.00    +0.000 C 
BRANCH  35  36
ATOM     36  O   UNL     1       1.845   2.308  18.803  0.00  0.00    +0.000 OA
ATOM     37  H   UNL     1       2.710   2.692  18.581  0.00  0.00    +0.000 HD
ENDBRANCH  35  36
ENDBRANCH  34  35
ENDBRANCH  33  34
ENDBRANCH   9  33
TORSDOF 12
ENDMDL
MODEL 8
REMARK VINA RESULT:      -6.1      2.358      2.816
REMARK  Name = 
REMARK  12 active torsions:
REMARK  status: ('A' for Active; 'I' for Inactive)
REMARK    1  A    between atoms: O_1  and  C_2
REMARK    2  A    between atoms: C_2  and  C_3
REMARK    3  A    between atoms: C_3  and  C_4
REMARK    4  A    between atoms: C_4  and  C_5
REMARK    5  A    between atoms: C_5  and  N_6
REMARK    6  A    between atoms: N_10  and  C_11
REMARK    7  A    between atoms: C_14  and  C_15
REMARK    8  A    between atoms: C_15  and  N_16
REMARK    9  A    between atoms: N_27  and  C_28
REMARK   10  A    between atoms: C_28  and  C_29
REMARK   11  A    between atoms: C_29  and  C_30
REMARK   12  A    between atoms: C_30  and  O_31
REMARK                            x       y       z     vdW  Elec       q    Type
REMARK                         _______ _______ _______ _____ _____    ______ ____
ROOT
ATOM      1  N   UNL     1       4.861   4.785  16.181  0.00  0.00    +0.000 N 
ATOM      2  C   UNL     1       4.174   5.382  17.237  0.00  0.00    +0.000 A 
ATOM      3  N   UNL     1       3.962   6.715  17.207  0.00  0.00    +0.000 NA
ATOM      4  C   UNL     1       3.168   7.302  18.151  0.00  0.00    +0.000 A 
ATOM      5  N   UNL     1       2.872   8.687  18.065  0.00  0.00    +0.000 N 
ATOM      6  C   UNL     1       2.668   6.487  19.172  0.00  0.00    +0.000 A 
ATOM      7  N   UNL     1       1.864   6.757  20.263  0.00  0.00    +0.000 NA
ATOM      8  C   UNL     1       1.686   5.609  20.852  0.00  0.00    +0.000 A 
ATOM      9  N   UNL     1       2.411   4.618  20.249  0.00  0.00    +0.000 N 
ATOM     10  C   UNL     1       3.011   5.145  19.133  0.00  0.00    +0.000 A 
ATOM     11  N   UNL     1       3.751   4.533  18.198  0.00  0.00    +0.000 NA
ATOM     12  H   UNL     1       5.192   3.882  16.502  0.00  0.00    +0.000 HD
ATOM     13  H   UNL     1       3.674   9.195  18.424  0.00  0.00    +0.000 HD
ENDROOT
BRANCH   5  14
ATOM     14  C   UNL     1       1.638   9.238  18.487  0.00  0.00    +0.000 A 
ATOM     15  C   UNL     1       1.427   9.658  19.803  0.00  0.00    +0.000 A 
ATOM     16  C   UNL     1       0.219  10.278  20.173  0.00  0.00    +0.000 A 
ATOM     17  C   UNL     1      -0.790  10.513  19.226  0.00  0.00    +0.000 A 
ATOM     18  C   UNL     1      -0.592  10.048  17.924  0.00  0.00    +0.000 A 
ATOM     19  C   UNL     1       0.612   9.459  17.555  0.00  0.00    +0.000 A 
BRANCH  17  20
ATOM     20  C   UNL     1      -2.090  11.207  19.562  0.00  0.00    +0.000 C 
BRANCH  20  21
ATOM     21  N   UNL     1      -2.071  12.637  19.881  0.00  0.00    +0.000 NA
ATOM     22  C   UNL     1      -1.019  13.465  19.281  0.00  0.00    +0.000 C 
ATOM     23  C   UNL     1       0.264  13.610  20.121  0.00  0.00    +0.000 C 
ATOM     24  O   UNL     1      -0.005  13.971  21.482  0.00  0.00    +0.000 OA
ATOM     25  C   UNL     1      -0.959  13.099  22.097  0.00  0.00    +0.000 C 
ATOM     26  C   UNL     1      -2.255  12.997  21.286  0.00  0.00    +0.000 C 
ENDBRANCH  20  21
ENDBRANCH  17  20
ENDBRANCH   5  14
BRANCH   1  27
ATOM     27  C   UNL     1       5.839   5.630  15.513  0.00  0.00    +0.000 C 
BRANCH  27  28
ATOM     28  C   UNL     1       7.078   5.834  16.394  0.00  0.00    +0.000 C 
BRANCH  28  29
ATOM     29  C   UNL     1       7.309   4.736  17.439  0.00  0.00    +0.000 C 
BRANCH  29  30
ATOM     30  C   UNL     1       7.664   5.266  18.823  0.00  0.00    +0.000 C 
BRANCH  30  31
ATOM     31  O   UNL     1       6.542   5.132  19.685  0.00  0.00    +0.000 OA
ATOM     32  H   UNL     1       6.440   4.183  19.870  0.00  0.00    +0.000 HD
ENDBRANCH  30  31
ENDBRANCH  29  30
ENDBRANCH  28  29
ENDBRANCH  27  28
ENDBRANCH   1  27
BRANCH   9  33
ATOM     33  C   UNL     1       2.600   3.301  20.808  0.00  0.00    +0.000 C 
BRANCH  33  34
ATOM     34  C   UNL     1       1.442   2.344  20.565  0.00  0.00    +0.000 C 
BRANCH  34  35
ATOM     35  C   UNL     1       1.102   2.181  19.093  0.00  0.00    +0.000 C 
BRANCH  35  36
ATOM     36  O   UNL     1       2.246   1.688  18.406  0.00  0.00    +0.000 OA
ATOM     37  H   UNL     1       1.972   1.447  17.505  0.00  0.00    +0.000 HD
ENDBRANCH  35  36
ENDBRANCH  34  35
ENDBRANCH  33  34
ENDBRANCH   9  33
TORSDOF 12
ENDMDL
MODEL 9
REMARK VINA RESULT:      -6.1      2.974      9.828
REMARK  Name = 
REMARK  12 active torsions:
REMARK  status: ('A' for Active; 'I' for Inactive)
REMARK    1  A    between atoms: O_1  and  C_2
REMARK    2  A    between atoms: C_2  and  C_3
REMARK    3  A    between atoms: C_3  and  C_4
REMARK    4  A    between atoms: C_4  and  C_5
REMARK    5  A    between atoms: C_5  and  N_6
REMARK    6  A    between atoms: N_10  and  C_11
REMARK    7  A    between atoms: C_14  and  C_15
REMARK    8  A    between atoms: C_15  and  N_16
REMARK    9  A    between atoms: N_27  and  C_28
REMARK   10  A    between atoms: C_28  and  C_29
REMARK   11  A    between atoms: C_29  and  C_30
REMARK   12  A    between atoms: C_30  and  O_31
REMARK                            x       y       z     vdW  Elec       q    Type
REMARK                         _______ _______ _______ _____ _____    ______ ____
ROOT
ATOM      1  N   UNL     1      -2.863  13.867  21.069  0.00  0.00    +0.000 N 
ATOM      2  C   UNL     1      -2.388  12.952  20.131  0.00  0.00    +0.000 A 
ATOM      3  N   UNL     1      -1.062  12.698  20.079  0.00  0.00    +0.000 NA
ATOM      4  C   UNL     1      -0.589  11.703  19.273  0.00  0.00    +0.000 A 
ATOM      5  N   UNL     1       0.792  11.377  19.289  0.00  0.00    +0.000 N 
ATOM      6  C   UNL     1      -1.512  11.032  18.462  0.00  0.00    +0.000 A 
ATOM      7  N   UNL     1      -1.367  10.008  17.546  0.00  0.00    +0.000 NA
ATOM      8  C   UNL     1      -2.572   9.756  17.120  0.00  0.00    +0.000 A 
ATOM      9  N   UNL     1      -3.484  10.630  17.646  0.00  0.00    +0.000 N 
ATOM     10  C   UNL     1      -2.836  11.429  18.554  0.00  0.00    +0.000 A 
ATOM     11  N   UNL     1      -3.337  12.371  19.366  0.00  0.00    +0.000 NA
ATOM     12  H   UNL     1      -3.787  14.159  20.772  0.00  0.00    +0.000 HD
ATOM     13  H   UNL     1       1.276  12.066  18.721  0.00  0.00    +0.000 HD
ENDROOT
BRANCH   5  14
ATOM     14  C   UNL     1       1.276  10.061  19.087  0.00  0.00    +0.000 A 
ATOM     15  C   UNL     1       1.915   9.682  17.904  0.00  0.00    +0.000 A 
ATOM     16  C   UNL     1       2.458   8.390  17.766  0.00  0.00    +0.000 A 
ATOM     17  C   UNL     1       2.394   7.464  18.818  0.00  0.00    +0.000 A 
ATOM     18  C   UNL     1       1.712   7.834  19.979  0.00  0.00    +0.000 A 
ATOM     19  C   UNL     1       1.198   9.119  20.123  0.00  0.00    +0.000 A 
BRANCH  17  20
ATOM     20  C   UNL     1       2.992   6.079  18.735  0.00  0.00    +0.000 C 
BRANCH  20  21
ATOM     21  N   UNL     1       2.155   4.922  19.064  0.00  0.00    +0.000 NA
ATOM     22  C   UNL     1       2.603   4.027  20.136  0.00  0.00    +0.000 C 
ATOM     23  C   UNL     1       3.470   2.837  19.681  0.00  0.00    +0.000 C 
ATOM     24  O   UNL     1       2.894   2.124  18.579  0.00  0.00    +0.000 OA
ATOM     25  C   UNL     1       2.548   2.988  17.492  0.00  0.00    +0.000 C 
ATOM     26  C   UNL     1       1.643   4.142  17.938  0.00  0.00    +0.000 C 
ENDBRANCH  20  21
ENDBRANCH  17  20
ENDBRANCH   5  14
BRANCH   1  27
ATOM     27  C   UNL     1      -1.937  14.929  21.432  0.00  0.00    +0.000 C 
BRANCH  27  28
ATOM     28  C   UNL     1      -1.875  15.104  22.954  0.00  0.00    +0.000 C 
BRANCH  28  29
ATOM     29  C   UNL     1      -2.198  13.838  23.758  0.00  0.00    +0.000 C 
BRANCH  29  30
ATOM     30  C   UNL     1      -3.536  13.893  24.485  0.00  0.00    +0.000 C 
BRANCH  30  31
ATOM     31  O   UNL     1      -3.588  15.060  25.295  0.00  0.00    +0.000 OA
ATOM     32  H   UNL     1      -4.263  15.644  24.906  0.00  0.00    +0.000 HD
ENDBRANCH  30  31
ENDBRANCH  29  30
ENDBRANCH  28  29
ENDBRANCH  27  28
ENDBRANCH   1  27
BRANCH   9  33
ATOM     33  C   UNL     1      -4.847  10.749  17.188  0.00  0.00    +0.000 C 
BRANCH  33  34
ATOM     34  C   UNL     1      -5.478  12.110  17.442  0.00  0.00    +0.000 C 
BRANCH  34  35
ATOM     35  C   UNL     1      -6.815  12.022  18.159  0.00  0.00    +0.000 C 
BRANCH  35  36
ATOM     36  O   UNL     1      -7.120  10.654  18.403  0.00  0.00    +0.000 OA
ATOM     37  H   UNL     1      -7.085  10.184  17.553  0.00  0.00    +0.000 HD
ENDBRANCH  35  36
ENDBRANCH  34  35
ENDBRANCH  33  34
ENDBRANCH   9  33
TORSDOF 12
ENDMDL
