MODEL 1
REMARK VINA RESULT:      -7.3      0.000      0.000
REMARK  Name = 
REMARK  5 active torsions:
REMARK  status: ('A' for Active; 'I' for Inactive)
REMARK    1  A    between atoms: C_1  and  C_2
REMARK    2  A    between atoms: C_2  and  C_3
REMARK    3  A    between atoms: C_3  and  O_4
REMARK    4  A    between atoms: C_3  and  C_12
REMARK    5  A    between atoms: O_4  and  C_5
REMARK                            x       y       z     vdW  Elec       q    Type
REMARK                         _______ _______ _______ _____ _____    ______ ____
ROOT
ATOM      1  C   UNL     1       3.158   6.506  18.487  0.00  0.00    +0.000 C 
ENDROOT
BRANCH   1   2
ATOM      2  C   UNL     1       2.258   5.606  19.414  0.00  0.00    +0.000 C 
ATOM      3  O   UNL     1       1.836   6.057  20.470  0.00  0.00    +0.000 OA
ATOM      4  N   UNL     1       1.832   4.343  18.997  0.00  0.00    +0.000 N 
ATOM      5  C   UNL     1       0.840   3.669  19.842  0.00  0.00    +0.000 C 
ATOM      6  C   UNL     1       1.351   2.519  20.717  0.00  0.00    +0.000 C 
ATOM      7  C   UNL     1       2.670   2.770  21.443  0.00  0.00    +0.000 C 
ATOM      8  C   UNL     1       3.893   2.161  20.753  0.00  0.00    +0.000 C 
ATOM      9  C   UNL     1       4.280   2.761  19.399  0.00  0.00    +0.000 C 
ATOM     10  C   UNL     1       3.302   2.459  18.259  0.00  0.00    +0.000 C 
ATOM     11  C   UNL     1       2.374   3.609  17.870  0.00  0.00    +0.000 C 
ENDBRANCH   1   2
BRANCH   1  13
ATOM     12  C   UNL     1       1.749   8.515  17.606  0.00  0.00    +0.000 C 
ATOM     13  C   UNL     1       2.717   7.988  18.670  0.00  0.00    +0.000 C 
ENDBRANCH   1  13
BRANCH   1  14
ATOM     14  O   UNL     1       4.587   6.398  18.674  0.00  0.00    +0.000 OA
BRANCH  14  15
ATOM     15  C   UNL     1       5.302   5.888  17.611  0.00  0.00    +0.000 A 
ATOM     16  C   UNL     1       4.860   6.161  16.299  0.00  0.00    +0.000 A 
ATOM     17  C   UNL     1       5.484   5.534  15.206  0.00  0.00    +0.000 A 
ATOM     18  C   UNL     1       6.593   4.731  15.408  0.00  0.00    +0.000 A 
ATOM     19  F   UNL     1       7.181   4.120  14.376  0.00  0.00    +0.000 F 
ATOM     20  C   UNL     1       7.112   4.559  16.689  0.00  0.00    +0.000 A 
ATOM     21  C   UNL     1       6.460   5.129  17.767  0.00  0.00    +0.000 A 
ENDBRANCH  14  15
ENDBRANCH   1  14
TORSDOF 4
ENDMDL
MODEL 2
REMARK VINA RESULT:      -7.1      0.533      1.153
REMARK  Name = 
REMARK  5 active torsions:
REMARK  status: ('A' for Active; 'I' for Inactive)
REMARK    1  A    between atoms: C_1  and  C_2
REMARK    2  A    between atoms: C_2  and  C_3
REMARK    3  A    between atoms: C_3  and  O_4
REMARK    4  A    between atoms: C_3  and  C_12
REMARK    5  A    between atoms: O_4  and  C_5
REMARK                            x       y       z     vdW  Elec       q    Type
REMARK                         _______ _______ _______ _____ _____    ______ ____
ROOT
ATOM      1  C   UNL     1       2.787   6.628  18.634  0.00  0.00    +0.000 C 
ENDROOT
BRANCH   1   2
ATOM      2  C   UNL     1       2.100   5.617  19.628  0.00  0.00    +0.000 C 
ATOM      3  O   UNL     1       1.877   5.959  20.781  0.00  0.00    +0.000 OA
ATOM      4  N   UNL     1       1.630   4.380  19.184  0.00  0.00    +0.000 N 
ATOM      5  C   UNL     1       0.832   3.597  20.134  0.00  0.00    +0.000 C 
ATOM      6  C   UNL     1       1.525   2.397  20.788  0.00  0.00    +0.000 C 
ATOM      7  C   UNL     1       2.952   2.635  21.274  0.00  0.00    +0.000 C 
ATOM      8  C   UNL     1       4.034   2.136  20.314  0.00  0.00    +0.000 C 
ATOM      9  C   UNL     1       4.144   2.865  18.972  0.00  0.00    +0.000 C 
ATOM     10  C   UNL     1       2.974   2.624  18.013  0.00  0.00    +0.000 C 
ATOM     11  C   UNL     1       1.963   3.766  17.912  0.00  0.00    +0.000 C 
ENDBRANCH   1   2
BRANCH   1  13
ATOM     12  C   UNL     1       2.326   8.983  17.616  0.00  0.00    +0.000 C 
ATOM     13  C   UNL     1       2.070   8.004  18.766  0.00  0.00    +0.000 C 
ENDBRANCH   1  13
BRANCH   1  14
ATOM     14  O   UNL     1       4.213   6.808  18.782  0.00  0.00    +0.000 OA
BRANCH  14  15
ATOM     15  C   UNL     1       5.006   6.163  17.858  0.00  0.00    +0.000 A 
ATOM     16  C   UNL     1       6.263   5.668  18.266  0.00  0.00    +0.000 A 
ATOM     17  C   UNL     1       7.150   5.138  17.312  0.00  0.00    +0.000 A 
ATOM     18  C   UNL     1       6.752   5.008  15.994  0.00  0.00    +0.000 A 
ATOM     19  F   UNL     1       7.595   4.519  15.079  0.00  0.00    +0.000 F 
ATOM     20  C   UNL     1       5.466   5.377  15.608  0.00  0.00    +0.000 A 
ATOM     21  C   UNL     1       4.618   5.953  16.537  0.00  0.00    +0.000 A 
ENDBRANCH  14  15
ENDBRANCH   1  14
TORSDOF 4
ENDMDL
MODEL 3
REMARK VINA RESULT:      -7.1      1.746      2.139
REMARK  Name = 
REMARK  5 active torsions:
REMARK  status: ('A' for Active; 'I' for Inactive)
REMARK    1  A    between atoms: C_1  and  C_2
REMARK    2  A    between atoms: C_2  and  C_3
REMARK    3  A    between atoms: C_3  and  O_4
REMARK    4  A    between atoms: C_3  and  C_12
REMARK    5  A    between atoms: O_4  and  C_5
REMARK                            x       y       z     vdW  Elec       q    Type
REMARK                         _______ _______ _______ _____ _____    ______ ____
ROOT
ATOM      1  C   UNL     1       2.824   6.124  17.711  0.00  0.00    +0.000 C 
ENDROOT
BRANCH   1   2
ATOM      2  C   UNL     1       2.322   5.511  19.072  0.00  0.00    +0.000 C 
ATOM      3  O   UNL     1       2.518   6.115  20.117  0.00  0.00    +0.000 OA
ATOM      4  N   UNL     1       1.549   4.349  19.096  0.00  0.00    +0.000 N 
ATOM      5  C   UNL     1       0.966   3.969  20.387  0.00  0.00    +0.000 C 
ATOM      6  C   UNL     1       1.625   2.798  21.122  0.00  0.00    +0.000 C 
ATOM      7  C   UNL     1       3.152   2.800  21.143  0.00  0.00    +0.000 C 
ATOM      8  C   UNL     1       3.796   1.890  20.094  0.00  0.00    +0.000 C 
ATOM      9  C   UNL     1       3.605   2.295  18.630  0.00  0.00    +0.000 C 
ATOM     10  C   UNL     1       2.175   2.139  18.103  0.00  0.00    +0.000 C 
ATOM     11  C   UNL     1       1.376   3.437  17.980  0.00  0.00    +0.000 C 
ENDBRANCH   1   2
BRANCH   1  13
ATOM     12  C   UNL     1       2.025   8.605  17.782  0.00  0.00    +0.000 C 
ATOM     13  C   UNL     1       3.186   7.619  17.954  0.00  0.00    +0.000 C 
ENDBRANCH   1  13
BRANCH   1  14
ATOM     14  O   UNL     1       3.934   5.454  17.073  0.00  0.00    +0.000 OA
BRANCH  14  15
ATOM     15  C   UNL     1       5.192   5.825  17.497  0.00  0.00    +0.000 A 
ATOM     16  C   UNL     1       5.740   5.197  18.636  0.00  0.00    +0.000 A 
ATOM     17  C   UNL     1       6.955   5.659  19.174  0.00  0.00    +0.000 A 
ATOM     18  C   UNL     1       7.662   6.658  18.529  0.00  0.00    +0.000 A 
ATOM     19  F   UNL     1       8.809   7.113  19.042  0.00  0.00    +0.000 F 
ATOM     20  C   UNL     1       7.190   7.195  17.333  0.00  0.00    +0.000 A 
ATOM     21  C   UNL     1       5.966   6.780  16.841  0.00  0.00    +0.000 A 
ENDBRANCH  14  15
ENDBRANCH   1  14
TORSDOF 4
ENDMDL
MODEL 4
REMARK VINA RESULT:      -7.1      2.711      5.353
REMARK  Name = 
REMARK  5 active torsions:
REMARK  status: ('A' for Active; 'I' for Inactive)
REMARK    1  A    between atoms: C_1  and  C_2
REMARK    2  A    between atoms: C_2  and  C_3
REMARK    3  A    between atoms: C_3  and  O_4
REMARK    4  A    between atoms: C_3  and  C_12
REMARK    5  A    between atoms: O_4  and  C_5
REMARK                            x       y       z     vdW  Elec       q    Type
REMARK                         _______ _______ _______ _____ _____    ______ ____
ROOT
ATOM      1  C   UNL     1       2.792   6.922  18.185  0.00  0.00    +0.000 C 
ENDROOT
BRANCH   1   2
ATOM      2  C   UNL     1       4.142   6.999  17.379  0.00  0.00    +0.000 C 
ATOM      3  O   UNL     1       4.220   7.724  16.396  0.00  0.00    +0.000 OA
ATOM      4  N   UNL     1       5.291   6.349  17.834  0.00  0.00    +0.000 N 
ATOM      5  C   UNL     1       6.541   6.642  17.125  0.00  0.00    +0.000 C 
ATOM      6  C   UNL     1       7.062   5.559  16.175  0.00  0.00    +0.000 C 
ATOM      7  C   UNL     1       6.016   4.901  15.278  0.00  0.00    +0.000 C 
ATOM      8  C   UNL     1       5.515   3.547  15.787  0.00  0.00    +0.000 C 
ATOM      9  C   UNL     1       4.699   3.566  17.082  0.00  0.00    +0.000 C 
ATOM     10  C   UNL     1       5.503   3.908  18.341  0.00  0.00    +0.000 C 
ATOM     11  C   UNL     1       5.321   5.331  18.868  0.00  0.00    +0.000 C 
ENDBRANCH   1   2
BRANCH   1  13
ATOM     12  C   UNL     1       1.498   8.928  19.233  0.00  0.00    +0.000 C 
ATOM     13  C   UNL     1       2.012   8.251  17.958  0.00  0.00    +0.000 C 
ENDBRANCH   1  13
BRANCH   1  14
ATOM     14  O   UNL     1       1.931   5.798  17.895  0.00  0.00    +0.000 OA
BRANCH  14  15
ATOM     15  C   UNL     1       1.770   4.878  18.908  0.00  0.00    +0.000 A 
ATOM     16  C   UNL     1       2.044   5.272  20.236  0.00  0.00    +0.000 A 
ATOM     17  C   UNL     1       2.029   4.316  21.267  0.00  0.00    +0.000 A 
ATOM     18  C   UNL     1       1.646   3.014  20.998  0.00  0.00    +0.000 A 
ATOM     19  F   UNL     1       1.644   2.096  21.969  0.00  0.00    +0.000 F 
ATOM     20  C   UNL     1       1.252   2.647  19.713  0.00  0.00    +0.000 A 
ATOM     21  C   UNL     1       1.325   3.576  18.691  0.00  0.00    +0.000 A 
ENDBRANCH  14  15
ENDBRANCH   1  14
TORSDOF 4
ENDMDL
MODEL 5
REMARK VINA RESULT:      -7.1      2.795      5.384
REMARK  Name = 
REMARK  5 active torsions:
REMARK  status: ('A' for Active; 'I' for Inactive)
REMARK    1  A    between atoms: C_1  and  C_2
REMARK    2  A    between atoms: C_2  and  C_3
REMARK    3  A    between atoms: C_3  and  O_4
REMARK    4  A    between atoms: C_3  and  C_12
REMARK    5  A    between atoms: O_4  and  C_5
REMARK                            x       y       z     vdW  Elec       q    Type
REMARK                         _______ _______ _______ _____ _____    ______ ____
ROOT
ATOM      1  C   UNL     1       2.804   6.950  18.193  0.00  0.00    +0.000 C 
ENDROOT
BRANCH   1   2
ATOM      2  C   UNL     1       4.145   7.041  17.373  0.00  0.00    +0.000 C 
ATOM      3  O   UNL     1       4.205   7.764  16.388  0.00  0.00    +0.000 OA
ATOM      4  N   UNL     1       5.306   6.407  17.820  0.00  0.00    +0.000 N 
ATOM      5  C   UNL     1       6.546   6.713  17.098  0.00  0.00    +0.000 C 
ATOM      6  C   UNL     1       7.071   5.634  16.146  0.00  0.00    +0.000 C 
ATOM      7  C   UNL     1       6.025   4.961  15.260  0.00  0.00    +0.000 C 
ATOM      8  C   UNL     1       5.545   3.603  15.778  0.00  0.00    +0.000 C 
ATOM      9  C   UNL     1       4.742   3.615  17.081  0.00  0.00    +0.000 C 
ATOM     10  C   UNL     1       5.552   3.970  18.331  0.00  0.00    +0.000 C 
ATOM     11  C   UNL     1       5.358   5.392  18.856  0.00  0.00    +0.000 C 
ENDBRANCH   1   2
BRANCH   1  13
ATOM     12  C   UNL     1       1.512   8.989  19.179  0.00  0.00    +0.000 C 
ATOM     13  C   UNL     1       1.979   8.243  17.924  0.00  0.00    +0.000 C 
ENDBRANCH   1  13
BRANCH   1  14
ATOM     14  O   UNL     1       1.978   5.789  17.950  0.00  0.00    +0.000 OA
BRANCH  14  15
ATOM     15  C   UNL     1       1.862   4.897  18.995  0.00  0.00    +0.000 A 
ATOM     16  C   UNL     1       1.336   3.612  18.738  0.00  0.00    +0.000 A 
ATOM     17  C   UNL     1       1.071   2.738  19.807  0.00  0.00    +0.000 A 
ATOM     18  C   UNL     1       1.420   3.096  21.097  0.00  0.00    +0.000 A 
ATOM     19  F   UNL     1       1.158   2.277  22.120  0.00  0.00    +0.000 F 
ATOM     20  C   UNL     1       2.056   4.311  21.342  0.00  0.00    +0.000 A 
ATOM     21  C   UNL     1       2.260   5.193  20.296  0.00  0.00    +0.000 A 
ENDBRANCH  14  15
ENDBRANCH   1  14
TORSDOF 4
ENDMDL
MODEL 6
REMARK VINA RESULT:      -7.1      1.929      3.118
REMARK  Name = 
REMARK  5 active torsions:
REMARK  status: ('A' for Active; 'I' for Inactive)
REMARK    1  A    between atoms: C_1  and  C_2
REMARK    2  A    between atoms: C_2  and  C_3
REMARK    3  A    between atoms: C_3  and  O_4
REMARK    4  A    between atoms: C_3  and  C_12
REMARK    5  A    between atoms: O_4  and  C_5
REMARK                            x       y       z     vdW  Elec       q    Type
REMARK                         _______ _______ _______ _____ _____    ______ ____
ROOT
ATOM      1  C   UNL     1       5.505   5.422  17.216  0.00  0.00    +0.000 C 
ENDROOT
BRANCH   1   2
ATOM      2  C   UNL     1       4.934   4.983  18.615  0.00  0.00    +0.000 C 
ATOM      3  O   UNL     1       5.693   4.552  19.472  0.00  0.00    +0.000 OA
ATOM      4  N   UNL     1       3.591   5.190  18.941  0.00  0.00    +0.000 N 
ATOM      5  C   UNL     1       3.202   4.931  20.332  0.00  0.00    +0.000 C 
ATOM      6  C   UNL     1       2.419   3.640  20.597  0.00  0.00    +0.000 C 
ATOM      7  C   UNL     1       2.936   2.391  19.887  0.00  0.00    +0.000 C 
ATOM      8  C   UNL     1       2.171   2.033  18.611  0.00  0.00    +0.000 C 
ATOM      9  C   UNL     1       2.305   3.010  17.440  0.00  0.00    +0.000 C 
ATOM     10  C   UNL     1       1.615   4.361  17.650  0.00  0.00    +0.000 C 
ATOM     11  C   UNL     1       2.544   5.526  17.995  0.00  0.00    +0.000 C 
ENDBRANCH   1   2
BRANCH   1  13
ATOM     12  C   UNL     1       7.396   7.146  17.721  0.00  0.00    +0.000 C 
ATOM     13  C   UNL     1       5.937   6.916  17.313  0.00  0.00    +0.000 C 
ENDBRANCH   1  13
BRANCH   1  14
ATOM     14  O   UNL     1       6.598   4.636  16.690  0.00  0.00    +0.000 OA
BRANCH  14  15
ATOM     15  C   UNL     1       6.686   4.561  15.316  0.00  0.00    +0.000 A 
ATOM     16  C   UNL     1       5.750   3.771  14.615  0.00  0.00    +0.000 A 
ATOM     17  C   UNL     1       5.907   3.561  13.234  0.00  0.00    +0.000 A 
ATOM     18  C   UNL     1       6.916   4.210  12.545  0.00  0.00    +0.000 A 
ATOM     19  F   UNL     1       7.080   4.004  11.235  0.00  0.00    +0.000 F 
ATOM     20  C   UNL     1       7.766   5.092  13.208  0.00  0.00    +0.000 A 
ATOM     21  C   UNL     1       7.646   5.249  14.577  0.00  0.00    +0.000 A 
ENDBRANCH  14  15
ENDBRANCH   1  14
TORSDOF 4
ENDMDL
MODEL 7
REMARK VINA RESULT:      -7.0      0.805      1.209
REMARK  Name = 
REMARK  5 active torsions:
REMARK  status: ('A' for Active; 'I' for Inactive)
REMARK    1  A    between atoms: C_1  and  C_2
REMARK    2  A    between atoms: C_2  and  C_3
REMARK    3  A    between atoms: C_3  and  O_4
REMARK    4  A    between atoms: C_3  and  C_12
REMARK    5  A    between atoms: O_4  and  C_5
REMARK                            x       y       z     vdW  Elec       q    Type
REMARK                         _______ _______ _______ _____ _____    ______ ____
ROOT
ATOM      1  C   UNL     1       3.196   6.230  18.110  0.00  0.00    +0.000 C 
ENDROOT
BRANCH   1   2
ATOM      2  C   UNL     1       2.330   5.595  19.262  0.00  0.00    +0.000 C 
ATOM      3  O   UNL     1       2.138   6.224  20.293  0.00  0.00    +0.000 OA
ATOM      4  N   UNL     1       1.673   4.376  19.080  0.00  0.00    +0.000 N 
ATOM      5  C   UNL     1       0.736   3.967  20.132  0.00  0.00    +0.000 C 
ATOM      6  C   UNL     1       1.208   2.859  21.079  0.00  0.00    +0.000 C 
ATOM      7  C   UNL     1       2.644   2.981  21.585  0.00  0.00    +0.000 C 
ATOM      8  C   UNL     1       3.651   2.112  20.828  0.00  0.00    +0.000 C 
ATOM      9  C   UNL     1       3.910   2.485  19.366  0.00  0.00    +0.000 C 
ATOM     10  C   UNL     1       2.739   2.211  18.417  0.00  0.00    +0.000 C 
ATOM     11  C   UNL     1       1.931   3.441  18.001  0.00  0.00    +0.000 C 
ENDBRANCH   1   2
BRANCH   1  13
ATOM     12  C   UNL     1       1.794   8.388  17.687  0.00  0.00    +0.000 C 
ATOM     13  C   UNL     1       3.095   7.780  18.223  0.00  0.00    +0.000 C 
ENDBRANCH   1  13
BRANCH   1  14
ATOM     14  O   UNL     1       4.585   5.837  18.057  0.00  0.00    +0.000 OA
BRANCH  14  15
ATOM     15  C   UNL     1       5.042   5.384  16.838  0.00  0.00    +0.000 A 
ATOM     16  C   UNL     1       5.381   4.021  16.701  0.00  0.00    +0.000 A 
ATOM     17  C   UNL     1       5.986   3.565  15.516  0.00  0.00    +0.000 A 
ATOM     18  C   UNL     1       6.155   4.429  14.449  0.00  0.00    +0.000 A 
ATOM     19  F   UNL     1       6.743   4.008  13.325  0.00  0.00    +0.000 F 
ATOM     20  C   UNL     1       5.707   5.746  14.532  0.00  0.00    +0.000 A 
ATOM     21  C   UNL     1       5.167   6.205  15.720  0.00  0.00    +0.000 A 
ENDBRANCH  14  15
ENDBRANCH   1  14
TORSDOF 4
ENDMDL
MODEL 8
REMARK VINA RESULT:      -7.0      2.940      5.780
REMARK  Name = 
REMARK  5 active torsions:
REMARK  status: ('A' for Active; 'I' for Inactive)
REMARK    1  A    between atoms: C_1  and  C_2
REMARK    2  A    between atoms: C_2  and  C_3
REMARK    3  A    between atoms: C_3  and  O_4
REMARK    4  A    between atoms: C_3  and  C_12
REMARK    5  A    between atoms: O_4  and  C_5
REMARK                            x       y       z     vdW  Elec       q    Type
REMARK                         _______ _______ _______ _____ _____    ______ ____
ROOT
ATOM      1  C   UNL     1       2.789   5.123  17.896  0.00  0.00    +0.000 C 
ENDROOT
BRANCH   1   2
ATOM      2  C   UNL     1       4.039   4.389  17.280  0.00  0.00    +0.000 C 
ATOM      3  O   UNL     1       4.220   3.201  17.512  0.00  0.00    +0.000 OA
ATOM      4  N   UNL     1       4.881   5.038  16.375  0.00  0.00    +0.000 N 
ATOM      5  C   UNL     1       5.896   4.214  15.709  0.00  0.00    +0.000 C 
ATOM      6  C   UNL     1       7.338   4.370  16.200  0.00  0.00    +0.000 C 
ATOM      7  C   UNL     1       7.523   4.422  17.715  0.00  0.00    +0.000 C 
ATOM      8  C   UNL     1       7.677   5.836  18.281  0.00  0.00    +0.000 C 
ATOM      9  C   UNL     1       6.450   6.745  18.187  0.00  0.00    +0.000 C 
ATOM     10  C   UNL     1       6.090   7.193  16.767  0.00  0.00    +0.000 C 
ATOM     11  C   UNL     1       4.903   6.468  16.132  0.00  0.00    +0.000 C 
ENDBRANCH   1   2
BRANCH   1  13
ATOM     12  C   UNL     1       1.397   3.813  19.669  0.00  0.00    +0.000 C 
ATOM     13  C   UNL     1       1.692   4.056  18.185  0.00  0.00    +0.000 C 
ENDBRANCH   1  13
BRANCH   1  14
ATOM     14  O   UNL     1       3.025   5.911  19.084  0.00  0.00    +0.000 OA
BRANCH  14  15
ATOM     15  C   UNL     1       2.432   7.154  19.115  0.00  0.00    +0.000 A 
ATOM     16  C   UNL     1       1.867   7.609  20.326  0.00  0.00    +0.000 A 
ATOM     17  C   UNL     1       1.130   8.807  20.348  0.00  0.00    +0.000 A 
ATOM     18  C   UNL     1       1.045   9.589  19.210  0.00  0.00    +0.000 A 
ATOM     19  F   UNL     1       0.333  10.720  19.219  0.00  0.00    +0.000 F 
ATOM     20  C   UNL     1       1.707   9.209  18.045  0.00  0.00    +0.000 A 
ATOM     21  C   UNL     1       2.381   8.001  18.011  0.00  0.00    +0.000 A 
ENDBRANCH  14  15
ENDBRANCH   1  14
TORSDOF 4
ENDMDL
MODEL 9
REMARK VINA RESULT:      -7.0      1.801      2.824
REMARK  Name = 
REMARK  5 active torsions:
REMARK  status: ('A' for Active; 'I' for Inactive)
REMARK    1  A    between atoms: C_1  and  C_2
REMARK    2  A    between atoms: C_2  and  C_3
REMARK    3  A    between atoms: C_3  and  O_4
REMARK    4  A    between atoms: C_3  and  C_12
REMARK    5  A    between atoms: O_4  and  C_5
REMARK                            x       y       z     vdW  Elec       q    Type
REMARK                         _______ _______ _______ _____ _____    ______ ____
ROOT
ATOM      1  C   UNL     1       5.307   5.092  17.578  0.00  0.00    +0.000 C 
ENDROOT
BRANCH   1   2
ATOM      2  C   UNL     1       3.771   5.103  17.922  0.00  0.00    +0.000 C 
ATOM      3  O   UNL     1       3.214   6.162  18.177  0.00  0.00    +0.000 OA
ATOM      4  N   UNL     1       3.003   3.941  17.824  0.00  0.00    +0.000 N 
ATOM      5  C   UNL     1       1.551   4.093  17.972  0.00  0.00    +0.000 C 
ATOM      6  C   UNL     1       0.944   3.633  19.301  0.00  0.00    +0.000 C 
ATOM      7  C   UNL     1       1.710   4.039  20.559  0.00  0.00    +0.000 C 
ATOM      8  C   UNL     1       2.607   2.937  21.129  0.00  0.00    +0.000 C 
ATOM      9  C   UNL     1       3.808   2.525  20.275  0.00  0.00    +0.000 C 
ATOM     10  C   UNL     1       3.452   1.773  18.989  0.00  0.00    +0.000 C 
ATOM     11  C   UNL     1       3.534   2.596  17.703  0.00  0.00    +0.000 C 
ENDBRANCH   1   2
BRANCH   1  13
ATOM     12  C   UNL     1       7.476   5.901  18.777  0.00  0.00    +0.000 C 
ATOM     13  C   UNL     1       6.105   5.229  18.908  0.00  0.00    +0.000 C 
ENDBRANCH   1  13
BRANCH   1  14
ATOM     14  O   UNL     1       5.793   3.952  16.835  0.00  0.00    +0.000 OA
BRANCH  14  15
ATOM     15  C   UNL     1       6.158   4.189  15.527  0.00  0.00    +0.000 A 
ATOM     16  C   UNL     1       5.402   3.598  14.492  0.00  0.00    +0.000 A 
ATOM     17  C   UNL     1       5.839   3.703  13.159  0.00  0.00    +0.000 A 
ATOM     18  C   UNL     1       6.949   4.471  12.853  0.00  0.00    +0.000 A 
ATOM     19  F   UNL     1       7.378   4.564  11.591  0.00  0.00    +0.000 F 
ATOM     20  C   UNL     1       7.625   5.162  13.856  0.00  0.00    +0.000 A 
ATOM     21  C   UNL     1       7.228   5.006  15.172  0.00  0.00    +0.000 A 
ENDBRANCH  14  15
ENDBRANCH   1  14
TORSDOF 4
ENDMDL
