MODEL 1
REMARK VINA RESULT:      -8.4      0.000      0.000
REMARK  Name = 
REMARK  6 active torsions:
REMARK  status: ('A' for Active; 'I' for Inactive)
REMARK    1  A    between atoms: C_1  and  C_2
REMARK    2  A    between atoms: C_2  and  O_3
REMARK    3  A    between atoms: O_3  and  C_4
REMARK    4  A    between atoms: C_4  and  C_6
REMARK    5  A    between atoms: C_17  and  O_18
REMARK    6  A    between atoms: O_18  and  C_19
REMARK                            x       y       z     vdW  Elec       q    Type
REMARK                         _______ _______ _______ _____ _____    ______ ____
ROOT
ATOM      1  C   UNL     1      -1.056  11.235  22.616  0.00  0.00    +0.000 A 
ATOM      2  C   UNL     1      -0.790  10.053  23.339  0.00  0.00    +0.000 A 
ATOM      3  N   UNL     1      -0.017   9.187  22.665  0.00  0.00    +0.000 NA
ATOM      4  N   UNL     1       0.203   9.815  21.490  0.00  0.00    +0.000 N 
ATOM      5  C   UNL     1      -0.392  11.055  21.416  0.00  0.00    +0.000 A 
ATOM      6  N   UNL     1      -0.285  11.836  20.305  0.00  0.00    +0.000 NA
ATOM      7  N   UNL     1       0.341  11.435  19.275  0.00  0.00    +0.000 N 
ATOM      8  O   UNL     1       0.451  12.168  18.238  0.00  0.00    +0.000 OA
ATOM      9  C   UNL     1       0.965  10.103  19.263  0.00  0.00    +0.000 A 
ATOM     10  C   UNL     1       1.603   9.648  18.109  0.00  0.00    +0.000 A 
ATOM     11  C   UNL     1       2.213   8.398  18.119  0.00  0.00    +0.000 A 
ATOM     12  C   UNL     1       2.260   7.631  19.293  0.00  0.00    +0.000 A 
ATOM     13  C   UNL     1       1.562   8.050  20.434  0.00  0.00    +0.000 A 
ATOM     14  C   UNL     1       0.921   9.292  20.409  0.00  0.00    +0.000 A 
ENDROOT
BRANCH   1  15
ATOM     15  C   UNL     1      -1.883  12.364  22.988  0.00  0.00    +0.000 C 
ATOM     16  O   UNL     1      -1.424  13.431  23.373  0.00  0.00    +0.000 OA
BRANCH  15  17
ATOM     17  O   UNL     1      -3.208  12.062  22.933  0.00  0.00    +0.000 OA
BRANCH  17  19
ATOM     18  C   UNL     1      -4.627  12.357  24.835  0.00  0.00    +0.000 C 
ATOM     19  C   UNL     1      -4.119  12.980  23.546  0.00  0.00    +0.000 C 
ENDBRANCH  17  19
ENDBRANCH  15  17
ENDBRANCH   1  15
BRANCH  12  20
ATOM     20  O   UNL     1       2.959   6.441  19.385  0.00  0.00    +0.000 OA
BRANCH  20  21
ATOM     21  C   UNL     1       2.250   5.254  19.427  0.00  0.00    +0.000 A 
ATOM     22  C   UNL     1       1.812   4.656  20.615  0.00  0.00    +0.000 A 
ATOM     23  C   UNL     1       1.189   3.407  20.587  0.00  0.00    +0.000 A 
ATOM     24  C   UNL     1       0.934   2.786  19.366  0.00  0.00    +0.000 A 
ATOM     25  C   UNL     1       1.291   3.418  18.176  0.00  0.00    +0.000 A 
ATOM     26  C   UNL     1       1.949   4.651  18.205  0.00  0.00    +0.000 A 
ENDBRANCH  20  21
ENDBRANCH  12  20
TORSDOF 5
ENDMDL
MODEL 2
REMARK VINA RESULT:      -7.9      0.862      1.336
REMARK  Name = 
REMARK  6 active torsions:
REMARK  status: ('A' for Active; 'I' for Inactive)
REMARK    1  A    between atoms: C_1  and  C_2
REMARK    2  A    between atoms: C_2  and  O_3
REMARK    3  A    between atoms: O_3  and  C_4
REMARK    4  A    between atoms: C_4  and  C_6
REMARK    5  A    between atoms: C_17  and  O_18
REMARK    6  A    between atoms: O_18  and  C_19
REMARK                            x       y       z     vdW  Elec       q    Type
REMARK                         _______ _______ _______ _____ _____    ______ ____
ROOT
ATOM      1  C   UNL     1      -0.976  11.228  22.646  0.00  0.00    +0.000 A 
ATOM      2  C   UNL     1      -0.699  10.048  23.369  0.00  0.00    +0.000 A 
ATOM      3  N   UNL     1       0.056   9.176  22.682  0.00  0.00    +0.000 NA
ATOM      4  N   UNL     1       0.254   9.799  21.501  0.00  0.00    +0.000 N 
ATOM      5  C   UNL     1      -0.338  11.040  21.434  0.00  0.00    +0.000 A 
ATOM      6  N   UNL     1      -0.251  11.816  20.317  0.00  0.00    +0.000 NA
ATOM      7  N   UNL     1       0.353  11.408  19.276  0.00  0.00    +0.000 N 
ATOM      8  O   UNL     1       0.444  12.136  18.234  0.00  0.00    +0.000 OA
ATOM      9  C   UNL     1       0.972  10.073  19.257  0.00  0.00    +0.000 A 
ATOM     10  C   UNL     1       1.584   9.610  18.092  0.00  0.00    +0.000 A 
ATOM     11  C   UNL     1       2.189   8.358  18.096  0.00  0.00    +0.000 A 
ATOM     12  C   UNL     1       2.257   7.597  19.272  0.00  0.00    +0.000 A 
ATOM     13  C   UNL     1       1.585   8.023  20.425  0.00  0.00    +0.000 A 
ATOM     14  C   UNL     1       0.948   9.267  20.408  0.00  0.00    +0.000 A 
ENDROOT
BRANCH   1  15
ATOM     15  C   UNL     1      -1.791  12.362  23.029  0.00  0.00    +0.000 C 
ATOM     16  O   UNL     1      -2.996  12.283  23.226  0.00  0.00    +0.000 OA
BRANCH  15  17
ATOM     17  O   UNL     1      -1.072  13.517  23.060  0.00  0.00    +0.000 OA
BRANCH  17  19
ATOM     18  C   UNL     1      -1.178  15.857  23.538  0.00  0.00    +0.000 C 
ATOM     19  C   UNL     1      -1.381  14.458  24.093  0.00  0.00    +0.000 C 
ENDBRANCH  17  19
ENDBRANCH  15  17
ENDBRANCH   1  15
BRANCH  12  20
ATOM     20  O   UNL     1       2.954   6.404  19.355  0.00  0.00    +0.000 OA
BRANCH  20  21
ATOM     21  C   UNL     1       2.242   5.221  19.422  0.00  0.00    +0.000 A 
ATOM     22  C   UNL     1       1.804   4.647  20.622  0.00  0.00    +0.000 A 
ATOM     23  C   UNL     1       1.178   3.400  20.619  0.00  0.00    +0.000 A 
ATOM     24  C   UNL     1       0.919   2.756  19.412  0.00  0.00    +0.000 A 
ATOM     25  C   UNL     1       1.276   3.363  18.208  0.00  0.00    +0.000 A 
ATOM     26  C   UNL     1       1.937   4.595  18.212  0.00  0.00    +0.000 A 
ENDBRANCH  20  21
ENDBRANCH  12  20
TORSDOF 5
ENDMDL
MODEL 3
REMARK VINA RESULT:      -7.8      0.854      1.547
REMARK  Name = 
REMARK  6 active torsions:
REMARK  status: ('A' for Active; 'I' for Inactive)
REMARK    1  A    between atoms: C_1  and  C_2
REMARK    2  A    between atoms: C_2  and  O_3
REMARK    3  A    between atoms: O_3  and  C_4
REMARK    4  A    between atoms: C_4  and  C_6
REMARK    5  A    between atoms: C_17  and  O_18
REMARK    6  A    between atoms: O_18  and  C_19
REMARK                            x       y       z     vdW  Elec       q    Type
REMARK                         _______ _______ _______ _____ _____    ______ ____
ROOT
ATOM      1  C   UNL     1      -1.470  11.374  22.563  0.00  0.00    +0.000 A 
ATOM      2  C   UNL     1      -1.073  10.284  23.366  0.00  0.00    +0.000 A 
ATOM      3  N   UNL     1      -0.246   9.439  22.733  0.00  0.00    +0.000 NA
ATOM      4  N   UNL     1      -0.122   9.985  21.505  0.00  0.00    +0.000 N 
ATOM      5  C   UNL     1      -0.831  11.156  21.356  0.00  0.00    +0.000 A 
ATOM      6  N   UNL     1      -0.833  11.849  20.183  0.00  0.00    +0.000 NA
ATOM      7  N   UNL     1      -0.205  11.422  19.164  0.00  0.00    +0.000 N 
ATOM      8  O   UNL     1      -0.196  12.075  18.069  0.00  0.00    +0.000 OA
ATOM      9  C   UNL     1       0.539  10.155  19.233  0.00  0.00    +0.000 A 
ATOM     10  C   UNL     1       1.179   9.665  18.094  0.00  0.00    +0.000 A 
ATOM     11  C   UNL     1       1.901   8.480  18.180  0.00  0.00    +0.000 A 
ATOM     12  C   UNL     1       2.056   7.820  19.408  0.00  0.00    +0.000 A 
ATOM     13  C   UNL     1       1.360   8.267  20.539  0.00  0.00    +0.000 A 
ATOM     14  C   UNL     1       0.607   9.440  20.441  0.00  0.00    +0.000 A 
ENDROOT
BRANCH   1  15
ATOM     15  C   UNL     1      -2.386  12.452  22.876  0.00  0.00    +0.000 C 
ATOM     16  O   UNL     1      -3.553  12.266  23.194  0.00  0.00    +0.000 OA
BRANCH  15  17
ATOM     17  O   UNL     1      -1.814  13.673  22.695  0.00  0.00    +0.000 OA
BRANCH  17  19
ATOM     18  C   UNL     1      -2.187  15.296  24.411  0.00  0.00    +0.000 C 
ATOM     19  C   UNL     1      -1.205  14.291  23.834  0.00  0.00    +0.000 C 
ENDBRANCH  17  19
ENDBRANCH  15  17
ENDBRANCH   1  15
BRANCH  12  20
ATOM     20  O   UNL     1       2.866   6.709  19.567  0.00  0.00    +0.000 OA
BRANCH  20  21
ATOM     21  C   UNL     1       2.295   5.452  19.476  0.00  0.00    +0.000 A 
ATOM     22  C   UNL     1       2.108   4.772  18.266  0.00  0.00    +0.000 A 
ATOM     23  C   UNL     1       1.433   3.551  18.241  0.00  0.00    +0.000 A 
ATOM     24  C   UNL     1       1.010   2.968  19.433  0.00  0.00    +0.000 A 
ATOM     25  C   UNL     1       1.271   3.600  20.649  0.00  0.00    +0.000 A 
ATOM     26  C   UNL     1       1.913   4.841  20.671  0.00  0.00    +0.000 A 
ENDBRANCH  20  21
ENDBRANCH  12  20
TORSDOF 5
ENDMDL
MODEL 4
REMARK VINA RESULT:      -7.7      4.586      9.587
REMARK  Name = 
REMARK  6 active torsions:
REMARK  status: ('A' for Active; 'I' for Inactive)
REMARK    1  A    between atoms: C_1  and  C_2
REMARK    2  A    between atoms: C_2  and  O_3
REMARK    3  A    between atoms: O_3  and  C_4
REMARK    4  A    between atoms: C_4  and  C_6
REMARK    5  A    between atoms: C_17  and  O_18
REMARK    6  A    between atoms: O_18  and  C_19
REMARK                            x       y       z     vdW  Elec       q    Type
REMARK                         _______ _______ _______ _____ _____    ______ ____
ROOT
ATOM      1  C   UNL     1       5.528   5.278  15.821  0.00  0.00    +0.000 A 
ATOM      2  C   UNL     1       5.453   6.662  16.088  0.00  0.00    +0.000 A 
ATOM      3  N   UNL     1       4.664   6.953  17.134  0.00  0.00    +0.000 NA
ATOM      4  N   UNL     1       4.218   5.744  17.533  0.00  0.00    +0.000 N 
ATOM      5  C   UNL     1       4.717   4.704  16.782  0.00  0.00    +0.000 A 
ATOM      6  N   UNL     1       4.375   3.409  17.033  0.00  0.00    +0.000 NA
ATOM      7  N   UNL     1       3.550   3.111  17.953  0.00  0.00    +0.000 N 
ATOM      8  O   UNL     1       3.236   1.900  18.196  0.00  0.00    +0.000 OA
ATOM      9  C   UNL     1       2.939   4.173  18.768  0.00  0.00    +0.000 A 
ATOM     10  C   UNL     1       1.992   3.842  19.738  0.00  0.00    +0.000 A 
ATOM     11  C   UNL     1       1.443   4.852  20.520  0.00  0.00    +0.000 A 
ATOM     12  C   UNL     1       1.887   6.177  20.398  0.00  0.00    +0.000 A 
ATOM     13  C   UNL     1       2.784   6.527  19.381  0.00  0.00    +0.000 A 
ATOM     14  C   UNL     1       3.309   5.514  18.573  0.00  0.00    +0.000 A 
ENDROOT
BRANCH   1  15
ATOM     15  C   UNL     1       6.229   4.593  14.755  0.00  0.00    +0.000 C 
ATOM     16  O   UNL     1       7.447   4.611  14.636  0.00  0.00    +0.000 OA
BRANCH  15  17
ATOM     17  O   UNL     1       5.370   4.008  13.877  0.00  0.00    +0.000 OA
BRANCH  17  19
ATOM     18  C   UNL     1       4.789   3.303  11.667  0.00  0.00    +0.000 C 
ATOM     19  C   UNL     1       5.922   3.490  12.662  0.00  0.00    +0.000 C 
ENDBRANCH  17  19
ENDBRANCH  15  17
ENDBRANCH   1  15
BRANCH  12  20
ATOM     20  O   UNL     1       1.460   7.192  21.237  0.00  0.00    +0.000 OA
BRANCH  20  21
ATOM     21  C   UNL     1       0.992   8.366  20.676  0.00  0.00    +0.000 A 
ATOM     22  C   UNL     1       1.413   8.851  19.430  0.00  0.00    +0.000 A 
ATOM     23  C   UNL     1       0.973  10.094  18.973  0.00  0.00    +0.000 A 
ATOM     24  C   UNL     1       0.053  10.823  19.722  0.00  0.00    +0.000 A 
ATOM     25  C   UNL     1      -0.435  10.305  20.922  0.00  0.00    +0.000 A 
ATOM     26  C   UNL     1       0.034   9.078  21.399  0.00  0.00    +0.000 A 
ENDBRANCH  20  21
ENDBRANCH  12  20
TORSDOF 5
ENDMDL
MODEL 5
REMARK VINA RESULT:      -7.7      0.839      1.288
REMARK  Name = 
REMARK  6 active torsions:
REMARK  status: ('A' for Active; 'I' for Inactive)
REMARK    1  A    between atoms: C_1  and  C_2
REMARK    2  A    between atoms: C_2  and  O_3
REMARK    3  A    between atoms: O_3  and  C_4
REMARK    4  A    between atoms: C_4  and  C_6
REMARK    5  A    between atoms: C_17  and  O_18
REMARK    6  A    between atoms: O_18  and  C_19
REMARK                            x       y       z     vdW  Elec       q    Type
REMARK                         _______ _______ _______ _____ _____    ______ ____
ROOT
ATOM      1  C   UNL     1      -1.503  11.404  22.713  0.00  0.00    +0.000 A 
ATOM      2  C   UNL     1      -1.025  10.323  23.484  0.00  0.00    +0.000 A 
ATOM      3  N   UNL     1      -0.205   9.511  22.800  0.00  0.00    +0.000 NA
ATOM      4  N   UNL     1      -0.168  10.069  21.572  0.00  0.00    +0.000 N 
ATOM      5  C   UNL     1      -0.924  11.215  21.472  0.00  0.00    +0.000 A 
ATOM      6  N   UNL     1      -1.013  11.916  20.306  0.00  0.00    +0.000 NA
ATOM      7  N   UNL     1      -0.427  11.517  19.251  0.00  0.00    +0.000 N 
ATOM      8  O   UNL     1      -0.501  12.177  18.162  0.00  0.00    +0.000 OA
ATOM      9  C   UNL     1       0.362  10.276  19.269  0.00  0.00    +0.000 A 
ATOM     10  C   UNL     1       0.955   9.816  18.093  0.00  0.00    +0.000 A 
ATOM     11  C   UNL     1       1.722   8.656  18.130  0.00  0.00    +0.000 A 
ATOM     12  C   UNL     1       1.966   7.994  19.342  0.00  0.00    +0.000 A 
ATOM     13  C   UNL     1       1.317   8.410  20.512  0.00  0.00    +0.000 A 
ATOM     14  C   UNL     1       0.520   9.557  20.465  0.00  0.00    +0.000 A 
ENDROOT
BRANCH   1  15
ATOM     15  C   UNL     1      -2.437  12.447  23.084  0.00  0.00    +0.000 C 
ATOM     16  O   UNL     1      -2.091  13.500  23.603  0.00  0.00    +0.000 OA
BRANCH  15  17
ATOM     17  O   UNL     1      -3.727  12.075  22.862  0.00  0.00    +0.000 OA
BRANCH  17  19
ATOM     18  C   UNL     1      -5.570  13.429  22.163  0.00  0.00    +0.000 C 
ATOM     19  C   UNL     1      -4.376  12.610  21.704  0.00  0.00    +0.000 C 
ENDBRANCH  17  19
ENDBRANCH  15  17
ENDBRANCH   1  15
BRANCH  12  20
ATOM     20  O   UNL     1       2.821   6.911  19.447  0.00  0.00    +0.000 OA
BRANCH  20  21
ATOM     21  C   UNL     1       2.286   5.636  19.403  0.00  0.00    +0.000 A 
ATOM     22  C   UNL     1       1.995   4.960  18.211  0.00  0.00    +0.000 A 
ATOM     23  C   UNL     1       1.363   3.716  18.245  0.00  0.00    +0.000 A 
ATOM     24  C   UNL     1       1.088   3.109  19.468  0.00  0.00    +0.000 A 
ATOM     25  C   UNL     1       1.455   3.740  20.656  0.00  0.00    +0.000 A 
ATOM     26  C   UNL     1       2.053   5.003  20.625  0.00  0.00    +0.000 A 
ENDBRANCH  20  21
ENDBRANCH  12  20
TORSDOF 5
ENDMDL
MODEL 6
REMARK VINA RESULT:      -7.5      6.121      8.286
REMARK  Name = 
REMARK  6 active torsions:
REMARK  status: ('A' for Active; 'I' for Inactive)
REMARK    1  A    between atoms: C_1  and  C_2
REMARK    2  A    between atoms: C_2  and  O_3
REMARK    3  A    between atoms: O_3  and  C_4
REMARK    4  A    between atoms: C_4  and  C_6
REMARK    5  A    between atoms: C_17  and  O_18
REMARK    6  A    between atoms: O_18  and  C_19
REMARK                            x       y       z     vdW  Elec       q    Type
REMARK                         _______ _______ _______ _____ _____    ______ ____
ROOT
ATOM      1  C   UNL     1       3.197   3.297  20.575  0.00  0.00    +0.000 A 
ATOM      2  C   UNL     1       4.155   2.360  20.130  0.00  0.00    +0.000 A 
ATOM      3  N   UNL     1       4.914   2.823  19.124  0.00  0.00    +0.000 NA
ATOM      4  N   UNL     1       4.428   4.065  18.913  0.00  0.00    +0.000 N 
ATOM      5  C   UNL     1       3.402   4.400  19.768  0.00  0.00    +0.000 A 
ATOM      6  N   UNL     1       2.782   5.612  19.702  0.00  0.00    +0.000 NA
ATOM      7  N   UNL     1       3.104   6.471  18.823  0.00  0.00    +0.000 N 
ATOM      8  O   UNL     1       2.532   7.609  18.767  0.00  0.00    +0.000 OA
ATOM      9  C   UNL     1       4.161   6.167  17.847  0.00  0.00    +0.000 A 
ATOM     10  C   UNL     1       4.471   7.093  16.850  0.00  0.00    +0.000 A 
ATOM     11  C   UNL     1       5.491   6.804  15.951  0.00  0.00    +0.000 A 
ATOM     12  C   UNL     1       6.257   5.637  16.083  0.00  0.00    +0.000 A 
ATOM     13  C   UNL     1       5.908   4.671  17.036  0.00  0.00    +0.000 A 
ATOM     14  C   UNL     1       4.859   4.949  17.917  0.00  0.00    +0.000 A 
ENDROOT
BRANCH   1  15
ATOM     15  C   UNL     1       2.178   3.144  21.593  0.00  0.00    +0.000 C 
ATOM     16  O   UNL     1       2.334   3.499  22.753  0.00  0.00    +0.000 OA
BRANCH  15  17
ATOM     17  O   UNL     1       1.081   2.493  21.119  0.00  0.00    +0.000 OA
BRANCH  17  19
ATOM     18  C   UNL     1       0.635   2.222  18.786  0.00  0.00    +0.000 C 
ATOM     19  C   UNL     1       0.392   3.084  20.013  0.00  0.00    +0.000 C 
ENDBRANCH  17  19
ENDBRANCH  15  17
ENDBRANCH   1  15
BRANCH  12  20
ATOM     20  O   UNL     1       7.359   5.367  15.289  0.00  0.00    +0.000 OA
BRANCH  20  21
ATOM     21  C   UNL     1       7.155   4.875  14.014  0.00  0.00    +0.000 A 
ATOM     22  C   UNL     1       6.296   3.806  13.725  0.00  0.00    +0.000 A 
ATOM     23  C   UNL     1       6.218   3.297  12.427  0.00  0.00    +0.000 A 
ATOM     24  C   UNL     1       6.937   3.902  11.399  0.00  0.00    +0.000 A 
ATOM     25  C   UNL     1       7.726   5.021  11.667  0.00  0.00    +0.000 A 
ATOM     26  C   UNL     1       7.836   5.507  12.973  0.00  0.00    +0.000 A 
ENDBRANCH  20  21
ENDBRANCH  12  20
TORSDOF 5
ENDMDL
MODEL 7
REMARK VINA RESULT:      -7.4      4.409      6.360
REMARK  Name = 
REMARK  6 active torsions:
REMARK  status: ('A' for Active; 'I' for Inactive)
REMARK    1  A    between atoms: C_1  and  C_2
REMARK    2  A    between atoms: C_2  and  O_3
REMARK    3  A    between atoms: O_3  and  C_4
REMARK    4  A    between atoms: C_4  and  C_6
REMARK    5  A    between atoms: C_17  and  O_18
REMARK    6  A    between atoms: O_18  and  C_19
REMARK                            x       y       z     vdW  Elec       q    Type
REMARK                         _______ _______ _______ _____ _____    ______ ____
ROOT
ATOM      1  C   UNL     1       1.562   8.685  18.968  0.00  0.00    +0.000 A 
ATOM      2  C   UNL     1       2.097   9.420  17.888  0.00  0.00    +0.000 A 
ATOM      3  N   UNL     1       3.113   8.790  17.277  0.00  0.00    +0.000 NA
ATOM      4  N   UNL     1       3.239   7.646  17.981  0.00  0.00    +0.000 N 
ATOM      5  C   UNL     1       2.323   7.531  19.002  0.00  0.00    +0.000 A 
ATOM      6  N   UNL     1       2.299   6.446  19.826  0.00  0.00    +0.000 NA
ATOM      7  N   UNL     1       3.149   5.509  19.706  0.00  0.00    +0.000 N 
ATOM      8  O   UNL     1       3.122   4.488  20.469  0.00  0.00    +0.000 OA
ATOM      9  C   UNL     1       4.187   5.582  18.667  0.00  0.00    +0.000 A 
ATOM     10  C   UNL     1       5.150   4.577  18.577  0.00  0.00    +0.000 A 
ATOM     11  C   UNL     1       6.109   4.644  17.573  0.00  0.00    +0.000 A 
ATOM     12  C   UNL     1       6.071   5.663  16.610  0.00  0.00    +0.000 A 
ATOM     13  C   UNL     1       5.151   6.713  16.734  0.00  0.00    +0.000 A 
ATOM     14  C   UNL     1       4.209   6.660  17.765  0.00  0.00    +0.000 A 
ENDROOT
BRANCH   1  15
ATOM     15  C   UNL     1       0.507   9.056  19.888  0.00  0.00    +0.000 C 
ATOM     16  O   UNL     1      -0.422   9.790  19.579  0.00  0.00    +0.000 OA
BRANCH  15  17
ATOM     17  O   UNL     1       0.724   8.558  21.136  0.00  0.00    +0.000 OA
BRANCH  17  19
ATOM     18  C   UNL     1      -0.007   9.473  23.221  0.00  0.00    +0.000 C 
ATOM     19  C   UNL     1       1.082   9.489  22.163  0.00  0.00    +0.000 C 
ENDBRANCH  17  19
ENDBRANCH  15  17
ENDBRANCH   1  15
BRANCH  12  20
ATOM     20  O   UNL     1       6.927   5.702  15.523  0.00  0.00    +0.000 OA
BRANCH  20  21
ATOM     21  C   UNL     1       6.599   4.976  14.392  0.00  0.00    +0.000 A 
ATOM     22  C   UNL     1       5.410   4.249  14.257  0.00  0.00    +0.000 A 
ATOM     23  C   UNL     1       5.193   3.458  13.128  0.00  0.00    +0.000 A 
ATOM     24  C   UNL     1       6.128   3.449  12.096  0.00  0.00    +0.000 A 
ATOM     25  C   UNL     1       7.274   4.239  12.188  0.00  0.00    +0.000 A 
ATOM     26  C   UNL     1       7.510   5.002  13.336  0.00  0.00    +0.000 A 
ENDBRANCH  20  21
ENDBRANCH  12  20
TORSDOF 5
ENDMDL
MODEL 8
REMARK VINA RESULT:      -7.4      4.642      9.524
REMARK  Name = 
REMARK  6 active torsions:
REMARK  status: ('A' for Active; 'I' for Inactive)
REMARK    1  A    between atoms: C_1  and  C_2
REMARK    2  A    between atoms: C_2  and  O_3
REMARK    3  A    between atoms: O_3  and  C_4
REMARK    4  A    between atoms: C_4  and  C_6
REMARK    5  A    between atoms: C_17  and  O_18
REMARK    6  A    between atoms: O_18  and  C_19
REMARK                            x       y       z     vdW  Elec       q    Type
REMARK                         _______ _______ _______ _____ _____    ______ ____
ROOT
ATOM      1  C   UNL     1       5.817   5.397  15.925  0.00  0.00    +0.000 A 
ATOM      2  C   UNL     1       5.812   6.742  16.354  0.00  0.00    +0.000 A 
ATOM      3  N   UNL     1       4.976   6.962  17.380  0.00  0.00    +0.000 NA
ATOM      4  N   UNL     1       4.428   5.749  17.602  0.00  0.00    +0.000 N 
ATOM      5  C   UNL     1       4.909   4.772  16.759  0.00  0.00    +0.000 A 
ATOM      6  N   UNL     1       4.469   3.484  16.830  0.00  0.00    +0.000 NA
ATOM      7  N   UNL     1       3.568   3.139  17.656  0.00  0.00    +0.000 N 
ATOM      8  O   UNL     1       3.162   1.933  17.731  0.00  0.00    +0.000 OA
ATOM      9  C   UNL     1       2.973   4.138  18.559  0.00  0.00    +0.000 A 
ATOM     10  C   UNL     1       1.945   3.763  19.424  0.00  0.00    +0.000 A 
ATOM     11  C   UNL     1       1.411   4.710  20.292  0.00  0.00    +0.000 A 
ATOM     12  C   UNL     1       1.945   6.005  20.358  0.00  0.00    +0.000 A 
ATOM     13  C   UNL     1       2.928   6.408  19.445  0.00  0.00    +0.000 A 
ATOM     14  C   UNL     1       3.440   5.463  18.552  0.00  0.00    +0.000 A 
ENDROOT
BRANCH   1  15
ATOM     15  C   UNL     1       6.542   4.794  14.825  0.00  0.00    +0.000 C 
ATOM     16  O   UNL     1       7.679   5.122  14.515  0.00  0.00    +0.000 OA
BRANCH  15  17
ATOM     17  O   UNL     1       5.779   3.895  14.147  0.00  0.00    +0.000 OA
BRANCH  17  19
ATOM     18  C   UNL     1       4.958   3.439  11.948  0.00  0.00    +0.000 C 
ATOM     19  C   UNL     1       6.195   3.543  12.824  0.00  0.00    +0.000 C 
ENDBRANCH  17  19
ENDBRANCH  15  17
ENDBRANCH   1  15
BRANCH  12  20
ATOM     20  O   UNL     1       1.529   6.942  21.289  0.00  0.00    +0.000 OA
BRANCH  20  21
ATOM     21  C   UNL     1       1.013   8.143  20.839  0.00  0.00    +0.000 A 
ATOM     22  C   UNL     1       0.081   8.903  21.557  0.00  0.00    +0.000 A 
ATOM     23  C   UNL     1      -0.472  10.054  20.994  0.00  0.00    +0.000 A 
ATOM     24  C   UNL     1      -0.041  10.492  19.745  0.00  0.00    +0.000 A 
ATOM     25  C   UNL     1       0.950   9.786  19.063  0.00  0.00    +0.000 A 
ATOM     26  C   UNL     1       1.476   8.612  19.609  0.00  0.00    +0.000 A 
ENDBRANCH  20  21
ENDBRANCH  12  20
TORSDOF 5
ENDMDL
MODEL 9
REMARK VINA RESULT:      -7.4      1.549      2.226
REMARK  Name = 
REMARK  6 active torsions:
REMARK  status: ('A' for Active; 'I' for Inactive)
REMARK    1  A    between atoms: C_1  and  C_2
REMARK    2  A    between atoms: C_2  and  O_3
REMARK    3  A    between atoms: O_3  and  C_4
REMARK    4  A    between atoms: C_4  and  C_6
REMARK    5  A    between atoms: C_17  and  O_18
REMARK    6  A    between atoms: O_18  and  C_19
REMARK                            x       y       z     vdW  Elec       q    Type
REMARK                         _______ _______ _______ _____ _____    ______ ____
ROOT
ATOM      1  C   UNL     1      -0.780  11.035  22.666  0.00  0.00    +0.000 A 
ATOM      2  C   UNL     1      -0.478   9.841  23.354  0.00  0.00    +0.000 A 
ATOM      3  N   UNL     1       0.251   8.983  22.624  0.00  0.00    +0.000 NA
ATOM      4  N   UNL     1       0.406   9.629  21.448  0.00  0.00    +0.000 N 
ATOM      5  C   UNL     1      -0.187  10.871  21.428  0.00  0.00    +0.000 A 
ATOM      6  N   UNL     1      -0.141  11.669  20.324  0.00  0.00    +0.000 NA
ATOM      7  N   UNL     1       0.424  11.282  19.253  0.00  0.00    +0.000 N 
ATOM      8  O   UNL     1       0.477  12.031  18.223  0.00  0.00    +0.000 OA
ATOM      9  C   UNL     1       1.040   9.948  19.185  0.00  0.00    +0.000 A 
ATOM     10  C   UNL     1       1.609   9.508  17.990  0.00  0.00    +0.000 A 
ATOM     11  C   UNL     1       2.213   8.256  17.946  0.00  0.00    +0.000 A 
ATOM     12  C   UNL     1       2.324   7.472  19.104  0.00  0.00    +0.000 A 
ATOM     13  C   UNL     1       1.695   7.875  20.289  0.00  0.00    +0.000 A 
ATOM     14  C   UNL     1       1.059   9.119  20.320  0.00  0.00    +0.000 A 
ENDROOT
BRANCH   1  15
ATOM     15  C   UNL     1      -1.580  12.161  23.102  0.00  0.00    +0.000 C 
ATOM     16  O   UNL     1      -1.095  13.224  23.465  0.00  0.00    +0.000 OA
BRANCH  15  17
ATOM     17  O   UNL     1      -2.906  11.859  23.133  0.00  0.00    +0.000 OA
BRANCH  17  19
ATOM     18  C   UNL     1      -4.564  12.298  24.800  0.00  0.00    +0.000 C 
ATOM     19  C   UNL     1      -3.799  12.868  23.617  0.00  0.00    +0.000 C 
ENDBRANCH  17  19
ENDBRANCH  15  17
ENDBRANCH   1  15
BRANCH  12  20
ATOM     20  O   UNL     1       3.022   6.277  19.137  0.00  0.00    +0.000 OA
BRANCH  20  21
ATOM     21  C   UNL     1       3.805   5.935  18.050  0.00  0.00    +0.000 A 
ATOM     22  C   UNL     1       4.660   6.832  17.398  0.00  0.00    +0.000 A 
ATOM     23  C   UNL     1       5.344   6.443  16.245  0.00  0.00    +0.000 A 
ATOM     24  C   UNL     1       5.235   5.134  15.782  0.00  0.00    +0.000 A 
ATOM     25  C   UNL     1       4.453   4.212  16.478  0.00  0.00    +0.000 A 
ATOM     26  C   UNL     1       3.738   4.612  17.611  0.00  0.00    +0.000 A 
ENDBRANCH  20  21
ENDBRANCH  12  20
TORSDOF 5
ENDMDL
