MODEL 1
REMARK VINA RESULT:      -8.4      0.000      0.000
REMARK  Name = 
REMARK  9 active torsions:
REMARK  status: ('A' for Active; 'I' for Inactive)
REMARK    1  A    between atoms: C_1  and  C_2
REMARK    2  A    between atoms: C_2  and  C_3
REMARK    3  A    between atoms: C_8  and  S_9
REMARK    4  A    between atoms: S_9  and  C_10
REMARK    5  A    between atoms: N_17  and  C_18
REMARK    6  A    between atoms: C_18  and  C_19
REMARK    7  A    between atoms: N_21  and  C_22
REMARK    8  A    between atoms: C_25  and  C_26
REMARK    9  A    between atoms: C_28  and  C_29
REMARK                            x       y       z     vdW  Elec       q    Type
REMARK                         _______ _______ _______ _____ _____    ______ ____
ROOT
ATOM      1  C   UNL     1       3.408   3.984  19.110  0.00  0.00    +0.000 A 
ATOM      2  N   UNL     1       3.218   2.972  19.903  0.00  0.00    +0.000 NA
ATOM      3  C   UNL     1       2.429   3.214  21.012  0.00  0.00    +0.000 A 
ATOM      4  C   UNL     1       1.854   4.397  21.299  0.00  0.00    +0.000 A 
ATOM      5  N   UNL     1       2.063   5.441  20.452  0.00  0.00    +0.000 N 
ATOM      6  C   UNL     1       1.614   6.738  20.492  0.00  0.00    +0.000 A 
ATOM      7  O   UNL     1       0.905   7.277  21.327  0.00  0.00    +0.000 OA
ATOM      8  N   UNL     1       2.142   7.338  19.344  0.00  0.00    +0.000 N 
ATOM      9  N   UNL     1       2.925   6.441  18.633  0.00  0.00    +0.000 NA
ATOM     10  C   UNL     1       2.826   5.345  19.330  0.00  0.00    +0.000 A 
ENDROOT
BRANCH   1  11
ATOM     11  S   UNL     1       4.215   3.943  17.586  0.00  0.00    +0.000 S 
BRANCH  11  17
ATOM     12  C   UNL     1       6.086   5.888  16.776  0.00  0.00    +0.000 A 
ATOM     13  C   UNL     1       7.246   6.656  17.013  0.00  0.00    +0.000 A 
ATOM     14  C   UNL     1       7.905   6.617  18.241  0.00  0.00    +0.000 A 
ATOM     15  C   UNL     1       7.424   5.798  19.252  0.00  0.00    +0.000 A 
ATOM     16  C   UNL     1       6.284   5.020  19.037  0.00  0.00    +0.000 A 
ATOM     17  C   UNL     1       5.597   5.060  17.811  0.00  0.00    +0.000 A 
BRANCH  12  19
ATOM     18  C   UNL     1       5.935   4.859  14.462  0.00  0.00    +0.000 C 
ATOM     19  C   UNL     1       5.467   5.971  15.394  0.00  0.00    +0.000 C 
ENDBRANCH  12  19
ENDBRANCH  11  17
ENDBRANCH   1  11
BRANCH   8  20
ATOM     20  C   UNL     1       2.077   8.741  19.009  0.00  0.00    +0.000 C 
BRANCH  20  21
ATOM     21  C   UNL     1       0.810   9.438  19.502  0.00  0.00    +0.000 C 
ATOM     22  O   UNL     1      -0.169   9.525  18.760  0.00  0.00    +0.000 OA
ATOM     23  N   UNL     1       0.939  10.128  20.703  0.00  0.00    +0.000 N 
ATOM     24  H   UNL     1       1.888  10.373  20.976  0.00  0.00    +0.000 HD
BRANCH  23  25
ATOM     25  C   UNL     1      -0.109  10.929  21.217  0.00  0.00    +0.000 A 
ATOM     26  C   UNL     1      -0.618  11.992  20.459  0.00  0.00    +0.000 A 
ATOM     27  C   UNL     1      -1.626  12.817  20.967  0.00  0.00    +0.000 A 
ATOM     28  C   UNL     1      -2.131  12.602  22.249  0.00  0.00    +0.000 A 
ATOM     29  C   UNL     1      -3.161  13.519  22.841  0.00  0.00    +0.000 C 
ATOM     30  C   UNL     1      -1.638  11.525  22.999  0.00  0.00    +0.000 A 
ATOM     31  C   UNL     1      -0.638  10.674  22.493  0.00  0.00    +0.000 A 
ATOM     32  C   UNL     1      -0.141   9.551  23.360  0.00  0.00    +0.000 C 
ENDBRANCH  23  25
ENDBRANCH  20  21
ENDBRANCH   8  20
TORSDOF 6
ENDMDL
MODEL 2
REMARK VINA RESULT:      -8.3      4.169      7.767
REMARK  Name = 
REMARK  9 active torsions:
REMARK  status: ('A' for Active; 'I' for Inactive)
REMARK    1  A    between atoms: C_1  and  C_2
REMARK    2  A    between atoms: C_2  and  C_3
REMARK    3  A    between atoms: C_8  and  S_9
REMARK    4  A    between atoms: S_9  and  C_10
REMARK    5  A    between atoms: N_17  and  C_18
REMARK    6  A    between atoms: C_18  and  C_19
REMARK    7  A    between atoms: N_21  and  C_22
REMARK    8  A    between atoms: C_25  and  C_26
REMARK    9  A    between atoms: C_28  and  C_29
REMARK                            x       y       z     vdW  Elec       q    Type
REMARK                         _______ _______ _______ _____ _____    ______ ____
ROOT
ATOM      1  C   UNL     1       3.570   5.104  18.525  0.00  0.00    +0.000 A 
ATOM      2  N   UNL     1       2.870   4.331  17.749  0.00  0.00    +0.000 NA
ATOM      3  C   UNL     1       3.567   3.701  16.736  0.00  0.00    +0.000 A 
ATOM      4  C   UNL     1       4.890   3.828  16.522  0.00  0.00    +0.000 A 
ATOM      5  N   UNL     1       5.604   4.639  17.350  0.00  0.00    +0.000 N 
ATOM      6  C   UNL     1       6.941   4.954  17.369  0.00  0.00    +0.000 A 
ATOM      7  O   UNL     1       7.827   4.575  16.621  0.00  0.00    +0.000 OA
ATOM      8  N   UNL     1       7.090   5.821  18.458  0.00  0.00    +0.000 N 
ATOM      9  N   UNL     1       5.869   6.059  19.071  0.00  0.00    +0.000 NA
ATOM     10  C   UNL     1       5.043   5.326  18.381  0.00  0.00    +0.000 A 
ENDROOT
BRANCH   1  11
ATOM     11  S   UNL     1       3.007   5.893  19.952  0.00  0.00    +0.000 S 
BRANCH  11  17
ATOM     12  C   UNL     1       1.511   8.277  20.104  0.00  0.00    +0.000 A 
ATOM     13  C   UNL     1       0.981   9.439  19.505  0.00  0.00    +0.000 A 
ATOM     14  C   UNL     1       1.304   9.794  18.195  0.00  0.00    +0.000 A 
ATOM     15  C   UNL     1       2.152   8.984  17.454  0.00  0.00    +0.000 A 
ATOM     16  C   UNL     1       2.680   7.821  18.022  0.00  0.00    +0.000 A 
ATOM     17  C   UNL     1       2.379   7.458  19.346  0.00  0.00    +0.000 A 
BRANCH  12  19
ATOM     18  C   UNL     1       1.037   9.185  22.425  0.00  0.00    +0.000 C 
ATOM     19  C   UNL     1       1.068   7.959  21.519  0.00  0.00    +0.000 C 
ENDBRANCH  12  19
ENDBRANCH  11  17
ENDBRANCH   1  11
BRANCH   8  20
ATOM     20  C   UNL     1       8.287   6.548  18.809  0.00  0.00    +0.000 C 
BRANCH  20  21
ATOM     21  C   UNL     1       8.219   8.041  18.494  0.00  0.00    +0.000 C 
ATOM     22  O   UNL     1       7.689   8.425  17.450  0.00  0.00    +0.000 OA
ATOM     23  N   UNL     1       8.974   8.861  19.329  0.00  0.00    +0.000 N 
ATOM     24  H   UNL     1       9.720   8.403  19.845  0.00  0.00    +0.000 HD
BRANCH  23  25
ATOM     25  C   UNL     1       9.115  10.248  19.081  0.00  0.00    +0.000 A 
ATOM     26  C   UNL     1       9.266  10.716  17.769  0.00  0.00    +0.000 A 
ATOM     27  C   UNL     1       9.445  12.078  17.509  0.00  0.00    +0.000 A 
ATOM     28  C   UNL     1       9.491  12.993  18.560  0.00  0.00    +0.000 A 
ATOM     29  C   UNL     1       9.754  14.450  18.309  0.00  0.00    +0.000 C 
ATOM     30  C   UNL     1       9.317  12.529  19.871  0.00  0.00    +0.000 A 
ATOM     31  C   UNL     1       9.116  11.163  20.146  0.00  0.00    +0.000 A 
ATOM     32  C   UNL     1       8.958  10.732  21.578  0.00  0.00    +0.000 C 
ENDBRANCH  23  25
ENDBRANCH  20  21
ENDBRANCH   8  20
TORSDOF 6
ENDMDL
MODEL 3
REMARK VINA RESULT:      -8.2      1.747      2.260
REMARK  Name = 
REMARK  9 active torsions:
REMARK  status: ('A' for Active; 'I' for Inactive)
REMARK    1  A    between atoms: C_1  and  C_2
REMARK    2  A    between atoms: C_2  and  C_3
REMARK    3  A    between atoms: C_8  and  S_9
REMARK    4  A    between atoms: S_9  and  C_10
REMARK    5  A    between atoms: N_17  and  C_18
REMARK    6  A    between atoms: C_18  and  C_19
REMARK    7  A    between atoms: N_21  and  C_22
REMARK    8  A    between atoms: C_25  and  C_26
REMARK    9  A    between atoms: C_28  and  C_29
REMARK                            x       y       z     vdW  Elec       q    Type
REMARK                         _______ _______ _______ _____ _____    ______ ____
ROOT
ATOM      1  C   UNL     1       3.515   4.031  19.201  0.00  0.00    +0.000 A 
ATOM      2  N   UNL     1       3.296   3.022  19.990  0.00  0.00    +0.000 NA
ATOM      3  C   UNL     1       2.473   3.271  21.073  0.00  0.00    +0.000 A 
ATOM      4  C   UNL     1       1.894   4.456  21.339  0.00  0.00    +0.000 A 
ATOM      5  N   UNL     1       2.134   5.497  20.496  0.00  0.00    +0.000 N 
ATOM      6  C   UNL     1       1.688   6.796  20.518  0.00  0.00    +0.000 A 
ATOM      7  O   UNL     1       0.956   7.340  21.328  0.00  0.00    +0.000 OA
ATOM      8  N   UNL     1       2.255   7.391  19.385  0.00  0.00    +0.000 N 
ATOM      9  N   UNL     1       3.056   6.488  18.702  0.00  0.00    +0.000 NA
ATOM     10  C   UNL     1       2.931   5.395  19.398  0.00  0.00    +0.000 A 
ENDROOT
BRANCH   1  11
ATOM     11  S   UNL     1       4.368   3.983  17.702  0.00  0.00    +0.000 S 
BRANCH  11  17
ATOM     12  C   UNL     1       6.141   6.041  16.951  0.00  0.00    +0.000 A 
ATOM     13  C   UNL     1       7.281   6.836  17.196  0.00  0.00    +0.000 A 
ATOM     14  C   UNL     1       7.983   6.749  18.397  0.00  0.00    +0.000 A 
ATOM     15  C   UNL     1       7.567   5.854  19.372  0.00  0.00    +0.000 A 
ATOM     16  C   UNL     1       6.448   5.048  19.148  0.00  0.00    +0.000 A 
ATOM     17  C   UNL     1       5.718   5.134  17.950  0.00  0.00    +0.000 A 
BRANCH  12  19
ATOM     18  C   UNL     1       5.902   5.111  14.602  0.00  0.00    +0.000 C 
ATOM     19  C   UNL     1       5.471   6.183  15.598  0.00  0.00    +0.000 C 
ENDBRANCH  12  19
ENDBRANCH  11  17
ENDBRANCH   1  11
BRANCH   8  20
ATOM     20  C   UNL     1       2.205   8.792  19.044  0.00  0.00    +0.000 C 
BRANCH  20  21
ATOM     21  C   UNL     1       0.885   9.231  18.412  0.00  0.00    +0.000 C 
ATOM     22  O   UNL     1       0.797   9.334  17.187  0.00  0.00    +0.000 OA
ATOM     23  N   UNL     1      -0.075   9.700  19.302  0.00  0.00    +0.000 N 
ATOM     24  H   UNL     1       0.269  10.002  20.210  0.00  0.00    +0.000 HD
BRANCH  23  25
ATOM     25  C   UNL     1      -1.295  10.262  18.854  0.00  0.00    +0.000 A 
ATOM     26  C   UNL     1      -2.043   9.616  17.860  0.00  0.00    +0.000 A 
ATOM     27  C   UNL     1      -3.230  10.176  17.378  0.00  0.00    +0.000 A 
ATOM     28  C   UNL     1      -3.680  11.401  17.871  0.00  0.00    +0.000 A 
ATOM     29  C   UNL     1      -4.912  12.055  17.317  0.00  0.00    +0.000 C 
ATOM     30  C   UNL     1      -2.944  12.036  18.881  0.00  0.00    +0.000 A 
ATOM     31  C   UNL     1      -1.758  11.474  19.391  0.00  0.00    +0.000 A 
ATOM     32  C   UNL     1      -1.008  12.220  20.459  0.00  0.00    +0.000 C 
ENDBRANCH  23  25
ENDBRANCH  20  21
ENDBRANCH   8  20
TORSDOF 6
ENDMDL
MODEL 4
REMARK VINA RESULT:      -8.2      1.071      1.240
REMARK  Name = 
REMARK  9 active torsions:
REMARK  status: ('A' for Active; 'I' for Inactive)
REMARK    1  A    between atoms: C_1  and  C_2
REMARK    2  A    between atoms: C_2  and  C_3
REMARK    3  A    between atoms: C_8  and  S_9
REMARK    4  A    between atoms: S_9  and  C_10
REMARK    5  A    between atoms: N_17  and  C_18
REMARK    6  A    between atoms: C_18  and  C_19
REMARK    7  A    between atoms: N_21  and  C_22
REMARK    8  A    between atoms: C_25  and  C_26
REMARK    9  A    between atoms: C_28  and  C_29
REMARK                            x       y       z     vdW  Elec       q    Type
REMARK                         _______ _______ _______ _____ _____    ______ ____
ROOT
ATOM      1  C   UNL     1       2.897   3.965  18.706  0.00  0.00    +0.000 A 
ATOM      2  N   UNL     1       2.761   3.039  19.608  0.00  0.00    +0.000 NA
ATOM      3  C   UNL     1       2.292   3.460  20.839  0.00  0.00    +0.000 A 
ATOM      4  C   UNL     1       1.965   4.730  21.140  0.00  0.00    +0.000 A 
ATOM      5  N   UNL     1       2.111   5.681  20.178  0.00  0.00    +0.000 N 
ATOM      6  C   UNL     1       1.864   7.032  20.202  0.00  0.00    +0.000 A 
ATOM      7  O   UNL     1       1.448   7.718  21.122  0.00  0.00    +0.000 OA
ATOM      8  N   UNL     1       2.187   7.480  18.916  0.00  0.00    +0.000 N 
ATOM      9  N   UNL     1       2.654   6.436  18.133  0.00  0.00    +0.000 NA
ATOM     10  C   UNL     1       2.571   5.408  18.928  0.00  0.00    +0.000 A 
ENDROOT
BRANCH   1  11
ATOM     11  S   UNL     1       3.314   3.717  17.051  0.00  0.00    +0.000 S 
BRANCH  11  17
ATOM     12  C   UNL     1       5.728   4.362  15.749  0.00  0.00    +0.000 A 
ATOM     13  C   UNL     1       7.108   4.655  15.786  0.00  0.00    +0.000 A 
ATOM     14  C   UNL     1       7.785   4.813  16.994  0.00  0.00    +0.000 A 
ATOM     15  C   UNL     1       7.098   4.665  18.191  0.00  0.00    +0.000 A 
ATOM     16  C   UNL     1       5.734   4.363  18.179  0.00  0.00    +0.000 A 
ATOM     17  C   UNL     1       5.032   4.218  16.970  0.00  0.00    +0.000 A 
BRANCH  12  19
ATOM     18  C   UNL     1       6.098   3.767  13.310  0.00  0.00    +0.000 C 
ATOM     19  C   UNL     1       5.094   4.172  14.384  0.00  0.00    +0.000 C 
ENDBRANCH  12  19
ENDBRANCH  11  17
ENDBRANCH   1  11
BRANCH   8  20
ATOM     20  C   UNL     1       2.236   8.856  18.481  0.00  0.00    +0.000 C 
BRANCH  20  21
ATOM     21  C   UNL     1       0.953   9.638  18.752  0.00  0.00    +0.000 C 
ATOM     22  O   UNL     1       0.072   9.689  17.892  0.00  0.00    +0.000 OA
ATOM     23  N   UNL     1       0.970  10.433  19.895  0.00  0.00    +0.000 N 
ATOM     24  H   UNL     1       1.889  10.669  20.258  0.00  0.00    +0.000 HD
BRANCH  23  25
ATOM     25  C   UNL     1      -0.095  11.314  20.204  0.00  0.00    +0.000 A 
ATOM     26  C   UNL     1      -0.473  12.308  19.292  0.00  0.00    +0.000 A 
ATOM     27  C   UNL     1      -1.496  13.210  19.597  0.00  0.00    +0.000 A 
ATOM     28  C   UNL     1      -2.147  13.144  20.828  0.00  0.00    +0.000 A 
ATOM     29  C   UNL     1      -3.198  14.147  21.206  0.00  0.00    +0.000 C 
ATOM     30  C   UNL     1      -1.785  12.135  21.733  0.00  0.00    +0.000 A 
ATOM     31  C   UNL     1      -0.771  11.207  21.431  0.00  0.00    +0.000 A 
ATOM     32  C   UNL     1      -0.420  10.165  22.456  0.00  0.00    +0.000 C 
ENDBRANCH  23  25
ENDBRANCH  20  21
ENDBRANCH   8  20
TORSDOF 6
ENDMDL
MODEL 5
REMARK VINA RESULT:      -8.2      2.792      3.762
REMARK  Name = 
REMARK  9 active torsions:
REMARK  status: ('A' for Active; 'I' for Inactive)
REMARK    1  A    between atoms: C_1  and  C_2
REMARK    2  A    between atoms: C_2  and  C_3
REMARK    3  A    between atoms: C_8  and  S_9
REMARK    4  A    between atoms: S_9  and  C_10
REMARK    5  A    between atoms: N_17  and  C_18
REMARK    6  A    between atoms: C_18  and  C_19
REMARK    7  A    between atoms: N_21  and  C_22
REMARK    8  A    between atoms: C_25  and  C_26
REMARK    9  A    between atoms: C_28  and  C_29
REMARK                            x       y       z     vdW  Elec       q    Type
REMARK                         _______ _______ _______ _____ _____    ______ ____
ROOT
ATOM      1  C   UNL     1       2.718   7.107  18.709  0.00  0.00    +0.000 A 
ATOM      2  N   UNL     1       2.680   6.032  19.438  0.00  0.00    +0.000 NA
ATOM      3  C   UNL     1       1.967   6.129  20.619  0.00  0.00    +0.000 A 
ATOM      4  C   UNL     1       1.321   7.234  21.035  0.00  0.00    +0.000 A 
ATOM      5  N   UNL     1       1.371   8.346  20.252  0.00  0.00    +0.000 N 
ATOM      6  C   UNL     1       0.820   9.593  20.421  0.00  0.00    +0.000 A 
ATOM      7  O   UNL     1       0.140  10.010  21.344  0.00  0.00    +0.000 OA
ATOM      8  N   UNL     1       1.199  10.312  19.282  0.00  0.00    +0.000 N 
ATOM      9  N   UNL     1       1.993   9.536  18.450  0.00  0.00    +0.000 NA
ATOM     10  C   UNL     1       2.043   8.393  19.070  0.00  0.00    +0.000 A 
ENDROOT
BRANCH   1  11
ATOM     11  S   UNL     1       3.395   7.238  17.127  0.00  0.00    +0.000 S 
BRANCH  11  17
ATOM     12  C   UNL     1       5.119   5.008  17.130  0.00  0.00    +0.000 A 
ATOM     13  C   UNL     1       6.382   4.427  17.371  0.00  0.00    +0.000 A 
ATOM     14  C   UNL     1       7.480   5.203  17.740  0.00  0.00    +0.000 A 
ATOM     15  C   UNL     1       7.333   6.575  17.888  0.00  0.00    +0.000 A 
ATOM     16  C   UNL     1       6.089   7.171  17.665  0.00  0.00    +0.000 A 
ATOM     17  C   UNL     1       4.975   6.407  17.277  0.00  0.00    +0.000 A 
BRANCH  12  19
ATOM     18  C   UNL     1       3.720   3.013  17.838  0.00  0.00    +0.000 C 
ATOM     19  C   UNL     1       3.979   4.073  16.773  0.00  0.00    +0.000 C 
ENDBRANCH  12  19
ENDBRANCH  11  17
ENDBRANCH   1  11
BRANCH   8  20
ATOM     20  C   UNL     1       0.989  11.722  19.056  0.00  0.00    +0.000 C 
BRANCH  20  21
ATOM     21  C   UNL     1      -0.399  12.064  18.518  0.00  0.00    +0.000 C 
ATOM     22  O   UNL     1      -0.592  13.146  17.962  0.00  0.00    +0.000 OA
ATOM     23  N   UNL     1      -1.417  11.195  18.902  0.00  0.00    +0.000 N 
ATOM     24  H   UNL     1      -1.229  10.625  19.722  0.00  0.00    +0.000 HD
BRANCH  23  25
ATOM     25  C   UNL     1      -2.774  11.455  18.591  0.00  0.00    +0.000 A 
ATOM     26  C   UNL     1      -3.566  12.204  19.472  0.00  0.00    +0.000 A 
ATOM     27  C   UNL     1      -4.917  12.438  19.200  0.00  0.00    +0.000 A 
ATOM     28  C   UNL     1      -5.503  11.912  18.049  0.00  0.00    +0.000 A 
ATOM     29  C   UNL     1      -6.968  12.090  17.774  0.00  0.00    +0.000 C 
ATOM     30  C   UNL     1      -4.706  11.182  17.156  0.00  0.00    +0.000 A 
ATOM     31  C   UNL     1      -3.340  10.956  17.406  0.00  0.00    +0.000 A 
ATOM     32  C   UNL     1      -2.550  10.146  16.416  0.00  0.00    +0.000 C 
ENDBRANCH  23  25
ENDBRANCH  20  21
ENDBRANCH   8  20
TORSDOF 6
ENDMDL
MODEL 6
REMARK VINA RESULT:      -8.2      1.012      1.603
REMARK  Name = 
REMARK  9 active torsions:
REMARK  status: ('A' for Active; 'I' for Inactive)
REMARK    1  A    between atoms: C_1  and  C_2
REMARK    2  A    between atoms: C_2  and  C_3
REMARK    3  A    between atoms: C_8  and  S_9
REMARK    4  A    between atoms: S_9  and  C_10
REMARK    5  A    between atoms: N_17  and  C_18
REMARK    6  A    between atoms: C_18  and  C_19
REMARK    7  A    between atoms: N_21  and  C_22
REMARK    8  A    between atoms: C_25  and  C_26
REMARK    9  A    between atoms: C_28  and  C_29
REMARK                            x       y       z     vdW  Elec       q    Type
REMARK                         _______ _______ _______ _____ _____    ______ ____
ROOT
ATOM      1  C   UNL     1       2.888   4.103  18.716  0.00  0.00    +0.000 A 
ATOM      2  N   UNL     1       2.852   3.113  19.557  0.00  0.00    +0.000 NA
ATOM      3  C   UNL     1       2.399   3.417  20.827  0.00  0.00    +0.000 A 
ATOM      4  C   UNL     1       1.994   4.638  21.224  0.00  0.00    +0.000 A 
ATOM      5  N   UNL     1       2.036   5.658  20.324  0.00  0.00    +0.000 N 
ATOM      6  C   UNL     1       1.695   6.983  20.447  0.00  0.00    +0.000 A 
ATOM      7  O   UNL     1       1.265   7.575  21.424  0.00  0.00    +0.000 OA
ATOM      8  N   UNL     1       1.938   7.536  19.185  0.00  0.00    +0.000 N 
ATOM      9  N   UNL     1       2.449   6.582  18.318  0.00  0.00    +0.000 NA
ATOM     10  C   UNL     1       2.469   5.502  19.044  0.00  0.00    +0.000 A 
ENDROOT
BRANCH   1  11
ATOM     11  S   UNL     1       3.260   3.995  17.034  0.00  0.00    +0.000 S 
BRANCH  11  17
ATOM     12  C   UNL     1       5.743   4.377  15.758  0.00  0.00    +0.000 A 
ATOM     13  C   UNL     1       7.140   4.575  15.812  0.00  0.00    +0.000 A 
ATOM     14  C   UNL     1       7.799   4.768  17.026  0.00  0.00    +0.000 A 
ATOM     15  C   UNL     1       7.077   4.752  18.210  0.00  0.00    +0.000 A 
ATOM     16  C   UNL     1       5.695   4.547  18.182  0.00  0.00    +0.000 A 
ATOM     17  C   UNL     1       5.011   4.367  16.967  0.00  0.00    +0.000 A 
BRANCH  12  19
ATOM     18  C   UNL     1       6.159   3.787  13.325  0.00  0.00    +0.000 C 
ATOM     19  C   UNL     1       5.127   4.137  14.393  0.00  0.00    +0.000 C 
ENDBRANCH  12  19
ENDBRANCH  11  17
ENDBRANCH   1  11
BRANCH   8  20
ATOM     20  C   UNL     1       1.873   8.937  18.842  0.00  0.00    +0.000 C 
BRANCH  20  21
ATOM     21  C   UNL     1       0.772   9.703  19.572  0.00  0.00    +0.000 C 
ATOM     22  O   UNL     1      -0.303   9.916  19.010  0.00  0.00    +0.000 OA
ATOM     23  N   UNL     1       1.157  10.305  20.766  0.00  0.00    +0.000 N 
ATOM     24  H   UNL     1       2.155  10.454  20.888  0.00  0.00    +0.000 HD
BRANCH  23  25
ATOM     25  C   UNL     1       0.284  11.157  21.486  0.00  0.00    +0.000 A 
ATOM     26  C   UNL     1      -0.645  10.614  22.384  0.00  0.00    +0.000 A 
ATOM     27  C   UNL     1      -1.541  11.437  23.074  0.00  0.00    +0.000 A 
ATOM     28  C   UNL     1      -1.533  12.816  22.865  0.00  0.00    +0.000 A 
ATOM     29  C   UNL     1      -2.532  13.709  23.540  0.00  0.00    +0.000 C 
ATOM     30  C   UNL     1      -0.588  13.361  21.984  0.00  0.00    +0.000 A 
ATOM     31  C   UNL     1       0.333  12.548  21.298  0.00  0.00    +0.000 A 
ATOM     32  C   UNL     1       1.304  13.198  20.352  0.00  0.00    +0.000 C 
ENDBRANCH  23  25
ENDBRANCH  20  21
ENDBRANCH   8  20
TORSDOF 6
ENDMDL
MODEL 7
REMARK VINA RESULT:      -8.2      6.732      9.690
REMARK  Name = 
REMARK  9 active torsions:
REMARK  status: ('A' for Active; 'I' for Inactive)
REMARK    1  A    between atoms: C_1  and  C_2
REMARK    2  A    between atoms: C_2  and  C_3
REMARK    3  A    between atoms: C_8  and  S_9
REMARK    4  A    between atoms: S_9  and  C_10
REMARK    5  A    between atoms: N_17  and  C_18
REMARK    6  A    between atoms: C_18  and  C_19
REMARK    7  A    between atoms: N_21  and  C_22
REMARK    8  A    between atoms: C_25  and  C_26
REMARK    9  A    between atoms: C_28  and  C_29
REMARK                            x       y       z     vdW  Elec       q    Type
REMARK                         _______ _______ _______ _____ _____    ______ ____
ROOT
ATOM      1  C   UNL     1      -1.748  13.676  23.537  0.00  0.00    +0.000 A 
ATOM      2  N   UNL     1      -1.145  14.521  24.319  0.00  0.00    +0.000 NA
ATOM      3  C   UNL     1      -1.955  15.461  24.929  0.00  0.00    +0.000 A 
ATOM      4  C   UNL     1      -3.289  15.539  24.775  0.00  0.00    +0.000 A 
ATOM      5  N   UNL     1      -3.899  14.640  23.955  0.00  0.00    +0.000 N 
ATOM      6  C   UNL     1      -5.221  14.484  23.612  0.00  0.00    +0.000 A 
ATOM      7  O   UNL     1      -6.186  15.139  23.970  0.00  0.00    +0.000 OA
ATOM      8  N   UNL     1      -5.241  13.383  22.749  0.00  0.00    +0.000 N 
ATOM      9  N   UNL     1      -3.960  12.896  22.539  0.00  0.00    +0.000 NA
ATOM     10  C   UNL     1      -3.223  13.668  23.284  0.00  0.00    +0.000 A 
ENDROOT
BRANCH   1  11
ATOM     11  S   UNL     1      -1.027  12.311  22.767  0.00  0.00    +0.000 S 
BRANCH  11  17
ATOM     12  C   UNL     1       0.138  12.168  20.205  0.00  0.00    +0.000 A 
ATOM     13  C   UNL     1       0.490  12.766  18.976  0.00  0.00    +0.000 A 
ATOM     14  C   UNL     1       0.085  14.062  18.656  0.00  0.00    +0.000 A 
ATOM     15  C   UNL     1      -0.668  14.790  19.567  0.00  0.00    +0.000 A 
ATOM     16  C   UNL     1      -1.018  14.223  20.795  0.00  0.00    +0.000 A 
ATOM     17  C   UNL     1      -0.633  12.913  21.127  0.00  0.00    +0.000 A 
BRANCH  12  19
ATOM     18  C   UNL     1       0.320   9.782  19.362  0.00  0.00    +0.000 C 
ATOM     19  C   UNL     1       0.660  10.770  20.473  0.00  0.00    +0.000 C 
ENDBRANCH  12  19
ENDBRANCH  11  17
ENDBRANCH   1  11
BRANCH   8  20
ATOM     20  C   UNL     1      -6.381  12.910  22.000  0.00  0.00    +0.000 C 
BRANCH  20  21
ATOM     21  C   UNL     1      -6.014  12.138  20.734  0.00  0.00    +0.000 C 
ATOM     22  O   UNL     1      -6.347  10.957  20.618  0.00  0.00    +0.000 OA
ATOM     23  N   UNL     1      -5.121  12.781  19.882  0.00  0.00    +0.000 N 
ATOM     24  H   UNL     1      -4.565  13.523  20.299  0.00  0.00    +0.000 HD
BRANCH  23  25
ATOM     25  C   UNL     1      -4.588  12.137  18.739  0.00  0.00    +0.000 A 
ATOM     26  C   UNL     1      -3.287  11.617  18.768  0.00  0.00    +0.000 A 
ATOM     27  C   UNL     1      -2.730  11.013  17.637  0.00  0.00    +0.000 A 
ATOM     28  C   UNL     1      -3.461  10.932  16.452  0.00  0.00    +0.000 A 
ATOM     29  C   UNL     1      -2.858  10.353  15.206  0.00  0.00    +0.000 C 
ATOM     30  C   UNL     1      -4.771  11.432  16.429  0.00  0.00    +0.000 A 
ATOM     31  C   UNL     1      -5.352  12.025  17.566  0.00  0.00    +0.000 A 
ATOM     32  C   UNL     1      -6.753  12.559  17.465  0.00  0.00    +0.000 C 
ENDBRANCH  23  25
ENDBRANCH  20  21
ENDBRANCH   8  20
TORSDOF 6
ENDMDL
MODEL 8
REMARK VINA RESULT:      -8.2      5.325      8.024
REMARK  Name = 
REMARK  9 active torsions:
REMARK  status: ('A' for Active; 'I' for Inactive)
REMARK    1  A    between atoms: C_1  and  C_2
REMARK    2  A    between atoms: C_2  and  C_3
REMARK    3  A    between atoms: C_8  and  S_9
REMARK    4  A    between atoms: S_9  and  C_10
REMARK    5  A    between atoms: N_17  and  C_18
REMARK    6  A    between atoms: C_18  and  C_19
REMARK    7  A    between atoms: N_21  and  C_22
REMARK    8  A    between atoms: C_25  and  C_26
REMARK    9  A    between atoms: C_28  and  C_29
REMARK                            x       y       z     vdW  Elec       q    Type
REMARK                         _______ _______ _______ _____ _____    ______ ____
ROOT
ATOM      1  C   UNL     1      -2.027  11.735  18.147  0.00  0.00    +0.000 A 
ATOM      2  N   UNL     1      -1.930  11.224  16.956  0.00  0.00    +0.000 NA
ATOM      3  C   UNL     1      -3.121  10.847  16.362  0.00  0.00    +0.000 A 
ATOM      4  C   UNL     1      -4.335  10.988  16.925  0.00  0.00    +0.000 A 
ATOM      5  N   UNL     1      -4.412  11.530  18.170  0.00  0.00    +0.000 N 
ATOM      6  C   UNL     1      -5.495  11.787  18.976  0.00  0.00    +0.000 A 
ATOM      7  O   UNL     1      -6.677  11.578  18.759  0.00  0.00    +0.000 OA
ATOM      8  N   UNL     1      -4.955  12.365  20.131  0.00  0.00    +0.000 N 
ATOM      9  N   UNL     1      -3.572  12.428  20.051  0.00  0.00    +0.000 NA
ATOM     10  C   UNL     1      -3.320  11.935  18.873  0.00  0.00    +0.000 A 
ENDROOT
BRANCH   1  11
ATOM     11  S   UNL     1      -0.740  12.429  19.062  0.00  0.00    +0.000 S 
BRANCH  11  17
ATOM     12  C   UNL     1       0.672  10.051  19.603  0.00  0.00    +0.000 A 
ATOM     13  C   UNL     1       0.979   8.965  20.451  0.00  0.00    +0.000 A 
ATOM     14  C   UNL     1       0.471   8.891  21.748  0.00  0.00    +0.000 A 
ATOM     15  C   UNL     1      -0.364   9.894  22.217  0.00  0.00    +0.000 A 
ATOM     16  C   UNL     1      -0.691  10.973  21.392  0.00  0.00    +0.000 A 
ATOM     17  C   UNL     1      -0.176  11.073  20.088  0.00  0.00    +0.000 A 
BRANCH  12  19
ATOM     18  C   UNL     1       1.936   8.702  17.865  0.00  0.00    +0.000 C 
ATOM     19  C   UNL     1       1.242  10.019  18.198  0.00  0.00    +0.000 C 
ENDBRANCH  12  19
ENDBRANCH  11  17
ENDBRANCH   1  11
BRANCH   8  20
ATOM     20  C   UNL     1      -5.675  12.679  21.342  0.00  0.00    +0.000 C 
BRANCH  20  21
ATOM     21  C   UNL     1      -4.778  13.087  22.509  0.00  0.00    +0.000 C 
ATOM     22  O   UNL     1      -4.865  12.495  23.586  0.00  0.00    +0.000 OA
ATOM     23  N   UNL     1      -4.066  14.269  22.327  0.00  0.00    +0.000 N 
ATOM     24  H   UNL     1      -4.424  14.898  21.614  0.00  0.00    +0.000 HD
BRANCH  23  25
ATOM     25  C   UNL     1      -3.297  14.842  23.369  0.00  0.00    +0.000 A 
ATOM     26  C   UNL     1      -1.963  14.454  23.553  0.00  0.00    +0.000 A 
ATOM     27  C   UNL     1      -1.200  14.981  24.600  0.00  0.00    +0.000 A 
ATOM     28  C   UNL     1      -1.765  15.893  25.491  0.00  0.00    +0.000 A 
ATOM     29  C   UNL     1      -0.988  16.415  26.664  0.00  0.00    +0.000 C 
ATOM     30  C   UNL     1      -3.093  16.299  25.294  0.00  0.00    +0.000 A 
ATOM     31  C   UNL     1      -3.866  15.792  24.232  0.00  0.00    +0.000 A 
ATOM     32  C   UNL     1      -5.290  16.255  24.093  0.00  0.00    +0.000 C 
ENDBRANCH  23  25
ENDBRANCH  20  21
ENDBRANCH   8  20
TORSDOF 6
ENDMDL
MODEL 9
REMARK VINA RESULT:      -8.1      3.183      9.119
REMARK  Name = 
REMARK  9 active torsions:
REMARK  status: ('A' for Active; 'I' for Inactive)
REMARK    1  A    between atoms: C_1  and  C_2
REMARK    2  A    between atoms: C_2  and  C_3
REMARK    3  A    between atoms: C_8  and  S_9
REMARK    4  A    between atoms: S_9  and  C_10
REMARK    5  A    between atoms: N_17  and  C_18
REMARK    6  A    between atoms: C_18  and  C_19
REMARK    7  A    between atoms: N_21  and  C_22
REMARK    8  A    between atoms: C_25  and  C_26
REMARK    9  A    between atoms: C_28  and  C_29
REMARK                            x       y       z     vdW  Elec       q    Type
REMARK                         _______ _______ _______ _____ _____    ______ ____
ROOT
ATOM      1  C   UNL     1      -0.965  11.403  20.951  0.00  0.00    +0.000 A 
ATOM      2  N   UNL     1      -1.278  11.375  22.212  0.00  0.00    +0.000 NA
ATOM      3  C   UNL     1      -0.682  10.375  22.958  0.00  0.00    +0.000 A 
ATOM      4  C   UNL     1       0.185   9.469  22.471  0.00  0.00    +0.000 A 
ATOM      5  N   UNL     1       0.501   9.521  21.149  0.00  0.00    +0.000 N 
ATOM      6  C   UNL     1       1.338   8.739  20.391  0.00  0.00    +0.000 A 
ATOM      7  O   UNL     1       2.010   7.781  20.735  0.00  0.00    +0.000 OA
ATOM      8  N   UNL     1       1.271   9.283  19.103  0.00  0.00    +0.000 N 
ATOM      9  N   UNL     1       0.387  10.351  19.064  0.00  0.00    +0.000 NA
ATOM     10  C   UNL     1      -0.018  10.446  20.297  0.00  0.00    +0.000 A 
ENDROOT
BRANCH   1  11
ATOM     11  S   UNL     1      -1.429  12.617  19.816  0.00  0.00    +0.000 S 
BRANCH  11  17
ATOM     12  C   UNL     1      -3.410  11.398  18.224  0.00  0.00    +0.000 A 
ATOM     13  C   UNL     1      -4.765  11.178  17.897  0.00  0.00    +0.000 A 
ATOM     14  C   UNL     1      -5.795  11.687  18.686  0.00  0.00    +0.000 A 
ATOM     15  C   UNL     1      -5.490  12.439  19.812  0.00  0.00    +0.000 A 
ATOM     16  C   UNL     1      -4.156  12.680  20.149  0.00  0.00    +0.000 A 
ATOM     17  C   UNL     1      -3.104  12.161  19.375  0.00  0.00    +0.000 A 
BRANCH  12  19
ATOM     18  C   UNL     1      -2.783  10.908  15.814  0.00  0.00    +0.000 C 
ATOM     19  C   UNL     1      -2.365  10.835  17.279  0.00  0.00    +0.000 C 
ENDBRANCH  12  19
ENDBRANCH  11  17
ENDBRANCH   1  11
BRANCH   8  20
ATOM     20  C   UNL     1       1.860   8.724  17.910  0.00  0.00    +0.000 C 
BRANCH  20  21
ATOM     21  C   UNL     1       2.622   7.421  18.147  0.00  0.00    +0.000 C 
ATOM     22  O   UNL     1       3.850   7.403  18.053  0.00  0.00    +0.000 OA
ATOM     23  N   UNL     1       1.833   6.278  18.240  0.00  0.00    +0.000 N 
ATOM     24  H   UNL     1       0.900   6.349  17.844  0.00  0.00    +0.000 HD
BRANCH  23  25
ATOM     25  C   UNL     1       2.403   4.985  18.328  0.00  0.00    +0.000 A 
ATOM     26  C   UNL     1       3.282   4.536  17.333  0.00  0.00    +0.000 A 
ATOM     27  C   UNL     1       3.824   3.248  17.383  0.00  0.00    +0.000 A 
ATOM     28  C   UNL     1       3.483   2.382  18.422  0.00  0.00    +0.000 A 
ATOM     29  C   UNL     1       3.996   0.972  18.456  0.00  0.00    +0.000 C 
ATOM     30  C   UNL     1       2.623   2.839  19.429  0.00  0.00    +0.000 A 
ATOM     31  C   UNL     1       2.085   4.140  19.403  0.00  0.00    +0.000 A 
ATOM     32  C   UNL     1       1.151   4.556  20.505  0.00  0.00    +0.000 C 
ENDBRANCH  23  25
ENDBRANCH  20  21
ENDBRANCH   8  20
TORSDOF 6
ENDMDL
