MODEL 1
REMARK VINA RESULT:      -7.8      0.000      0.000
REMARK  Name = 
REMARK  4 active torsions:
REMARK  status: ('A' for Active; 'I' for Inactive)
REMARK    1  A    between atoms: C_2  and  C_12
REMARK    2  A    between atoms: C_6  and  C_7
REMARK    3  A    between atoms: C_14  and  O_15
REMARK    4  A    between atoms: O_15  and  C_16
REMARK                            x       y       z     vdW  Elec       q    Type
REMARK                         _______ _______ _______ _____ _____    ______ ____
ROOT
ATOM      1  C   UNL     1       3.030   5.739  19.545  0.00  0.00    +0.000 A 
ATOM      2  C   UNL     1       4.264   5.645  18.916  0.00  0.00    +0.000 A 
ATOM      3  C   UNL     1       4.954   4.445  18.998  0.00  0.00    +0.000 A 
ATOM      4  C   UNL     1       4.340   3.351  19.598  0.00  0.00    +0.000 A 
ATOM      5  C   UNL     1       3.091   3.533  20.178  0.00  0.00    +0.000 A 
ATOM      6  N   UNL     1       2.426   4.713  20.202  0.00  0.00    +0.000 NA
ENDROOT
BRANCH   1   8
ATOM      7  O   UNL     1       2.337   7.676  18.459  0.00  0.00    +0.000 OA
ATOM      8  C   UNL     1       2.331   7.055  19.514  0.00  0.00    +0.000 C 
ATOM      9  N   UNL     1       1.783   7.467  20.709  0.00  0.00    +0.000 N 
ATOM     10  C   UNL     1       1.156   8.678  20.785  0.00  0.00    +0.000 A 
ATOM     11  N   UNL     1       0.817   9.466  19.797  0.00  0.00    +0.000 NA
ATOM     12  C   UNL     1       0.261  10.636  20.278  0.00  0.00    +0.000 A 
ATOM     13  C   UNL     1       0.200  10.705  21.658  0.00  0.00    +0.000 A 
ATOM     14  S   UNL     1       0.791   9.242  22.351  0.00  0.00    +0.000 S 
ATOM     15  H   UNL     1       1.924   6.913  21.542  0.00  0.00    +0.000 HD
BRANCH  12  16
ATOM     16  C   UNL     1      -0.196  11.674  19.303  0.00  0.00    +0.000 C 
ATOM     17  F   UNL     1      -0.841  11.102  18.247  0.00  0.00    +0.000 F 
ATOM     18  F   UNL     1      -1.096  12.524  19.874  0.00  0.00    +0.000 F 
ENDBRANCH  12  16
ENDBRANCH   1   8
BRANCH   3  19
ATOM     19  O   UNL     1       6.212   4.248  18.468  0.00  0.00    +0.000 OA
BRANCH  19  20
ATOM     20  C   UNL     1       6.398   4.420  17.122  0.00  0.00    +0.000 A 
ATOM     21  C   UNL     1       5.782   3.703  16.116  0.00  0.00    +0.000 A 
ATOM     22  N   UNL     1       6.024   3.888  14.800  0.00  0.00    +0.000 NA
ATOM     23  C   UNL     1       6.898   4.862  14.502  0.00  0.00    +0.000 A 
ATOM     24  N   UNL     1       7.512   5.665  15.386  0.00  0.00    +0.000 NA
ATOM     25  C   UNL     1       7.236   5.424  16.687  0.00  0.00    +0.000 A 
ENDBRANCH  19  20
ENDBRANCH   3  19
TORSDOF 4
ENDMDL
MODEL 2
REMARK VINA RESULT:      -7.8      0.457      1.151
REMARK  Name = 
REMARK  4 active torsions:
REMARK  status: ('A' for Active; 'I' for Inactive)
REMARK    1  A    between atoms: C_2  and  C_12
REMARK    2  A    between atoms: C_6  and  C_7
REMARK    3  A    between atoms: C_14  and  O_15
REMARK    4  A    between atoms: O_15  and  C_16
REMARK                            x       y       z     vdW  Elec       q    Type
REMARK                         _______ _______ _______ _____ _____    ______ ____
ROOT
ATOM      1  C   UNL     1       2.997   5.714  19.595  0.00  0.00    +0.000 A 
ATOM      2  C   UNL     1       4.242   5.605  18.991  0.00  0.00    +0.000 A 
ATOM      3  C   UNL     1       4.916   4.396  19.087  0.00  0.00    +0.000 A 
ATOM      4  C   UNL     1       4.276   3.309  19.673  0.00  0.00    +0.000 A 
ATOM      5  C   UNL     1       3.017   3.507  20.228  0.00  0.00    +0.000 A 
ATOM      6  N   UNL     1       2.367   4.695  20.238  0.00  0.00    +0.000 NA
ENDROOT
BRANCH   1   8
ATOM      7  O   UNL     1       2.341   7.655  18.493  0.00  0.00    +0.000 OA
ATOM      8  C   UNL     1       2.315   7.039  19.550  0.00  0.00    +0.000 C 
ATOM      9  N   UNL     1       1.759   7.463  20.737  0.00  0.00    +0.000 N 
ATOM     10  C   UNL     1       1.147   8.681  20.801  0.00  0.00    +0.000 A 
ATOM     11  N   UNL     1       0.829   9.470  19.806  0.00  0.00    +0.000 NA
ATOM     12  C   UNL     1       0.283  10.649  20.275  0.00  0.00    +0.000 A 
ATOM     13  C   UNL     1       0.207  10.724  21.654  0.00  0.00    +0.000 A 
ATOM     14  S   UNL     1       0.772   9.257  22.360  0.00  0.00    +0.000 S 
ATOM     15  H   UNL     1       1.883   6.911  21.574  0.00  0.00    +0.000 HD
BRANCH  12  16
ATOM     16  C   UNL     1      -0.149  11.688  19.291  0.00  0.00    +0.000 C 
ATOM     17  F   UNL     1       0.929  12.297  18.720  0.00  0.00    +0.000 F 
ATOM     18  F   UNL     1      -0.851  11.132  18.264  0.00  0.00    +0.000 F 
ENDBRANCH  12  16
ENDBRANCH   1   8
BRANCH   3  19
ATOM     19  O   UNL     1       6.181   4.183  18.583  0.00  0.00    +0.000 OA
BRANCH  19  20
ATOM     20  C   UNL     1       6.426   4.465  17.265  0.00  0.00    +0.000 A 
ATOM     21  C   UNL     1       7.256   5.457  16.784  0.00  0.00    +0.000 A 
ATOM     22  N   UNL     1       7.440   5.718  15.471  0.00  0.00    +0.000 NA
ATOM     23  C   UNL     1       6.781   4.914  14.622  0.00  0.00    +0.000 A 
ATOM     24  N   UNL     1       5.997   3.880  14.967  0.00  0.00    +0.000 NA
ATOM     25  C   UNL     1       5.845   3.676  16.294  0.00  0.00    +0.000 A 
ENDBRANCH  19  20
ENDBRANCH   3  19
TORSDOF 4
ENDMDL
MODEL 3
REMARK VINA RESULT:      -7.6      1.477      1.670
REMARK  Name = 
REMARK  4 active torsions:
REMARK  status: ('A' for Active; 'I' for Inactive)
REMARK    1  A    between atoms: C_2  and  C_12
REMARK    2  A    between atoms: C_6  and  C_7
REMARK    3  A    between atoms: C_14  and  O_15
REMARK    4  A    between atoms: O_15  and  C_16
REMARK                            x       y       z     vdW  Elec       q    Type
REMARK                         _______ _______ _______ _____ _____    ______ ____
ROOT
ATOM      1  C   UNL     1       2.996   5.299  19.801  0.00  0.00    +0.000 A 
ATOM      2  C   UNL     1       4.241   5.426  19.201  0.00  0.00    +0.000 A 
ATOM      3  C   UNL     1       4.997   4.280  19.006  0.00  0.00    +0.000 A 
ATOM      4  C   UNL     1       4.439   3.042  19.304  0.00  0.00    +0.000 A 
ATOM      5  C   UNL     1       3.173   3.011  19.878  0.00  0.00    +0.000 A 
ATOM      6  N   UNL     1       2.443   4.113  20.171  0.00  0.00    +0.000 NA
ENDROOT
BRANCH   1   8
ATOM      7  O   UNL     1       1.507   6.561  21.066  0.00  0.00    +0.000 OA
ATOM      8  C   UNL     1       2.224   6.545  20.074  0.00  0.00    +0.000 C 
ATOM      9  N   UNL     1       2.361   7.548  19.140  0.00  0.00    +0.000 N 
ATOM     10  C   UNL     1       1.662   8.711  19.288  0.00  0.00    +0.000 A 
ATOM     11  N   UNL     1       0.987   9.111  20.335  0.00  0.00    +0.000 NA
ATOM     12  C   UNL     1       0.359  10.315  20.078  0.00  0.00    +0.000 A 
ATOM     13  C   UNL     1       0.577  10.802  18.802  0.00  0.00    +0.000 A 
ATOM     14  S   UNL     1       1.645   9.758  17.943  0.00  0.00    +0.000 S 
ATOM     15  H   UNL     1       2.909   7.385  18.307  0.00  0.00    +0.000 HD
BRANCH  12  16
ATOM     16  C   UNL     1      -0.467  10.944  21.154  0.00  0.00    +0.000 C 
ATOM     17  F   UNL     1      -1.603  11.494  20.639  0.00  0.00    +0.000 F 
ATOM     18  F   UNL     1      -0.880  10.016  22.063  0.00  0.00    +0.000 F 
ENDBRANCH  12  16
ENDBRANCH   1   8
BRANCH   3  19
ATOM     19  O   UNL     1       6.270   4.284  18.477  0.00  0.00    +0.000 OA
BRANCH  19  20
ATOM     20  C   UNL     1       6.427   4.453  17.127  0.00  0.00    +0.000 A 
ATOM     21  C   UNL     1       5.785   3.737  16.136  0.00  0.00    +0.000 A 
ATOM     22  N   UNL     1       5.999   3.919  14.815  0.00  0.00    +0.000 NA
ATOM     23  C   UNL     1       6.870   4.889  14.496  0.00  0.00    +0.000 A 
ATOM     24  N   UNL     1       7.507   5.691  15.364  0.00  0.00    +0.000 NA
ATOM     25  C   UNL     1       7.259   5.453  16.671  0.00  0.00    +0.000 A 
ENDBRANCH  19  20
ENDBRANCH   3  19
TORSDOF 4
ENDMDL
MODEL 4
REMARK VINA RESULT:      -7.5      2.295      2.865
REMARK  Name = 
REMARK  4 active torsions:
REMARK  status: ('A' for Active; 'I' for Inactive)
REMARK    1  A    between atoms: C_2  and  C_12
REMARK    2  A    between atoms: C_6  and  C_7
REMARK    3  A    between atoms: C_14  and  O_15
REMARK    4  A    between atoms: O_15  and  C_16
REMARK                            x       y       z     vdW  Elec       q    Type
REMARK                         _______ _______ _______ _____ _____    ______ ____
ROOT
ATOM      1  C   UNL     1       2.778   5.023  19.183  0.00  0.00    +0.000 A 
ATOM      2  C   UNL     1       4.130   5.216  18.934  0.00  0.00    +0.000 A 
ATOM      3  C   UNL     1       4.814   4.239  18.225  0.00  0.00    +0.000 A 
ATOM      4  C   UNL     1       4.105   3.170  17.689  0.00  0.00    +0.000 A 
ATOM      5  C   UNL     1       2.748   3.074  17.969  0.00  0.00    +0.000 A 
ATOM      6  N   UNL     1       2.063   3.956  18.736  0.00  0.00    +0.000 NA
ENDROOT
BRANCH   1   8
ATOM      7  O   UNL     1       1.483   5.651  21.010  0.00  0.00    +0.000 OA
ATOM      8  C   UNL     1       2.069   6.041  20.009  0.00  0.00    +0.000 C 
ATOM      9  N   UNL     1       2.107   7.331  19.527  0.00  0.00    +0.000 N 
ATOM     10  C   UNL     1       1.454   8.324  20.198  0.00  0.00    +0.000 A 
ATOM     11  N   UNL     1       0.923   8.267  21.392  0.00  0.00    +0.000 NA
ATOM     12  C   UNL     1       0.289   9.456  21.701  0.00  0.00    +0.000 A 
ATOM     13  C   UNL     1       0.355  10.405  20.696  0.00  0.00    +0.000 A 
ATOM     14  S   UNL     1       1.287   9.808  19.376  0.00  0.00    +0.000 S 
ATOM     15  H   UNL     1       2.543   7.520  18.636  0.00  0.00    +0.000 HD
BRANCH  12  16
ATOM     16  C   UNL     1      -0.383   9.594  23.028  0.00  0.00    +0.000 C 
ATOM     17  F   UNL     1       0.495   9.366  24.047  0.00  0.00    +0.000 F 
ATOM     18  F   UNL     1      -0.849  10.862  23.215  0.00  0.00    +0.000 F 
ENDBRANCH  12  16
ENDBRANCH   1   8
BRANCH   3  19
ATOM     19  O   UNL     1       6.168   4.288  17.968  0.00  0.00    +0.000 OA
BRANCH  19  20
ATOM     20  C   UNL     1       6.798   5.504  17.963  0.00  0.00    +0.000 A 
ATOM     21  C   UNL     1       7.716   5.951  18.892  0.00  0.00    +0.000 A 
ATOM     22  N   UNL     1       8.288   7.175  18.861  0.00  0.00    +0.000 NA
ATOM     23  C   UNL     1       7.936   7.953  17.826  0.00  0.00    +0.000 A 
ATOM     24  N   UNL     1       7.105   7.608  16.829  0.00  0.00    +0.000 NA
ATOM     25  C   UNL     1       6.559   6.376  16.922  0.00  0.00    +0.000 A 
ENDBRANCH  19  20
ENDBRANCH   3  19
TORSDOF 4
ENDMDL
MODEL 5
REMARK VINA RESULT:      -7.5      1.581      1.984
REMARK  Name = 
REMARK  4 active torsions:
REMARK  status: ('A' for Active; 'I' for Inactive)
REMARK    1  A    between atoms: C_2  and  C_12
REMARK    2  A    between atoms: C_6  and  C_7
REMARK    3  A    between atoms: C_14  and  O_15
REMARK    4  A    between atoms: O_15  and  C_16
REMARK                            x       y       z     vdW  Elec       q    Type
REMARK                         _______ _______ _______ _____ _____    ______ ____
ROOT
ATOM      1  C   UNL     1       2.986   5.126  19.866  0.00  0.00    +0.000 A 
ATOM      2  C   UNL     1       4.232   5.235  19.265  0.00  0.00    +0.000 A 
ATOM      3  C   UNL     1       4.992   4.084  19.110  0.00  0.00    +0.000 A 
ATOM      4  C   UNL     1       4.435   2.856  19.449  0.00  0.00    +0.000 A 
ATOM      5  C   UNL     1       3.169   2.842  20.022  0.00  0.00    +0.000 A 
ATOM      6  N   UNL     1       2.435   3.952  20.276  0.00  0.00    +0.000 NA
ENDROOT
BRANCH   1   8
ATOM      7  O   UNL     1       1.423   6.393  21.032  0.00  0.00    +0.000 OA
ATOM      8  C   UNL     1       2.211   6.378  20.095  0.00  0.00    +0.000 C 
ATOM      9  N   UNL     1       2.429   7.389  19.186  0.00  0.00    +0.000 N 
ATOM     10  C   UNL     1       1.735   8.559  19.294  0.00  0.00    +0.000 A 
ATOM     11  N   UNL     1       0.989   8.957  20.293  0.00  0.00    +0.000 NA
ATOM     12  C   UNL     1       0.396  10.171  20.003  0.00  0.00    +0.000 A 
ATOM     13  C   UNL     1       0.714  10.669  18.752  0.00  0.00    +0.000 A 
ATOM     14  S   UNL     1       1.830   9.619  17.964  0.00  0.00    +0.000 S 
ATOM     15  H   UNL     1       3.035   7.227  18.394  0.00  0.00    +0.000 HD
BRANCH  12  16
ATOM     16  C   UNL     1      -0.500  10.799  21.022  0.00  0.00    +0.000 C 
ATOM     17  F   UNL     1      -0.791   9.922  22.024  0.00  0.00    +0.000 F 
ATOM     18  F   UNL     1       0.107  11.862  21.622  0.00  0.00    +0.000 F 
ENDBRANCH  12  16
ENDBRANCH   1   8
BRANCH   3  19
ATOM     19  O   UNL     1       6.266   4.074  18.584  0.00  0.00    +0.000 OA
BRANCH  19  20
ATOM     20  C   UNL     1       6.446   4.436  17.276  0.00  0.00    +0.000 A 
ATOM     21  C   UNL     1       7.228   5.477  16.818  0.00  0.00    +0.000 A 
ATOM     22  N   UNL     1       7.348   5.816  15.516  0.00  0.00    +0.000 NA
ATOM     23  C   UNL     1       6.675   5.042  14.651  0.00  0.00    +0.000 A 
ATOM     24  N   UNL     1       5.935   3.968  14.968  0.00  0.00    +0.000 NA
ATOM     25  C   UNL     1       5.846   3.686  16.286  0.00  0.00    +0.000 A 
ENDBRANCH  19  20
ENDBRANCH   3  19
TORSDOF 4
ENDMDL
MODEL 6
REMARK VINA RESULT:      -7.4      5.494      7.322
REMARK  Name = 
REMARK  4 active torsions:
REMARK  status: ('A' for Active; 'I' for Inactive)
REMARK    1  A    between atoms: C_2  and  C_12
REMARK    2  A    between atoms: C_6  and  C_7
REMARK    3  A    between atoms: C_14  and  O_15
REMARK    4  A    between atoms: O_15  and  C_16
REMARK                            x       y       z     vdW  Elec       q    Type
REMARK                         _______ _______ _______ _____ _____    ______ ____
ROOT
ATOM      1  C   UNL     1       6.993   6.825  17.220  0.00  0.00    +0.000 A 
ATOM      2  C   UNL     1       5.692   6.654  17.675  0.00  0.00    +0.000 A 
ATOM      3  C   UNL     1       4.875   5.753  17.008  0.00  0.00    +0.000 A 
ATOM      4  C   UNL     1       5.417   4.970  15.995  0.00  0.00    +0.000 A 
ATOM      5  C   UNL     1       6.738   5.193  15.625  0.00  0.00    +0.000 A 
ATOM      6  N   UNL     1       7.539   6.129  16.187  0.00  0.00    +0.000 NA
ENDROOT
BRANCH   1   8
ATOM      7  O   UNL     1       8.521   7.486  18.844  0.00  0.00    +0.000 OA
ATOM      8  C   UNL     1       7.838   7.850  17.895  0.00  0.00    +0.000 C 
ATOM      9  N   UNL     1       7.726   9.132  17.405  0.00  0.00    +0.000 N 
ATOM     10  C   UNL     1       8.434  10.144  17.987  0.00  0.00    +0.000 A 
ATOM     11  N   UNL     1       9.396  10.043  18.868  0.00  0.00    +0.000 NA
ATOM     12  C   UNL     1       9.821  11.295  19.269  0.00  0.00    +0.000 A 
ATOM     13  C   UNL     1       9.143  12.340  18.668  0.00  0.00    +0.000 A 
ATOM     14  S   UNL     1       8.001  11.728  17.531  0.00  0.00    +0.000 S 
ATOM     15  H   UNL     1       7.055   9.333  16.677  0.00  0.00    +0.000 HD
BRANCH  12  16
ATOM     16  C   UNL     1      10.921  11.397  20.277  0.00  0.00    +0.000 C 
ATOM     17  F   UNL     1      12.139  11.450  19.667  0.00  0.00    +0.000 F 
ATOM     18  F   UNL     1      10.817  12.546  21.004  0.00  0.00    +0.000 F 
ENDBRANCH  12  16
ENDBRANCH   1   8
BRANCH   3  19
ATOM     19  O   UNL     1       3.551   5.541  17.327  0.00  0.00    +0.000 OA
BRANCH  19  20
ATOM     20  C   UNL     1       3.190   4.354  17.907  0.00  0.00    +0.000 A 
ATOM     21  C   UNL     1       3.925   3.643  18.834  0.00  0.00    +0.000 A 
ATOM     22  N   UNL     1       3.540   2.458  19.355  0.00  0.00    +0.000 NA
ATOM     23  C   UNL     1       2.347   2.002  18.940  0.00  0.00    +0.000 A 
ATOM     24  N   UNL     1       1.516   2.631  18.094  0.00  0.00    +0.000 NA
ATOM     25  C   UNL     1       1.962   3.807  17.601  0.00  0.00    +0.000 A 
ENDBRANCH  19  20
ENDBRANCH   3  19
TORSDOF 4
ENDMDL
MODEL 7
REMARK VINA RESULT:      -7.4      7.813      9.697
REMARK  Name = 
REMARK  4 active torsions:
REMARK  status: ('A' for Active; 'I' for Inactive)
REMARK    1  A    between atoms: C_2  and  C_12
REMARK    2  A    between atoms: C_6  and  C_7
REMARK    3  A    between atoms: C_14  and  O_15
REMARK    4  A    between atoms: O_15  and  C_16
REMARK                            x       y       z     vdW  Elec       q    Type
REMARK                         _______ _______ _______ _____ _____    ______ ____
ROOT
ATOM      1  C   UNL     1       9.351  10.485  18.923  0.00  0.00    +0.000 A 
ATOM      2  C   UNL     1      10.188  11.245  18.118  0.00  0.00    +0.000 A 
ATOM      3  C   UNL     1      10.938  12.250  18.712  0.00  0.00    +0.000 A 
ATOM      4  C   UNL     1      10.918  12.381  20.096  0.00  0.00    +0.000 A 
ATOM      5  C   UNL     1      10.068  11.556  20.824  0.00  0.00    +0.000 A 
ATOM      6  N   UNL     1       9.250  10.628  20.272  0.00  0.00    +0.000 NA
ENDROOT
BRANCH   1   8
ATOM      7  O   UNL     1       7.728   9.837  17.388  0.00  0.00    +0.000 OA
ATOM      8  C   UNL     1       8.495   9.458  18.264  0.00  0.00    +0.000 C 
ATOM      9  N   UNL     1       8.621   8.176  18.750  0.00  0.00    +0.000 N 
ATOM     10  C   UNL     1       7.848   7.176  18.232  0.00  0.00    +0.000 A 
ATOM     11  N   UNL     1       7.098   7.219  17.161  0.00  0.00    +0.000 NA
ATOM     12  C   UNL     1       6.415   6.029  16.998  0.00  0.00    +0.000 A 
ATOM     13  C   UNL     1       6.669   5.094  17.986  0.00  0.00    +0.000 A 
ATOM     14  S   UNL     1       7.839   5.706  19.093  0.00  0.00    +0.000 S 
ATOM     15  H   UNL     1       9.219   7.997  19.544  0.00  0.00    +0.000 HD
BRANCH  12  16
ATOM     16  C   UNL     1       5.500   5.874  15.826  0.00  0.00    +0.000 C 
ATOM     17  F   UNL     1       4.922   7.065  15.497  0.00  0.00    +0.000 F 
ATOM     18  F   UNL     1       6.184   5.474  14.717  0.00  0.00    +0.000 F 
ENDBRANCH  12  16
ENDBRANCH   1   8
BRANCH   3  19
ATOM     19  O   UNL     1      11.757  13.109  18.011  0.00  0.00    +0.000 OA
BRANCH  19  20
ATOM     20  C   UNL     1      11.310  14.373  17.734  0.00  0.00    +0.000 A 
ATOM     21  C   UNL     1      12.076  15.427  17.276  0.00  0.00    +0.000 A 
ATOM     22  N   UNL     1      11.593  16.668  17.047  0.00  0.00    +0.000 NA
ATOM     23  C   UNL     1      10.277  16.827  17.260  0.00  0.00    +0.000 A 
ATOM     24  N   UNL     1       9.421  15.866  17.643  0.00  0.00    +0.000 NA
ATOM     25  C   UNL     1       9.965  14.650  17.865  0.00  0.00    +0.000 A 
ENDBRANCH  19  20
ENDBRANCH   3  19
TORSDOF 4
ENDMDL
MODEL 8
REMARK VINA RESULT:      -7.3      7.878      9.712
REMARK  Name = 
REMARK  4 active torsions:
REMARK  status: ('A' for Active; 'I' for Inactive)
REMARK    1  A    between atoms: C_2  and  C_12
REMARK    2  A    between atoms: C_6  and  C_7
REMARK    3  A    between atoms: C_14  and  O_15
REMARK    4  A    between atoms: O_15  and  C_16
REMARK                            x       y       z     vdW  Elec       q    Type
REMARK                         _______ _______ _______ _____ _____    ______ ____
ROOT
ATOM      1  C   UNL     1       9.291  10.470  18.927  0.00  0.00    +0.000 A 
ATOM      2  C   UNL     1      10.083  11.275  18.119  0.00  0.00    +0.000 A 
ATOM      3  C   UNL     1      10.810  12.294  18.716  0.00  0.00    +0.000 A 
ATOM      4  C   UNL     1      10.816  12.398  20.102  0.00  0.00    +0.000 A 
ATOM      5  C   UNL     1      10.011  11.531  20.832  0.00  0.00    +0.000 A 
ATOM      6  N   UNL     1       9.214  10.585  20.279  0.00  0.00    +0.000 NA
ENDROOT
BRANCH   1   8
ATOM      7  O   UNL     1       7.689   9.789  17.383  0.00  0.00    +0.000 OA
ATOM      8  C   UNL     1       8.456   9.427  18.266  0.00  0.00    +0.000 C 
ATOM      9  N   UNL     1       8.600   8.149  18.758  0.00  0.00    +0.000 N 
ATOM     10  C   UNL     1       7.848   7.134  18.240  0.00  0.00    +0.000 A 
ATOM     11  N   UNL     1       7.105   7.160  17.163  0.00  0.00    +0.000 NA
ATOM     12  C   UNL     1       6.442   5.958  17.001  0.00  0.00    +0.000 A 
ATOM     13  C   UNL     1       6.705   5.032  17.995  0.00  0.00    +0.000 A 
ATOM     14  S   UNL     1       7.857   5.668  19.107  0.00  0.00    +0.000 S 
ATOM     15  H   UNL     1       9.196   7.984  19.557  0.00  0.00    +0.000 HD
BRANCH  12  16
ATOM     16  C   UNL     1       5.538   5.783  15.824  0.00  0.00    +0.000 C 
ATOM     17  F   UNL     1       6.230   5.333  14.739  0.00  0.00    +0.000 F 
ATOM     18  F   UNL     1       4.582   4.844  16.072  0.00  0.00    +0.000 F 
ENDBRANCH  12  16
ENDBRANCH   1   8
BRANCH   3  19
ATOM     19  O   UNL     1      11.583  13.194  18.015  0.00  0.00    +0.000 OA
BRANCH  19  20
ATOM     20  C   UNL     1      11.091  14.451  17.782  0.00  0.00    +0.000 A 
ATOM     21  C   UNL     1       9.780  14.855  17.936  0.00  0.00    +0.000 A 
ATOM     22  N   UNL     1       9.336  16.101  17.662  0.00  0.00    +0.000 NA
ATOM     23  C   UNL     1      10.271  16.972  17.250  0.00  0.00    +0.000 A 
ATOM     24  N   UNL     1      11.583  16.716  17.121  0.00  0.00    +0.000 NA
ATOM     25  C   UNL     1      11.963  15.450  17.402  0.00  0.00    +0.000 A 
ENDBRANCH  19  20
ENDBRANCH   3  19
TORSDOF 4
ENDMDL
MODEL 9
REMARK VINA RESULT:      -7.3      2.053      4.082
REMARK  Name = 
REMARK  4 active torsions:
REMARK  status: ('A' for Active; 'I' for Inactive)
REMARK    1  A    between atoms: C_2  and  C_12
REMARK    2  A    between atoms: C_6  and  C_7
REMARK    3  A    between atoms: C_14  and  O_15
REMARK    4  A    between atoms: O_15  and  C_16
REMARK                            x       y       z     vdW  Elec       q    Type
REMARK                         _______ _______ _______ _____ _____    ______ ____
ROOT
ATOM      1  C   UNL     1       3.177   7.037  17.836  0.00  0.00    +0.000 A 
ATOM      2  C   UNL     1       2.793   5.775  18.267  0.00  0.00    +0.000 A 
ATOM      3  C   UNL     1       3.544   4.683  17.859  0.00  0.00    +0.000 A 
ATOM      4  C   UNL     1       4.714   4.898  17.139  0.00  0.00    +0.000 A 
ATOM      5  C   UNL     1       5.033   6.200  16.774  0.00  0.00    +0.000 A 
ATOM      6  N   UNL     1       4.275   7.282  17.072  0.00  0.00    +0.000 NA
ENDROOT
BRANCH   1   8
ATOM      7  O   UNL     1       2.139   9.068  17.380  0.00  0.00    +0.000 OA
ATOM      8  C   UNL     1       2.320   8.195  18.218  0.00  0.00    +0.000 C 
ATOM      9  N   UNL     1       1.852   8.188  19.513  0.00  0.00    +0.000 N 
ATOM     10  C   UNL     1       1.090   9.227  19.965  0.00  0.00    +0.000 A 
ATOM     11  N   UNL     1       0.555  10.191  19.260  0.00  0.00    +0.000 NA
ATOM     12  C   UNL     1      -0.090  11.095  20.082  0.00  0.00    +0.000 A 
ATOM     13  C   UNL     1      -0.015  10.784  21.428  0.00  0.00    +0.000 A 
ATOM     14  S   UNL     1       0.822   9.294  21.646  0.00  0.00    +0.000 S 
ATOM     15  H   UNL     1       2.146   7.459  20.148  0.00  0.00    +0.000 HD
BRANCH  12  16
ATOM     16  C   UNL     1      -0.770  12.275  19.467  0.00  0.00    +0.000 C 
ATOM     17  F   UNL     1      -0.094  12.710  18.366  0.00  0.00    +0.000 F 
ATOM     18  F   UNL     1      -2.021  11.951  19.032  0.00  0.00    +0.000 F 
ENDBRANCH  12  16
ENDBRANCH   1   8
BRANCH   3  19
ATOM     19  O   UNL     1       3.229   3.378  18.171  0.00  0.00    +0.000 OA
BRANCH  19  20
ATOM     20  C   UNL     1       2.646   3.107  19.381  0.00  0.00    +0.000 A 
ATOM     21  C   UNL     1       1.292   3.110  19.652  0.00  0.00    +0.000 A 
ATOM     22  N   UNL     1       0.767   2.868  20.873  0.00  0.00    +0.000 NA
ATOM     23  C   UNL     1       1.653   2.579  21.839  0.00  0.00    +0.000 A 
ATOM     24  N   UNL     1       2.983   2.484  21.684  0.00  0.00    +0.000 NA
ATOM     25  C   UNL     1       3.448   2.746  20.443  0.00  0.00    +0.000 A 
ENDBRANCH  19  20
ENDBRANCH   3  19
TORSDOF 4
ENDMDL
