MODEL 1
REMARK VINA RESULT:      -8.6      0.000      0.000
REMARK  Name = 
REMARK  10 active torsions:
REMARK  status: ('A' for Active; 'I' for Inactive)
REMARK    1  A    between atoms: C_1  and  N_2
REMARK    2  A    between atoms: N_2  and  C_3
REMARK    3  A    between atoms: C_3  and  C_4
REMARK    4  A    between atoms: C_3  and  C_5
REMARK    5  A    between atoms: N_7  and  C_8
REMARK    6  A    between atoms: C_8  and  C_9
REMARK    7  A    between atoms: C_8  and  C_26
REMARK    8  A    between atoms: N_11  and  C_12
REMARK    9  A    between atoms: N_17  and  C_18
REMARK   10  A    between atoms: C_18  and  C_19
REMARK                            x       y       z     vdW  Elec       q    Type
REMARK                         _______ _______ _______ _____ _____    ______ ____
ROOT
ATOM      1  C   UNL     1       2.634   7.082  18.806  0.00  0.00    +0.000 C 
ATOM      2  O   UNL     1       1.988   7.523  17.859  0.00  0.00    +0.000 OA
ATOM      3  N   UNL     1       2.316   7.359  20.122  0.00  0.00    +0.000 N 
ATOM      4  H   UNL     1       2.749   6.785  20.837  0.00  0.00    +0.000 HD
ENDROOT
BRANCH   3   5
ATOM      5  C   UNL     1       1.150   8.175  20.505  0.00  0.00    +0.000 C 
ATOM      6  C   UNL     1       1.096   8.376  22.027  0.00  0.00    +0.000 C 
ATOM      7  C   UNL     1      -0.077   9.217  22.523  0.00  0.00    +0.000 C 
ATOM      8  C   UNL     1       0.063  10.678  22.116  0.00  0.00    +0.000 C 
ATOM      9  C   UNL     1      -0.497  11.023  20.733  0.00  0.00    +0.000 C 
ATOM     10  N   UNL     1      -0.234  10.109  19.609  0.00  0.00    +0.000 NA
ATOM     11  C   UNL     1       1.096   9.479  19.670  0.00  0.00    +0.000 C 
BRANCH  10  12
ATOM     12  C   UNL     1      -0.366  10.833  18.318  0.00  0.00    +0.000 C 
BRANCH  12  13
ATOM     13  C   UNL     1      -1.764  10.867  17.733  0.00  0.00    +0.000 A 
ATOM     14  C   UNL     1      -2.080  10.096  16.605  0.00  0.00    +0.000 A 
ATOM     15  C   UNL     1      -3.375  10.096  16.080  0.00  0.00    +0.000 A 
ATOM     16  C   UNL     1      -4.371  10.855  16.687  0.00  0.00    +0.000 A 
ATOM     17  C   UNL     1      -4.074  11.620  17.813  0.00  0.00    +0.000 A 
ATOM     18  C   UNL     1      -2.777  11.632  18.332  0.00  0.00    +0.000 A 
ENDBRANCH  12  13
ENDBRANCH  10  12
ENDBRANCH   3   5
BRANCH   1  19
ATOM     19  C   UNL     1       3.815   6.110  18.600  0.00  0.00    +0.000 C 
BRANCH  19  20
ATOM     20  C   UNL     1       4.640   6.338  17.292  0.00  0.00    +0.000 C 
ATOM     21  C   UNL     1       6.063   6.931  17.399  0.00  0.00    +0.000 C 
ATOM     22  C   UNL     1       7.249   5.985  17.187  0.00  0.00    +0.000 C 
ATOM     23  C   UNL     1       7.020   4.957  16.089  0.00  0.00    +0.000 C 
ATOM     24  C   UNL     1       5.723   4.204  16.328  0.00  0.00    +0.000 C 
ATOM     25  C   UNL     1       4.542   5.161  16.307  0.00  0.00    +0.000 C 
ENDBRANCH  19  20
BRANCH  19  28
ATOM     26  C   UNL     1       4.185   3.775  19.389  0.00  0.00    +0.000 C 
ATOM     27  O   UNL     1       5.340   3.997  19.716  0.00  0.00    +0.000 OA
ATOM     28  N   UNL     1       3.373   4.710  18.757  0.00  0.00    +0.000 N 
ATOM     29  H   UNL     1       2.382   4.533  18.919  0.00  0.00    +0.000 HD
BRANCH  26  30
ATOM     30  C   UNL     1       3.534   2.381  19.597  0.00  0.00    +0.000 C 
ATOM     31  C   UNL     1       3.610   1.585  18.297  0.00  0.00    +0.000 C 
BRANCH  30  33
ATOM     32  C   UNL     1       2.093   2.656  21.547  0.00  0.00    +0.000 C 
ATOM     33  N   UNL     1       2.136   2.543  20.089  0.00  0.00    +0.000 NA
ATOM     34  H   UNL     1       1.781   3.421  19.706  0.00  0.00    +0.000 HD
ENDBRANCH  30  33
ENDBRANCH  26  30
ENDBRANCH  19  28
ENDBRANCH   1  19
TORSDOF 8
ENDMDL
MODEL 2
REMARK VINA RESULT:      -8.2      1.015      1.341
REMARK  Name = 
REMARK  10 active torsions:
REMARK  status: ('A' for Active; 'I' for Inactive)
REMARK    1  A    between atoms: C_1  and  N_2
REMARK    2  A    between atoms: N_2  and  C_3
REMARK    3  A    between atoms: C_3  and  C_4
REMARK    4  A    between atoms: C_3  and  C_5
REMARK    5  A    between atoms: N_7  and  C_8
REMARK    6  A    between atoms: C_8  and  C_9
REMARK    7  A    between atoms: C_8  and  C_26
REMARK    8  A    between atoms: N_11  and  C_12
REMARK    9  A    between atoms: N_17  and  C_18
REMARK   10  A    between atoms: C_18  and  C_19
REMARK                            x       y       z     vdW  Elec       q    Type
REMARK                         _______ _______ _______ _____ _____    ______ ____
ROOT
ATOM      1  C   UNL     1       2.649   6.819  19.141  0.00  0.00    +0.000 C 
ATOM      2  O   UNL     1       1.913   6.977  18.171  0.00  0.00    +0.000 OA
ATOM      3  N   UNL     1       2.389   7.380  20.376  0.00  0.00    +0.000 N 
ATOM      4  H   UNL     1       2.911   7.023  21.170  0.00  0.00    +0.000 HD
ENDROOT
BRANCH   3   5
ATOM      5  C   UNL     1       1.185   8.185  20.649  0.00  0.00    +0.000 C 
ATOM      6  C   UNL     1       1.070   8.513  22.145  0.00  0.00    +0.000 C 
ATOM      7  C   UNL     1      -0.146   9.353  22.527  0.00  0.00    +0.000 C 
ATOM      8  C   UNL     1      -0.037  10.777  21.999  0.00  0.00    +0.000 C 
ATOM      9  C   UNL     1      -0.558  10.983  20.574  0.00  0.00    +0.000 C 
ATOM     10  N   UNL     1      -0.226   9.986  19.543  0.00  0.00    +0.000 NA
ATOM     11  C   UNL     1       1.120   9.410  19.702  0.00  0.00    +0.000 C 
BRANCH  10  12
ATOM     12  C   UNL     1      -0.334  10.592  18.191  0.00  0.00    +0.000 C 
BRANCH  12  13
ATOM     13  C   UNL     1      -1.740  10.679  17.630  0.00  0.00    +0.000 A 
ATOM     14  C   UNL     1      -2.688  11.530  18.218  0.00  0.00    +0.000 A 
ATOM     15  C   UNL     1      -3.975  11.640  17.688  0.00  0.00    +0.000 A 
ATOM     16  C   UNL     1      -4.325  10.914  16.553  0.00  0.00    +0.000 A 
ATOM     17  C   UNL     1      -3.392  10.070  15.953  0.00  0.00    +0.000 A 
ATOM     18  C   UNL     1      -2.107   9.948  16.489  0.00  0.00    +0.000 A 
ENDBRANCH  12  13
ENDBRANCH  10  12
ENDBRANCH   3   5
BRANCH   1  19
ATOM     19  C   UNL     1       3.892   5.907  19.075  0.00  0.00    +0.000 C 
BRANCH  19  20
ATOM     20  C   UNL     1       4.860   6.190  17.881  0.00  0.00    +0.000 C 
ATOM     21  C   UNL     1       6.372   6.336  18.162  0.00  0.00    +0.000 C 
ATOM     22  C   UNL     1       7.289   5.178  17.758  0.00  0.00    +0.000 C 
ATOM     23  C   UNL     1       6.902   4.522  16.442  0.00  0.00    +0.000 C 
ATOM     24  C   UNL     1       5.439   4.114  16.461  0.00  0.00    +0.000 C 
ATOM     25  C   UNL     1       4.549   5.334  16.640  0.00  0.00    +0.000 C 
ENDBRANCH  19  20
BRANCH  19  28
ATOM     26  C   UNL     1       2.833   4.003  20.286  0.00  0.00    +0.000 C 
ATOM     27  O   UNL     1       2.657   4.658  21.300  0.00  0.00    +0.000 OA
ATOM     28  N   UNL     1       3.502   4.485  19.167  0.00  0.00    +0.000 N 
ATOM     29  H   UNL     1       3.219   4.007  18.312  0.00  0.00    +0.000 HD
BRANCH  26  30
ATOM     30  C   UNL     1       2.373   2.524  20.183  0.00  0.00    +0.000 C 
ATOM     31  C   UNL     1       3.068   1.856  18.999  0.00  0.00    +0.000 C 
BRANCH  30  33
ATOM     32  C   UNL     1       0.443   2.468  18.689  0.00  0.00    +0.000 C 
ATOM     33  N   UNL     1       0.887   2.461  20.084  0.00  0.00    +0.000 NA
ATOM     34  H   UNL     1       0.595   1.569  20.490  0.00  0.00    +0.000 HD
ENDBRANCH  30  33
ENDBRANCH  26  30
ENDBRANCH  19  28
ENDBRANCH   1  19
TORSDOF 8
ENDMDL
MODEL 3
REMARK VINA RESULT:      -8.2      1.114      1.463
REMARK  Name = 
REMARK  10 active torsions:
REMARK  status: ('A' for Active; 'I' for Inactive)
REMARK    1  A    between atoms: C_1  and  N_2
REMARK    2  A    between atoms: N_2  and  C_3
REMARK    3  A    between atoms: C_3  and  C_4
REMARK    4  A    between atoms: C_3  and  C_5
REMARK    5  A    between atoms: N_7  and  C_8
REMARK    6  A    between atoms: C_8  and  C_9
REMARK    7  A    between atoms: C_8  and  C_26
REMARK    8  A    between atoms: N_11  and  C_12
REMARK    9  A    between atoms: N_17  and  C_18
REMARK   10  A    between atoms: C_18  and  C_19
REMARK                            x       y       z     vdW  Elec       q    Type
REMARK                         _______ _______ _______ _____ _____    ______ ____
ROOT
ATOM      1  C   UNL     1       2.453   7.134  19.382  0.00  0.00    +0.000 C 
ATOM      2  O   UNL     1       1.976   7.638  18.369  0.00  0.00    +0.000 OA
ATOM      3  N   UNL     1       2.011   7.447  20.653  0.00  0.00    +0.000 N 
ATOM      4  H   UNL     1       2.292   6.833  21.410  0.00  0.00    +0.000 HD
ENDROOT
BRANCH   3   5
ATOM      5  C   UNL     1       0.900   8.384  20.903  0.00  0.00    +0.000 C 
ATOM      6  C   UNL     1       0.852   8.798  22.381  0.00  0.00    +0.000 C 
ATOM      7  C   UNL     1      -0.265   9.776  22.737  0.00  0.00    +0.000 C 
ATOM      8  C   UNL     1      -0.025  11.153  22.133  0.00  0.00    +0.000 C 
ATOM      9  C   UNL     1      -0.554  11.337  20.707  0.00  0.00    +0.000 C 
ATOM     10  N   UNL     1      -0.347  10.259  19.726  0.00  0.00    +0.000 NA
ATOM     11  C   UNL     1       0.938   9.558  19.893  0.00  0.00    +0.000 C 
BRANCH  10  12
ATOM     12  C   UNL     1      -0.423  10.803  18.345  0.00  0.00    +0.000 C 
BRANCH  12  13
ATOM     13  C   UNL     1      -1.812  10.838  17.737  0.00  0.00    +0.000 A 
ATOM     14  C   UNL     1      -2.124  10.030  16.633  0.00  0.00    +0.000 A 
ATOM     15  C   UNL     1      -3.410  10.032  16.088  0.00  0.00    +0.000 A 
ATOM     16  C   UNL     1      -4.403  10.829  16.651  0.00  0.00    +0.000 A 
ATOM     17  C   UNL     1      -4.110  11.630  17.753  0.00  0.00    +0.000 A 
ATOM     18  C   UNL     1      -2.820  11.640  18.292  0.00  0.00    +0.000 A 
ENDBRANCH  12  13
ENDBRANCH  10  12
ENDBRANCH   3   5
BRANCH   1  19
ATOM     19  C   UNL     1       3.541   6.042  19.310  0.00  0.00    +0.000 C 
BRANCH  19  20
ATOM     20  C   UNL     1       4.203   5.859  17.906  0.00  0.00    +0.000 C 
ATOM     21  C   UNL     1       4.902   7.068  17.244  0.00  0.00    +0.000 C 
ATOM     22  C   UNL     1       6.433   7.085  17.223  0.00  0.00    +0.000 C 
ATOM     23  C   UNL     1       7.055   5.720  16.974  0.00  0.00    +0.000 C 
ATOM     24  C   UNL     1       6.508   4.699  17.956  0.00  0.00    +0.000 C 
ATOM     25  C   UNL     1       5.004   4.551  17.785  0.00  0.00    +0.000 C 
ENDBRANCH  19  20
BRANCH  19  28
ATOM     26  C   UNL     1       2.055   4.043  19.223  0.00  0.00    +0.000 C 
ATOM     27  O   UNL     1       1.443   4.457  18.252  0.00  0.00    +0.000 OA
ATOM     28  N   UNL     1       3.044   4.772  19.875  0.00  0.00    +0.000 N 
ATOM     29  H   UNL     1       3.706   4.171  20.366  0.00  0.00    +0.000 HD
BRANCH  26  30
ATOM     30  C   UNL     1       1.729   2.668  19.865  0.00  0.00    +0.000 C 
ATOM     31  C   UNL     1       2.525   2.508  21.158  0.00  0.00    +0.000 C 
BRANCH  30  33
ATOM     32  C   UNL     1       3.427   1.474  18.581  0.00  0.00    +0.000 C 
ATOM     33  N   UNL     1       2.000   1.575  18.888  0.00  0.00    +0.000 NA
ATOM     34  H   UNL     1       1.723   0.697  19.332  0.00  0.00    +0.000 HD
ENDBRANCH  30  33
ENDBRANCH  26  30
ENDBRANCH  19  28
ENDBRANCH   1  19
TORSDOF 8
ENDMDL
MODEL 4
REMARK VINA RESULT:      -8.0      2.991      5.964
REMARK  Name = 
REMARK  10 active torsions:
REMARK  status: ('A' for Active; 'I' for Inactive)
REMARK    1  A    between atoms: C_1  and  N_2
REMARK    2  A    between atoms: N_2  and  C_3
REMARK    3  A    between atoms: C_3  and  C_4
REMARK    4  A    between atoms: C_3  and  C_5
REMARK    5  A    between atoms: N_7  and  C_8
REMARK    6  A    between atoms: C_8  and  C_9
REMARK    7  A    between atoms: C_8  and  C_26
REMARK    8  A    between atoms: N_11  and  C_12
REMARK    9  A    between atoms: N_17  and  C_18
REMARK   10  A    between atoms: C_18  and  C_19
REMARK                            x       y       z     vdW  Elec       q    Type
REMARK                         _______ _______ _______ _____ _____    ______ ____
ROOT
ATOM      1  C   UNL     1       4.688   4.430  16.728  0.00  0.00    +0.000 C 
ATOM      2  O   UNL     1       4.182   5.540  16.583  0.00  0.00    +0.000 OA
ATOM      3  N   UNL     1       4.111   3.440  17.500  0.00  0.00    +0.000 N 
ATOM      4  H   UNL     1       4.463   2.496  17.387  0.00  0.00    +0.000 HD
ENDROOT
BRANCH   3   5
ATOM      5  C   UNL     1       2.818   3.616  18.186  0.00  0.00    +0.000 C 
ATOM      6  C   UNL     1       2.122   2.264  18.402  0.00  0.00    +0.000 C 
ATOM      7  C   UNL     1       0.774   2.342  19.114  0.00  0.00    +0.000 C 
ATOM      8  C   UNL     1       0.929   2.743  20.575  0.00  0.00    +0.000 C 
ATOM      9  C   UNL     1       0.959   4.252  20.834  0.00  0.00    +0.000 C 
ATOM     10  N   UNL     1       1.749   5.113  19.939  0.00  0.00    +0.000 NA
ATOM     11  C   UNL     1       2.989   4.477  19.463  0.00  0.00    +0.000 C 
BRANCH  10  12
ATOM     12  C   UNL     1       2.093   6.386  20.625  0.00  0.00    +0.000 C 
BRANCH  12  13
ATOM     13  C   UNL     1       1.837   7.646  19.820  0.00  0.00    +0.000 A 
ATOM     14  C   UNL     1       1.127   8.716  20.385  0.00  0.00    +0.000 A 
ATOM     15  C   UNL     1       0.916   9.892  19.662  0.00  0.00    +0.000 A 
ATOM     16  C   UNL     1       1.426  10.018  18.373  0.00  0.00    +0.000 A 
ATOM     17  C   UNL     1       2.140   8.967  17.802  0.00  0.00    +0.000 A 
ATOM     18  C   UNL     1       2.342   7.783  18.518  0.00  0.00    +0.000 A 
ENDBRANCH  12  13
ENDBRANCH  10  12
ENDBRANCH   3   5
BRANCH   1  19
ATOM     19  C   UNL     1       5.979   4.024  15.986  0.00  0.00    +0.000 C 
BRANCH  19  20
ATOM     20  C   UNL     1       7.220   4.930  16.273  0.00  0.00    +0.000 C 
ATOM     21  C   UNL     1       7.085   6.460  16.106  0.00  0.00    +0.000 C 
ATOM     22  C   UNL     1       7.006   7.314  17.376  0.00  0.00    +0.000 C 
ATOM     23  C   UNL     1       7.917   6.829  18.494  0.00  0.00    +0.000 C 
ATOM     24  C   UNL     1       7.673   5.358  18.778  0.00  0.00    +0.000 C 
ATOM     25  C   UNL     1       7.981   4.520  17.546  0.00  0.00    +0.000 C 
ENDBRANCH  19  20
BRANCH  19  28
ATOM     26  C   UNL     1       6.738   4.039  13.612  0.00  0.00    +0.000 C 
ATOM     27  O   UNL     1       7.838   4.483  13.897  0.00  0.00    +0.000 OA
ATOM     28  N   UNL     1       5.721   3.855  14.543  0.00  0.00    +0.000 N 
ATOM     29  H   UNL     1       5.058   3.136  14.252  0.00  0.00    +0.000 HD
BRANCH  26  30
ATOM     30  C   UNL     1       6.351   3.698  12.148  0.00  0.00    +0.000 C 
ATOM     31  C   UNL     1       4.839   3.516  12.050  0.00  0.00    +0.000 C 
BRANCH  30  33
ATOM     32  C   UNL     1       6.197   1.439  11.236  0.00  0.00    +0.000 C 
ATOM     33  N   UNL     1       7.103   2.494  11.692  0.00  0.00    +0.000 NA
ATOM     34  H   UNL     1       7.667   2.777  10.888  0.00  0.00    +0.000 HD
ENDBRANCH  30  33
ENDBRANCH  26  30
ENDBRANCH  19  28
ENDBRANCH   1  19
TORSDOF 8
ENDMDL
MODEL 5
REMARK VINA RESULT:      -8.0      2.451      9.309
REMARK  Name = 
REMARK  10 active torsions:
REMARK  status: ('A' for Active; 'I' for Inactive)
REMARK    1  A    between atoms: C_1  and  N_2
REMARK    2  A    between atoms: N_2  and  C_3
REMARK    3  A    between atoms: C_3  and  C_4
REMARK    4  A    between atoms: C_3  and  C_5
REMARK    5  A    between atoms: N_7  and  C_8
REMARK    6  A    between atoms: C_8  and  C_9
REMARK    7  A    between atoms: C_8  and  C_26
REMARK    8  A    between atoms: N_11  and  C_12
REMARK    9  A    between atoms: N_17  and  C_18
REMARK   10  A    between atoms: C_18  and  C_19
REMARK                            x       y       z     vdW  Elec       q    Type
REMARK                         _______ _______ _______ _____ _____    ______ ____
ROOT
ATOM      1  C   UNL     1       0.865  10.200  21.041  0.00  0.00    +0.000 C 
ATOM      2  O   UNL     1       1.366   9.941  22.132  0.00  0.00    +0.000 OA
ATOM      3  N   UNL     1       1.030   9.392  19.932  0.00  0.00    +0.000 N 
ATOM      4  H   UNL     1       0.410   9.548  19.145  0.00  0.00    +0.000 HD
ENDROOT
BRANCH   3   5
ATOM      5  C   UNL     1       1.791   8.130  19.971  0.00  0.00    +0.000 C 
ATOM      6  C   UNL     1       1.035   7.058  20.771  0.00  0.00    +0.000 C 
ATOM      7  C   UNL     1       1.742   5.708  20.863  0.00  0.00    +0.000 C 
ATOM      8  C   UNL     1       1.774   4.995  19.518  0.00  0.00    +0.000 C 
ATOM      9  C   UNL     1       2.957   5.359  18.617  0.00  0.00    +0.000 C 
ATOM     10  N   UNL     1       3.356   6.772  18.502  0.00  0.00    +0.000 NA
ATOM     11  C   UNL     1       2.217   7.704  18.544  0.00  0.00    +0.000 C 
BRANCH  10  12
ATOM     12  C   UNL     1       4.111   6.989  17.240  0.00  0.00    +0.000 C 
BRANCH  12  13
ATOM     13  C   UNL     1       5.301   6.072  17.030  0.00  0.00    +0.000 A 
ATOM     14  C   UNL     1       5.421   5.324  15.849  0.00  0.00    +0.000 A 
ATOM     15  C   UNL     1       6.530   4.503  15.634  0.00  0.00    +0.000 A 
ATOM     16  C   UNL     1       7.540   4.433  16.589  0.00  0.00    +0.000 A 
ATOM     17  C   UNL     1       7.438   5.176  17.763  0.00  0.00    +0.000 A 
ATOM     18  C   UNL     1       6.323   5.989  17.987  0.00  0.00    +0.000 A 
ENDBRANCH  12  13
ENDBRANCH  10  12
ENDBRANCH   3   5
BRANCH   1  19
ATOM     19  C   UNL     1      -0.064  11.416  20.843  0.00  0.00    +0.000 C 
BRANCH  19  20
ATOM     20  C   UNL     1      -0.432  12.189  22.150  0.00  0.00    +0.000 C 
ATOM     21  C   UNL     1      -0.482  13.733  22.118  0.00  0.00    +0.000 C 
ATOM     22  C   UNL     1      -1.859  14.403  22.130  0.00  0.00    +0.000 C 
ATOM     23  C   UNL     1      -2.868  13.709  23.031  0.00  0.00    +0.000 C 
ATOM     24  C   UNL     1      -2.954  12.231  22.692  0.00  0.00    +0.000 C 
ATOM     25  C   UNL     1      -1.610  11.556  22.912  0.00  0.00    +0.000 C 
ENDBRANCH  19  20
BRANCH  19  28
ATOM     26  C   UNL     1      -1.610  11.767  18.919  0.00  0.00    +0.000 C 
ATOM     27  O   UNL     1      -1.075  12.815  18.595  0.00  0.00    +0.000 OA
ATOM     28  N   UNL     1      -1.252  11.042  20.050  0.00  0.00    +0.000 N 
ATOM     29  H   UNL     1      -1.481  10.052  19.962  0.00  0.00    +0.000 HD
BRANCH  26  30
ATOM     30  C   UNL     1      -2.800  11.178  18.116  0.00  0.00    +0.000 C 
ATOM     31  C   UNL     1      -2.599   9.676  17.936  0.00  0.00    +0.000 C 
BRANCH  30  33
ATOM     32  C   UNL     1      -2.884  10.971  15.686  0.00  0.00    +0.000 C 
ATOM     33  N   UNL     1      -2.942  11.897  16.818  0.00  0.00    +0.000 NA
ATOM     34  H   UNL     1      -3.869  12.327  16.810  0.00  0.00    +0.000 HD
ENDBRANCH  30  33
ENDBRANCH  26  30
ENDBRANCH  19  28
ENDBRANCH   1  19
TORSDOF 8
ENDMDL
MODEL 6
REMARK VINA RESULT:      -8.0      2.667      8.934
REMARK  Name = 
REMARK  10 active torsions:
REMARK  status: ('A' for Active; 'I' for Inactive)
REMARK    1  A    between atoms: C_1  and  N_2
REMARK    2  A    between atoms: N_2  and  C_3
REMARK    3  A    between atoms: C_3  and  C_4
REMARK    4  A    between atoms: C_3  and  C_5
REMARK    5  A    between atoms: N_7  and  C_8
REMARK    6  A    between atoms: C_8  and  C_9
REMARK    7  A    between atoms: C_8  and  C_26
REMARK    8  A    between atoms: N_11  and  C_12
REMARK    9  A    between atoms: N_17  and  C_18
REMARK   10  A    between atoms: C_18  and  C_19
REMARK                            x       y       z     vdW  Elec       q    Type
REMARK                         _______ _______ _______ _____ _____    ______ ____
ROOT
ATOM      1  C   UNL     1       1.796   9.252  18.452  0.00  0.00    +0.000 C 
ATOM      2  O   UNL     1       1.774   9.650  17.290  0.00  0.00    +0.000 OA
ATOM      3  N   UNL     1       2.285   8.010  18.808  0.00  0.00    +0.000 N 
ATOM      4  H   UNL     1       2.478   7.849  19.791  0.00  0.00    +0.000 HD
ENDROOT
BRANCH   3   5
ATOM      5  C   UNL     1       2.857   7.067  17.830  0.00  0.00    +0.000 C 
ATOM      6  C   UNL     1       4.271   7.500  17.412  0.00  0.00    +0.000 C 
ATOM      7  C   UNL     1       4.951   6.580  16.402  0.00  0.00    +0.000 C 
ATOM      8  C   UNL     1       5.309   5.234  17.017  0.00  0.00    +0.000 C 
ATOM      9  C   UNL     1       4.198   4.181  16.966  0.00  0.00    +0.000 C 
ATOM     10  N   UNL     1       2.819   4.586  17.287  0.00  0.00    +0.000 NA
ATOM     11  C   UNL     1       2.742   5.610  18.343  0.00  0.00    +0.000 C 
BRANCH  10  12
ATOM     12  C   UNL     1       2.023   3.402  17.705  0.00  0.00    +0.000 C 
BRANCH  12  13
ATOM     13  C   UNL     1       2.097   3.059  19.180  0.00  0.00    +0.000 A 
ATOM     14  C   UNL     1       3.296   2.594  19.742  0.00  0.00    +0.000 A 
ATOM     15  C   UNL     1       3.381   2.307  21.106  0.00  0.00    +0.000 A 
ATOM     16  C   UNL     1       2.273   2.497  21.927  0.00  0.00    +0.000 A 
ATOM     17  C   UNL     1       1.078   2.965  21.386  0.00  0.00    +0.000 A 
ATOM     18  C   UNL     1       0.986   3.241  20.018  0.00  0.00    +0.000 A 
ENDBRANCH  12  13
ENDBRANCH  10  12
ENDBRANCH   3   5
BRANCH   1  19
ATOM     19  C   UNL     1       1.351  10.151  19.625  0.00  0.00    +0.000 C 
BRANCH  19  20
ATOM     20  C   UNL     1       0.161   9.593  20.472  0.00  0.00    +0.000 C 
ATOM     21  C   UNL     1       0.469   8.772  21.745  0.00  0.00    +0.000 C 
ATOM     22  C   UNL     1       0.244   9.447  23.101  0.00  0.00    +0.000 C 
ATOM     23  C   UNL     1      -0.992  10.333  23.145  0.00  0.00    +0.000 C 
ATOM     24  C   UNL     1      -0.968  11.335  22.005  0.00  0.00    +0.000 C 
ATOM     25  C   UNL     1      -0.971  10.616  20.664  0.00  0.00    +0.000 C 
ENDBRANCH  19  20
BRANCH  19  28
ATOM     26  C   UNL     1       1.647  12.614  19.869  0.00  0.00    +0.000 C 
ATOM     27  O   UNL     1       2.189  12.508  20.956  0.00  0.00    +0.000 OA
ATOM     28  N   UNL     1       1.121  11.535  19.165  0.00  0.00    +0.000 N 
ATOM     29  H   UNL     1       1.085  11.710  18.161  0.00  0.00    +0.000 HD
BRANCH  26  30
ATOM     30  C   UNL     1       1.436  13.996  19.194  0.00  0.00    +0.000 C 
ATOM     31  C   UNL     1       0.002  14.097  18.679  0.00  0.00    +0.000 C 
BRANCH  30  33
ATOM     32  C   UNL     1       3.158  15.463  18.279  0.00  0.00    +0.000 C 
ATOM     33  N   UNL     1       2.446  14.194  18.117  0.00  0.00    +0.000 NA
ATOM     34  H   UNL     1       3.137  13.446  18.209  0.00  0.00    +0.000 HD
ENDBRANCH  30  33
ENDBRANCH  26  30
ENDBRANCH  19  28
ENDBRANCH   1  19
TORSDOF 8
ENDMDL
MODEL 7
REMARK VINA RESULT:      -8.0      0.943      1.226
REMARK  Name = 
REMARK  10 active torsions:
REMARK  status: ('A' for Active; 'I' for Inactive)
REMARK    1  A    between atoms: C_1  and  N_2
REMARK    2  A    between atoms: N_2  and  C_3
REMARK    3  A    between atoms: C_3  and  C_4
REMARK    4  A    between atoms: C_3  and  C_5
REMARK    5  A    between atoms: N_7  and  C_8
REMARK    6  A    between atoms: C_8  and  C_9
REMARK    7  A    between atoms: C_8  and  C_26
REMARK    8  A    between atoms: N_11  and  C_12
REMARK    9  A    between atoms: N_17  and  C_18
REMARK   10  A    between atoms: C_18  and  C_19
REMARK                            x       y       z     vdW  Elec       q    Type
REMARK                         _______ _______ _______ _____ _____    ______ ____
ROOT
ATOM      1  C   UNL     1       2.589   7.216  18.529  0.00  0.00    +0.000 C 
ATOM      2  O   UNL     1       2.066   7.888  17.645  0.00  0.00    +0.000 OA
ATOM      3  N   UNL     1       2.230   7.321  19.860  0.00  0.00    +0.000 N 
ATOM      4  H   UNL     1       2.539   6.586  20.486  0.00  0.00    +0.000 HD
ENDROOT
BRANCH   3   5
ATOM      5  C   UNL     1       1.161   8.221  20.328  0.00  0.00    +0.000 C 
ATOM      6  C   UNL     1       1.264   8.455  21.843  0.00  0.00    +0.000 C 
ATOM      7  C   UNL     1       0.199   9.383  22.423  0.00  0.00    +0.000 C 
ATOM      8  C   UNL     1       0.395  10.822  21.966  0.00  0.00    +0.000 C 
ATOM      9  C   UNL     1      -0.270  11.176  20.633  0.00  0.00    +0.000 C 
ATOM     10  N   UNL     1      -0.173  10.224  19.514  0.00  0.00    +0.000 NA
ATOM     11  C   UNL     1       1.113   9.508  19.467  0.00  0.00    +0.000 C 
BRANCH  10  12
ATOM     12  C   UNL     1      -0.379  10.930  18.222  0.00  0.00    +0.000 C 
BRANCH  12  13
ATOM     13  C   UNL     1      -1.810  10.964  17.722  0.00  0.00    +0.000 A 
ATOM     14  C   UNL     1      -2.161  10.315  16.529  0.00  0.00    +0.000 A 
ATOM     15  C   UNL     1      -3.483  10.314  16.079  0.00  0.00    +0.000 A 
ATOM     16  C   UNL     1      -4.473  10.948  16.825  0.00  0.00    +0.000 A 
ATOM     17  C   UNL     1      -4.141  11.590  18.016  0.00  0.00    +0.000 A 
ATOM     18  C   UNL     1      -2.816  11.604  18.463  0.00  0.00    +0.000 A 
ENDBRANCH  12  13
ENDBRANCH  10  12
ENDBRANCH   3   5
BRANCH   1  19
ATOM     19  C   UNL     1       3.642   6.134  18.211  0.00  0.00    +0.000 C 
BRANCH  19  20
ATOM     20  C   UNL     1       4.707   6.540  17.141  0.00  0.00    +0.000 C 
ATOM     21  C   UNL     1       6.031   7.183  17.609  0.00  0.00    +0.000 C 
ATOM     22  C   UNL     1       7.297   6.322  17.569  0.00  0.00    +0.000 C 
ATOM     23  C   UNL     1       7.376   5.409  16.355  0.00  0.00    +0.000 C 
ATOM     24  C   UNL     1       6.113   4.576  16.234  0.00  0.00    +0.000 C 
ATOM     25  C   UNL     1       4.899   5.473  16.049  0.00  0.00    +0.000 C 
ENDBRANCH  19  20
BRANCH  19  28
ATOM     26  C   UNL     1       2.693   3.941  18.917  0.00  0.00    +0.000 C 
ATOM     27  O   UNL     1       3.067   4.074  20.070  0.00  0.00    +0.000 OA
ATOM     28  N   UNL     1       2.991   4.845  17.904  0.00  0.00    +0.000 N 
ATOM     29  H   UNL     1       2.305   4.819  17.149  0.00  0.00    +0.000 HD
BRANCH  26  30
ATOM     30  C   UNL     1       1.891   2.692  18.461  0.00  0.00    +0.000 C 
ATOM     31  C   UNL     1       0.475   2.761  19.026  0.00  0.00    +0.000 C 
BRANCH  30  33
ATOM     32  C   UNL     1       3.891   1.323  18.171  0.00  0.00    +0.000 C 
ATOM     33  N   UNL     1       2.610   1.451  18.867  0.00  0.00    +0.000 NA
ATOM     34  H   UNL     1       2.816   1.534  19.865  0.00  0.00    +0.000 HD
ENDBRANCH  30  33
ENDBRANCH  26  30
ENDBRANCH  19  28
ENDBRANCH   1  19
TORSDOF 8
ENDMDL
MODEL 8
REMARK VINA RESULT:      -8.0      1.612      3.818
REMARK  Name = 
REMARK  10 active torsions:
REMARK  status: ('A' for Active; 'I' for Inactive)
REMARK    1  A    between atoms: C_1  and  N_2
REMARK    2  A    between atoms: N_2  and  C_3
REMARK    3  A    between atoms: C_3  and  C_4
REMARK    4  A    between atoms: C_3  and  C_5
REMARK    5  A    between atoms: N_7  and  C_8
REMARK    6  A    between atoms: C_8  and  C_9
REMARK    7  A    between atoms: C_8  and  C_26
REMARK    8  A    between atoms: N_11  and  C_12
REMARK    9  A    between atoms: N_17  and  C_18
REMARK   10  A    between atoms: C_18  and  C_19
REMARK                            x       y       z     vdW  Elec       q    Type
REMARK                         _______ _______ _______ _____ _____    ______ ____
ROOT
ATOM      1  C   UNL     1       2.422   6.374  18.272  0.00  0.00    +0.000 C 
ATOM      2  O   UNL     1       1.548   6.716  17.480  0.00  0.00    +0.000 OA
ATOM      3  N   UNL     1       2.494   6.860  19.563  0.00  0.00    +0.000 N 
ATOM      4  H   UNL     1       3.095   6.368  20.214  0.00  0.00    +0.000 HD
ENDROOT
BRANCH   3   5
ATOM      5  C   UNL     1       1.505   7.803  20.116  0.00  0.00    +0.000 C 
ATOM      6  C   UNL     1       1.743   8.032  21.616  0.00  0.00    +0.000 C 
ATOM      7  C   UNL     1       0.769   9.002  22.280  0.00  0.00    +0.000 C 
ATOM      8  C   UNL     1       0.985  10.433  21.804  0.00  0.00    +0.000 C 
ATOM      9  C   UNL     1       0.227  10.814  20.529  0.00  0.00    +0.000 C 
ATOM     10  N   UNL     1       0.191   9.859  19.409  0.00  0.00    +0.000 NA
ATOM     11  C   UNL     1       1.439   9.091  19.258  0.00  0.00    +0.000 C 
BRANCH  10  12
ATOM     12  C   UNL     1      -0.092  10.574  18.137  0.00  0.00    +0.000 C 
BRANCH  12  13
ATOM     13  C   UNL     1      -1.556  10.649  17.747  0.00  0.00    +0.000 A 
ATOM     14  C   UNL     1      -2.415  11.556  18.387  0.00  0.00    +0.000 A 
ATOM     15  C   UNL     1      -3.756  11.654  18.011  0.00  0.00    +0.000 A 
ATOM     16  C   UNL     1      -4.251  10.860  16.981  0.00  0.00    +0.000 A 
ATOM     17  C   UNL     1      -3.408   9.960  16.331  0.00  0.00    +0.000 A 
ATOM     18  C   UNL     1      -2.068   9.850  16.714  0.00  0.00    +0.000 A 
ENDBRANCH  12  13
ENDBRANCH  10  12
ENDBRANCH   3   5
BRANCH   1  19
ATOM     19  C   UNL     1       3.472   5.302  17.908  0.00  0.00    +0.000 C 
BRANCH  19  20
ATOM     20  C   UNL     1       3.247   3.904  18.568  0.00  0.00    +0.000 C 
ATOM     21  C   UNL     1       3.619   3.710  20.056  0.00  0.00    +0.000 C 
ATOM     22  C   UNL     1       2.478   3.630  21.073  0.00  0.00    +0.000 C 
ATOM     23  C   UNL     1       1.263   2.864  20.571  0.00  0.00    +0.000 C 
ATOM     24  C   UNL     1       0.801   3.419  19.235  0.00  0.00    +0.000 C 
ATOM     25  C   UNL     1       1.896   3.271  18.190  0.00  0.00    +0.000 C 
ENDBRANCH  19  20
BRANCH  19  28
ATOM     26  C   UNL     1       5.849   5.549  17.202  0.00  0.00    +0.000 C 
ATOM     27  O   UNL     1       5.723   4.775  16.268  0.00  0.00    +0.000 OA
ATOM     28  N   UNL     1       4.839   5.818  18.119  0.00  0.00    +0.000 N 
ATOM     29  H   UNL     1       4.948   6.733  18.556  0.00  0.00    +0.000 HD
BRANCH  26  30
ATOM     30  C   UNL     1       7.197   6.265  17.489  0.00  0.00    +0.000 C 
ATOM     31  C   UNL     1       7.628   5.982  18.925  0.00  0.00    +0.000 C 
BRANCH  30  33
ATOM     32  C   UNL     1       8.094   8.496  17.906  0.00  0.00    +0.000 C 
ATOM     33  N   UNL     1       7.066   7.723  17.208  0.00  0.00    +0.000 NA
ATOM     34  H   UNL     1       7.219   7.853  16.205  0.00  0.00    +0.000 HD
ENDBRANCH  30  33
ENDBRANCH  26  30
ENDBRANCH  19  28
ENDBRANCH   1  19
TORSDOF 8
ENDMDL
MODEL 9
REMARK VINA RESULT:      -8.0      2.094      3.732
REMARK  Name = 
REMARK  10 active torsions:
REMARK  status: ('A' for Active; 'I' for Inactive)
REMARK    1  A    between atoms: C_1  and  N_2
REMARK    2  A    between atoms: N_2  and  C_3
REMARK    3  A    between atoms: C_3  and  C_4
REMARK    4  A    between atoms: C_3  and  C_5
REMARK    5  A    between atoms: N_7  and  C_8
REMARK    6  A    between atoms: C_8  and  C_9
REMARK    7  A    between atoms: C_8  and  C_26
REMARK    8  A    between atoms: N_11  and  C_12
REMARK    9  A    between atoms: N_17  and  C_18
REMARK   10  A    between atoms: C_18  and  C_19
REMARK                            x       y       z     vdW  Elec       q    Type
REMARK                         _______ _______ _______ _____ _____    ______ ____
ROOT
ATOM      1  C   UNL     1       2.676   8.092  18.134  0.00  0.00    +0.000 C 
ATOM      2  O   UNL     1       2.810   8.838  17.167  0.00  0.00    +0.000 OA
ATOM      3  N   UNL     1       1.832   8.380  19.190  0.00  0.00    +0.000 N 
ATOM      4  H   UNL     1       1.607   7.624  19.827  0.00  0.00    +0.000 HD
ENDROOT
BRANCH   3   5
ATOM      5  C   UNL     1       0.989   9.589  19.230  0.00  0.00    +0.000 C 
ATOM      6  C   UNL     1       0.168   9.729  17.939  0.00  0.00    +0.000 C 
ATOM      7  C   UNL     1      -0.744  10.952  17.888  0.00  0.00    +0.000 C 
ATOM      8  C   UNL     1      -1.902  10.833  18.871  0.00  0.00    +0.000 C 
ATOM      9  C   UNL     1      -1.603  11.330  20.289  0.00  0.00    +0.000 C 
ATOM     10  N   UNL     1      -0.315  10.980  20.909  0.00  0.00    +0.000 NA
ATOM     11  C   UNL     1       0.164   9.637  20.540  0.00  0.00    +0.000 C 
BRANCH  10  12
ATOM     12  C   UNL     1      -0.420  11.064  22.389  0.00  0.00    +0.000 C 
BRANCH  12  13
ATOM     13  C   UNL     1      -1.331  12.158  22.913  0.00  0.00    +0.000 A 
ATOM     14  C   UNL     1      -2.612  11.845  23.391  0.00  0.00    +0.000 A 
ATOM     15  C   UNL     1      -3.445  12.842  23.905  0.00  0.00    +0.000 A 
ATOM     16  C   UNL     1      -2.999  14.159  23.963  0.00  0.00    +0.000 A 
ATOM     17  C   UNL     1      -1.726  14.483  23.500  0.00  0.00    +0.000 A 
ATOM     18  C   UNL     1      -0.895  13.490  22.972  0.00  0.00    +0.000 A 
ENDBRANCH  12  13
ENDBRANCH  10  12
ENDBRANCH   3   5
BRANCH   1  19
ATOM     19  C   UNL     1       3.386   6.724  18.208  0.00  0.00    +0.000 C 
BRANCH  19  20
ATOM     20  C   UNL     1       4.480   6.486  17.117  0.00  0.00    +0.000 C 
ATOM     21  C   UNL     1       5.860   7.162  17.282  0.00  0.00    +0.000 C 
ATOM     22  C   UNL     1       7.041   6.282  17.704  0.00  0.00    +0.000 C 
ATOM     23  C   UNL     1       7.031   4.901  17.068  0.00  0.00    +0.000 C 
ATOM     24  C   UNL     1       5.696   4.217  17.302  0.00  0.00    +0.000 C 
ATOM     25  C   UNL     1       4.570   5.017  16.666  0.00  0.00    +0.000 C 
ENDBRANCH  19  20
BRANCH  19  28
ATOM     26  C   UNL     1       2.341   4.789  19.382  0.00  0.00    +0.000 C 
ATOM     27  O   UNL     1       3.164   4.805  20.282  0.00  0.00    +0.000 OA
ATOM     28  N   UNL     1       2.400   5.626  18.273  0.00  0.00    +0.000 N 
ATOM     29  H   UNL     1       1.483   5.776  17.853  0.00  0.00    +0.000 HD
BRANCH  26  30
ATOM     30  C   UNL     1       1.171   3.769  19.366  0.00  0.00    +0.000 C 
ATOM     31  C   UNL     1       1.225   2.913  20.629  0.00  0.00    +0.000 C 
BRANCH  30  33
ATOM     32  C   UNL     1       2.447   2.150  18.060  0.00  0.00    +0.000 C 
ATOM     33  N   UNL     1       1.226   2.954  18.119  0.00  0.00    +0.000 NA
ATOM     34  H   UNL     1       0.438   2.304  18.148  0.00  0.00    +0.000 HD
ENDBRANCH  30  33
ENDBRANCH  26  30
ENDBRANCH  19  28
ENDBRANCH   1  19
TORSDOF 8
ENDMDL
