MODEL 1
REMARK VINA RESULT:      -6.8      0.000      0.000
REMARK  Name = 
REMARK  3 active torsions:
REMARK  status: ('A' for Active; 'I' for Inactive)
REMARK    1  A    between atoms: C_2  and  C_3
REMARK    2  A    between atoms: N_7  and  C_8
REMARK    3  A    between atoms: C_8  and  C_9
REMARK                            x       y       z     vdW  Elec       q    Type
REMARK                         _______ _______ _______ _____ _____    ______ ____
ROOT
ATOM      1  C   UNL     1       2.725   3.455  17.473  0.00  0.00    +0.000 C 
ENDROOT
BRANCH   1   2
ATOM      2  C   UNL     1       3.880   4.424  17.310  0.00  0.00    +0.000 A 
ATOM      3  C   UNL     1       5.129   3.929  16.885  0.00  0.00    +0.000 A 
ATOM      4  C   UNL     1       6.252   4.755  16.840  0.00  0.00    +0.000 A 
ATOM      5  C   UNL     1       6.138   6.096  17.192  0.00  0.00    +0.000 A 
ATOM      6 CL   UNL     1       7.530   7.106  17.174  0.00  0.00    +0.000 Cl
ATOM      7  C   UNL     1       4.906   6.620  17.571  0.00  0.00    +0.000 A 
ATOM      8  C   UNL     1       3.783   5.788  17.634  0.00  0.00    +0.000 A 
ATOM      9 CL   UNL     1       2.295   6.512  18.125  0.00  0.00    +0.000 Cl
ENDBRANCH   1   2
BRANCH   1  14
ATOM     10  C   UNL     1       3.127   2.796  19.916  0.00  0.00    +0.000 A 
ATOM     11  C   UNL     1       2.310   2.744  21.036  0.00  0.00    +0.000 A 
ATOM     12  C   UNL     1       1.060   3.304  20.706  0.00  0.00    +0.000 A 
ATOM     13  C   UNL     1       1.126   3.674  19.386  0.00  0.00    +0.000 A 
ATOM     14  N   UNL     1       2.355   3.297  18.883  0.00  0.00    +0.000 N 
BRANCH  10  16
ATOM     15  O   UNL     1       5.095   1.696  20.693  0.00  0.00    +0.000 OA
ATOM     16  C   UNL     1       4.517   2.401  19.867  0.00  0.00    +0.000 C 
ENDBRANCH  10  16
ENDBRANCH   1  14
TORSDOF 3
ENDMDL
MODEL 2
REMARK VINA RESULT:      -6.8      2.390      4.959
REMARK  Name = 
REMARK  3 active torsions:
REMARK  status: ('A' for Active; 'I' for Inactive)
REMARK    1  A    between atoms: C_2  and  C_3
REMARK    2  A    between atoms: N_7  and  C_8
REMARK    3  A    between atoms: C_8  and  C_9
REMARK                            x       y       z     vdW  Elec       q    Type
REMARK                         _______ _______ _______ _____ _____    ______ ____
ROOT
ATOM      1  C   UNL     1       4.191   6.057  17.804  0.00  0.00    +0.000 C 
ENDROOT
BRANCH   1   2
ATOM      2  C   UNL     1       3.539   5.233  18.897  0.00  0.00    +0.000 A 
ATOM      3  C   UNL     1       3.838   3.859  18.984  0.00  0.00    +0.000 A 
ATOM      4  C   UNL     1       3.172   3.033  19.890  0.00  0.00    +0.000 A 
ATOM      5  C   UNL     1       2.215   3.576  20.743  0.00  0.00    +0.000 A 
ATOM      6 CL   UNL     1       1.366   2.552  21.833  0.00  0.00    +0.000 Cl
ATOM      7  C   UNL     1       1.935   4.938  20.709  0.00  0.00    +0.000 A 
ATOM      8  C   UNL     1       2.590   5.762  19.788  0.00  0.00    +0.000 A 
ATOM      9 CL   UNL     1       2.176   7.438  19.801  0.00  0.00    +0.000 Cl
ENDBRANCH   1   2
BRANCH   1  14
ATOM     10  C   UNL     1       6.617   5.260  17.596  0.00  0.00    +0.000 A 
ATOM     11  C   UNL     1       7.307   4.548  16.624  0.00  0.00    +0.000 A 
ATOM     12  C   UNL     1       6.386   4.103  15.656  0.00  0.00    +0.000 A 
ATOM     13  C   UNL     1       5.151   4.563  16.040  0.00  0.00    +0.000 A 
ATOM     14  N   UNL     1       5.300   5.331  17.177  0.00  0.00    +0.000 N 
BRANCH  10  16
ATOM     15  O   UNL     1       7.083   5.327  19.933  0.00  0.00    +0.000 OA
ATOM     16  C   UNL     1       7.190   5.807  18.806  0.00  0.00    +0.000 C 
ENDBRANCH  10  16
ENDBRANCH   1  14
TORSDOF 3
ENDMDL
MODEL 3
REMARK VINA RESULT:      -6.8      1.810      2.428
REMARK  Name = 
REMARK  3 active torsions:
REMARK  status: ('A' for Active; 'I' for Inactive)
REMARK    1  A    between atoms: C_2  and  C_3
REMARK    2  A    between atoms: N_7  and  C_8
REMARK    3  A    between atoms: C_8  and  C_9
REMARK                            x       y       z     vdW  Elec       q    Type
REMARK                         _______ _______ _______ _____ _____    ______ ____
ROOT
ATOM      1  C   UNL     1       4.328   5.275  19.660  0.00  0.00    +0.000 C 
ENDROOT
BRANCH   1   2
ATOM      2  C   UNL     1       4.919   5.049  18.283  0.00  0.00    +0.000 A 
ATOM      3  C   UNL     1       4.058   4.712  17.220  0.00  0.00    +0.000 A 
ATOM      4  C   UNL     1       4.565   4.373  15.964  0.00  0.00    +0.000 A 
ATOM      5  C   UNL     1       5.938   4.393  15.746  0.00  0.00    +0.000 A 
ATOM      6 CL   UNL     1       6.565   3.938  14.210  0.00  0.00    +0.000 Cl
ATOM      7  C   UNL     1       6.806   4.767  16.766  0.00  0.00    +0.000 A 
ATOM      8  C   UNL     1       6.301   5.090  18.030  0.00  0.00    +0.000 A 
ATOM      9 CL   UNL     1       7.445   5.530  19.245  0.00  0.00    +0.000 Cl
ENDBRANCH   1   2
BRANCH   1  14
ATOM     10  C   UNL     1       3.155   3.013  19.931  0.00  0.00    +0.000 A 
ATOM     11  C   UNL     1       1.827   2.640  20.084  0.00  0.00    +0.000 A 
ATOM     12  C   UNL     1       1.049   3.805  20.240  0.00  0.00    +0.000 A 
ATOM     13  C   UNL     1       1.910   4.871  20.164  0.00  0.00    +0.000 A 
ATOM     14  N   UNL     1       3.179   4.396  19.900  0.00  0.00    +0.000 N 
BRANCH  10  16
ATOM     15  O   UNL     1       5.123   1.912  20.705  0.00  0.00    +0.000 OA
ATOM     16  C   UNL     1       4.279   2.109  19.833  0.00  0.00    +0.000 C 
ENDBRANCH  10  16
ENDBRANCH   1  14
TORSDOF 3
ENDMDL
MODEL 4
REMARK VINA RESULT:      -6.8      2.196      2.871
REMARK  Name = 
REMARK  3 active torsions:
REMARK  status: ('A' for Active; 'I' for Inactive)
REMARK    1  A    between atoms: C_2  and  C_3
REMARK    2  A    between atoms: N_7  and  C_8
REMARK    3  A    between atoms: C_8  and  C_9
REMARK                            x       y       z     vdW  Elec       q    Type
REMARK                         _______ _______ _______ _____ _____    ______ ____
ROOT
ATOM      1  C   UNL     1       5.012   3.991  19.463  0.00  0.00    +0.000 C 
ENDROOT
BRANCH   1   2
ATOM      2  C   UNL     1       5.517   4.348  18.079  0.00  0.00    +0.000 A 
ATOM      3  C   UNL     1       4.819   3.866  16.954  0.00  0.00    +0.000 A 
ATOM      4  C   UNL     1       5.312   4.062  15.664  0.00  0.00    +0.000 A 
ATOM      5  C   UNL     1       6.496   4.768  15.477  0.00  0.00    +0.000 A 
ATOM      6 CL   UNL     1       7.125   4.977  13.890  0.00  0.00    +0.000 Cl
ATOM      7  C   UNL     1       7.180   5.294  16.568  0.00  0.00    +0.000 A 
ATOM      8  C   UNL     1       6.695   5.083  17.864  0.00  0.00    +0.000 A 
ATOM      9 CL   UNL     1       7.609   5.757  19.164  0.00  0.00    +0.000 Cl
ENDBRANCH   1   2
BRANCH   1  14
ATOM     10  C   UNL     1       2.614   4.107  20.359  0.00  0.00    +0.000 A 
ATOM     11  C   UNL     1       1.625   5.080  20.313  0.00  0.00    +0.000 A 
ATOM     12  C   UNL     1       2.175   6.252  19.758  0.00  0.00    +0.000 A 
ATOM     13  C   UNL     1       3.485   5.974  19.459  0.00  0.00    +0.000 A 
ATOM     14  N   UNL     1       3.733   4.648  19.752  0.00  0.00    +0.000 N 
BRANCH  10  16
ATOM     15  O   UNL     1       2.632   2.508  22.128  0.00  0.00    +0.000 OA
ATOM     16  C   UNL     1       2.476   2.790  20.941  0.00  0.00    +0.000 C 
ENDBRANCH  10  16
ENDBRANCH   1  14
TORSDOF 3
ENDMDL
MODEL 5
REMARK VINA RESULT:      -6.7      2.993      5.190
REMARK  Name = 
REMARK  3 active torsions:
REMARK  status: ('A' for Active; 'I' for Inactive)
REMARK    1  A    between atoms: C_2  and  C_3
REMARK    2  A    between atoms: N_7  and  C_8
REMARK    3  A    between atoms: C_8  and  C_9
REMARK                            x       y       z     vdW  Elec       q    Type
REMARK                         _______ _______ _______ _____ _____    ______ ____
ROOT
ATOM      1  C   UNL     1       4.655   5.909  17.051  0.00  0.00    +0.000 C 
ENDROOT
BRANCH   1   2
ATOM      2  C   UNL     1       3.607   4.955  17.589  0.00  0.00    +0.000 A 
ATOM      3  C   UNL     1       3.581   3.631  17.106  0.00  0.00    +0.000 A 
ATOM      4  C   UNL     1       2.563   2.751  17.476  0.00  0.00    +0.000 A 
ATOM      5  C   UNL     1       1.571   3.174  18.355  0.00  0.00    +0.000 A 
ATOM      6 CL   UNL     1       0.295   2.102  18.781  0.00  0.00    +0.000 Cl
ATOM      7  C   UNL     1       1.602   4.461  18.882  0.00  0.00    +0.000 A 
ATOM      8  C   UNL     1       2.612   5.349  18.499  0.00  0.00    +0.000 A 
ATOM      9 CL   UNL     1       2.570   6.932  19.187  0.00  0.00    +0.000 Cl
ENDBRANCH   1   2
BRANCH   1  14
ATOM     10  C   UNL     1       7.019   4.943  16.843  0.00  0.00    +0.000 A 
ATOM     11  C   UNL     1       8.047   4.733  17.752  0.00  0.00    +0.000 A 
ATOM     12  C   UNL     1       7.682   5.312  18.983  0.00  0.00    +0.000 A 
ATOM     13  C   UNL     1       6.432   5.852  18.813  0.00  0.00    +0.000 A 
ATOM     14  N   UNL     1       5.995   5.562  17.537  0.00  0.00    +0.000 N 
BRANCH  10  16
ATOM     15  O   UNL     1       7.469   5.277  14.525  0.00  0.00    +0.000 OA
ATOM     16  C   UNL     1       7.043   4.579  15.444  0.00  0.00    +0.000 C 
ENDBRANCH  10  16
ENDBRANCH   1  14
TORSDOF 3
ENDMDL
MODEL 6
REMARK VINA RESULT:      -6.7      2.739      5.195
REMARK  Name = 
REMARK  3 active torsions:
REMARK  status: ('A' for Active; 'I' for Inactive)
REMARK    1  A    between atoms: C_2  and  C_3
REMARK    2  A    between atoms: N_7  and  C_8
REMARK    3  A    between atoms: C_8  and  C_9
REMARK                            x       y       z     vdW  Elec       q    Type
REMARK                         _______ _______ _______ _____ _____    ______ ____
ROOT
ATOM      1  C   UNL     1       4.066   5.297  17.462  0.00  0.00    +0.000 C 
ENDROOT
BRANCH   1   2
ATOM      2  C   UNL     1       3.409   4.652  18.667  0.00  0.00    +0.000 A 
ATOM      3  C   UNL     1       3.546   3.263  18.854  0.00  0.00    +0.000 A 
ATOM      4  C   UNL     1       2.860   2.604  19.876  0.00  0.00    +0.000 A 
ATOM      5  C   UNL     1       2.048   3.329  20.741  0.00  0.00    +0.000 A 
ATOM      6 CL   UNL     1       1.172   2.512  21.976  0.00  0.00    +0.000 Cl
ATOM      7  C   UNL     1       1.933   4.709  20.606  0.00  0.00    +0.000 A 
ATOM      8  C   UNL     1       2.607   5.368  19.572  0.00  0.00    +0.000 A 
ATOM      9 CL   UNL     1       2.400   7.078  19.464  0.00  0.00    +0.000 Cl
ENDBRANCH   1   2
BRANCH   1  14
ATOM     10  C   UNL     1       6.361   4.473  16.675  0.00  0.00    +0.000 A 
ATOM     11  C   UNL     1       7.642   4.577  17.199  0.00  0.00    +0.000 A 
ATOM     12  C   UNL     1       7.601   5.429  18.320  0.00  0.00    +0.000 A 
ATOM     13  C   UNL     1       6.295   5.820  18.474  0.00  0.00    +0.000 A 
ATOM     14  N   UNL     1       5.526   5.180  17.523  0.00  0.00    +0.000 N 
BRANCH  10  16
ATOM     15  O   UNL     1       6.439   3.981  14.343  0.00  0.00    +0.000 OA
ATOM     16  C   UNL     1       5.997   3.761  15.470  0.00  0.00    +0.000 C 
ENDBRANCH  10  16
ENDBRANCH   1  14
TORSDOF 3
ENDMDL
MODEL 7
REMARK VINA RESULT:      -6.6      2.929      5.503
REMARK  Name = 
REMARK  3 active torsions:
REMARK  status: ('A' for Active; 'I' for Inactive)
REMARK    1  A    between atoms: C_2  and  C_3
REMARK    2  A    between atoms: N_7  and  C_8
REMARK    3  A    between atoms: C_8  and  C_9
REMARK                            x       y       z     vdW  Elec       q    Type
REMARK                         _______ _______ _______ _____ _____    ______ ____
ROOT
ATOM      1  C   UNL     1       4.246   6.160  17.110  0.00  0.00    +0.000 C 
ENDROOT
BRANCH   1   2
ATOM      2  C   UNL     1       3.534   5.226  18.069  0.00  0.00    +0.000 A 
ATOM      3  C   UNL     1       2.190   4.888  17.818  0.00  0.00    +0.000 A 
ATOM      4  C   UNL     1       1.455   4.134  18.734  0.00  0.00    +0.000 A 
ATOM      5  C   UNL     1       2.062   3.685  19.903  0.00  0.00    +0.000 A 
ATOM      6 CL   UNL     1       1.146   2.789  21.050  0.00  0.00    +0.000 Cl
ATOM      7  C   UNL     1       3.401   3.967  20.152  0.00  0.00    +0.000 A 
ATOM      8  C   UNL     1       4.133   4.737  19.242  0.00  0.00    +0.000 A 
ATOM      9 CL   UNL     1       5.785   5.053  19.631  0.00  0.00    +0.000 Cl
ENDBRANCH   1   2
BRANCH   1  14
ATOM     10  C   UNL     1       6.641   5.697  16.326  0.00  0.00    +0.000 A 
ATOM     11  C   UNL     1       7.185   4.846  15.375  0.00  0.00    +0.000 A 
ATOM     12  C   UNL     1       6.161   4.015  14.878  0.00  0.00    +0.000 A 
ATOM     13  C   UNL     1       5.006   4.381  15.521  0.00  0.00    +0.000 A 
ATOM     14  N   UNL     1       5.279   5.454  16.345  0.00  0.00    +0.000 N 
BRANCH  10  16
ATOM     15  O   UNL     1       7.409   7.861  16.969  0.00  0.00    +0.000 OA
ATOM     16  C   UNL     1       7.380   6.643  17.133  0.00  0.00    +0.000 C 
ENDBRANCH  10  16
ENDBRANCH   1  14
TORSDOF 3
ENDMDL
MODEL 8
REMARK VINA RESULT:      -6.6      2.113      2.807
REMARK  Name = 
REMARK  3 active torsions:
REMARK  status: ('A' for Active; 'I' for Inactive)
REMARK    1  A    between atoms: C_2  and  C_3
REMARK    2  A    between atoms: N_7  and  C_8
REMARK    3  A    between atoms: C_8  and  C_9
REMARK                            x       y       z     vdW  Elec       q    Type
REMARK                         _______ _______ _______ _____ _____    ______ ____
ROOT
ATOM      1  C   UNL     1       4.519   3.772  19.592  0.00  0.00    +0.000 C 
ENDROOT
BRANCH   1   2
ATOM      2  C   UNL     1       5.141   3.969  18.224  0.00  0.00    +0.000 A 
ATOM      3  C   UNL     1       6.476   4.413  18.141  0.00  0.00    +0.000 A 
ATOM      4  C   UNL     1       7.054   4.728  16.910  0.00  0.00    +0.000 A 
ATOM      5  C   UNL     1       6.314   4.576  15.742  0.00  0.00    +0.000 A 
ATOM      6 CL   UNL     1       7.013   4.999  14.228  0.00  0.00    +0.000 Cl
ATOM      7  C   UNL     1       5.010   4.094  15.793  0.00  0.00    +0.000 A 
ATOM      8  C   UNL     1       4.424   3.796  17.028  0.00  0.00    +0.000 A 
ATOM      9 CL   UNL     1       2.798   3.216  17.007  0.00  0.00    +0.000 Cl
ENDBRANCH   1   2
BRANCH   1  14
ATOM     10  C   UNL     1       2.301   4.610  20.564  0.00  0.00    +0.000 A 
ATOM     11  C   UNL     1       1.597   5.801  20.446  0.00  0.00    +0.000 A 
ATOM     12  C   UNL     1       2.393   6.724  19.738  0.00  0.00    +0.000 A 
ATOM     13  C   UNL     1       3.562   6.079  19.421  0.00  0.00    +0.000 A 
ATOM     14  N   UNL     1       3.478   4.771  19.854  0.00  0.00    +0.000 N 
BRANCH  10  16
ATOM     15  O   UNL     1       2.394   2.995  22.316  0.00  0.00    +0.000 OA
ATOM     16  C   UNL     1       1.867   3.443  21.299  0.00  0.00    +0.000 C 
ENDBRANCH  10  16
ENDBRANCH   1  14
TORSDOF 3
ENDMDL
MODEL 9
REMARK VINA RESULT:      -6.6      2.387      3.730
REMARK  Name = 
REMARK  3 active torsions:
REMARK  status: ('A' for Active; 'I' for Inactive)
REMARK    1  A    between atoms: C_2  and  C_3
REMARK    2  A    between atoms: N_7  and  C_8
REMARK    3  A    between atoms: C_8  and  C_9
REMARK                            x       y       z     vdW  Elec       q    Type
REMARK                         _______ _______ _______ _____ _____    ______ ____
ROOT
ATOM      1  C   UNL     1       3.932   4.946  19.501  0.00  0.00    +0.000 C 
ENDROOT
BRANCH   1   2
ATOM      2  C   UNL     1       3.274   6.274  19.181  0.00  0.00    +0.000 A 
ATOM      3  C   UNL     1       2.356   6.818  20.102  0.00  0.00    +0.000 A 
ATOM      4  C   UNL     1       1.632   7.972  19.799  0.00  0.00    +0.000 A 
ATOM      5  C   UNL     1       1.835   8.614  18.582  0.00  0.00    +0.000 A 
ATOM      6 CL   UNL     1       0.915  10.014  18.193  0.00  0.00    +0.000 Cl
ATOM      7  C   UNL     1       2.769   8.124  17.676  0.00  0.00    +0.000 A 
ATOM      8  C   UNL     1       3.483   6.957  17.971  0.00  0.00    +0.000 A 
ATOM      9 CL   UNL     1       4.613   6.406  16.788  0.00  0.00    +0.000 Cl
ENDBRANCH   1   2
BRANCH   1  14
ATOM     10  C   UNL     1       2.197   3.099  19.878  0.00  0.00    +0.000 A 
ATOM     11  C   UNL     1       1.714   2.068  19.084  0.00  0.00    +0.000 A 
ATOM     12  C   UNL     1       2.241   2.217  17.786  0.00  0.00    +0.000 A 
ATOM     13  C   UNL     1       3.049   3.326  17.810  0.00  0.00    +0.000 A 
ATOM     14  N   UNL     1       3.085   3.819  19.098  0.00  0.00    +0.000 N 
BRANCH  10  16
ATOM     15  O   UNL     1       2.422   2.953  22.247  0.00  0.00    +0.000 OA
ATOM     16  C   UNL     1       1.821   3.353  21.251  0.00  0.00    +0.000 C 
ENDBRANCH  10  16
ENDBRANCH   1  14
TORSDOF 3
ENDMDL
