MODEL 1
REMARK VINA RESULT:      -6.2      0.000      0.000
REMARK  Name = 
REMARK  14 active torsions:
REMARK  status: ('A' for Active; 'I' for Inactive)
REMARK    1  A    between atoms: C_1  and  C_2
REMARK    2  A    between atoms: C_2  and  C_3
REMARK    3  A    between atoms: C_3  and  C_4
REMARK    4  A    between atoms: C_4  and  C_5
REMARK    5  A    between atoms: C_5  and  C_6
REMARK    6  A    between atoms: C_6  and  C_7
REMARK    7  A    between atoms: C_7  and  C_8
REMARK    8  A    between atoms: C_8  and  C_9
REMARK    9  A    between atoms: C_9  and  C_10
REMARK   10  A    between atoms: C_10  and  O_11
REMARK   11  A    between atoms: C_10  and  C_12
REMARK   12  A    between atoms: C_12  and  N_13
REMARK   13  A    between atoms: C_12  and  C_14
REMARK   14  A    between atoms: C_14  and  C_15
REMARK                            x       y       z     vdW  Elec       q    Type
REMARK                         _______ _______ _______ _____ _____    ______ ____
ROOT
ATOM      1  C   UNL     1       5.874   5.886  17.538  0.00  0.00    +0.000 C 
ENDROOT
BRANCH   1   2
ATOM      2  O   UNL     1       6.262   7.262  17.439  0.00  0.00    +0.000 OA
ATOM      3  H   UNL     1       6.855   7.343  16.674  0.00  0.00    +0.000 HD
ENDBRANCH   1   2
BRANCH   1   4
ATOM      4  C   UNL     1       5.838   5.470  19.011  0.00  0.00    +0.000 C 
BRANCH   4   5
ATOM      5  C   UNL     1       4.517   4.846  19.427  0.00  0.00    +0.000 C 
BRANCH   5   6
ATOM      6  C   UNL     1       4.596   3.343  19.191  0.00  0.00    +0.000 C 
BRANCH   6   7
ATOM      7  C   UNL     1       3.551   2.909  18.182  0.00  0.00    +0.000 C 
BRANCH   7   8
ATOM      8  C   UNL     1       2.666   4.086  17.798  0.00  0.00    +0.000 C 
BRANCH   8   9
ATOM      9  C   UNL     1       1.202   3.678  17.875  0.00  0.00    +0.000 C 
BRANCH   9  10
ATOM     10  C   UNL     1       0.942   2.845  19.122  0.00  0.00    +0.000 C 
BRANCH  10  12
ATOM     11  C   UNL     1       1.739   3.043  21.488  0.00  0.00    +0.000 C 
ATOM     12  C   UNL     1       0.973   3.722  20.368  0.00  0.00    +0.000 C 
ENDBRANCH  10  12
ENDBRANCH   9  10
ENDBRANCH   8   9
ENDBRANCH   7   8
ENDBRANCH   6   7
ENDBRANCH   5   6
ENDBRANCH   4   5
ENDBRANCH   1   4
BRANCH   1  13
ATOM     13  C   UNL     1       6.844   5.012  16.692  0.00  0.00    +0.000 C 
BRANCH  13  14
ATOM     14  N   UNL     1       7.772   4.242  17.544  0.00  0.00    +0.000 NA
ATOM     15  H   UNL     1       7.989   3.340  17.130  0.00  0.00    +0.000 HD
ATOM     16  H   UNL     1       7.354   4.083  18.457  0.00  0.00    +0.000 HD
ENDBRANCH  13  14
BRANCH  13  17
ATOM     17  C   UNL     1       6.054   4.096  15.723  0.00  0.00    +0.000 C 
BRANCH  17  18
ATOM     18  C   UNL     1       6.438   4.224  14.270  0.00  0.00    +0.000 A 
ATOM     19  C   UNL     1       5.816   3.424  13.295  0.00  0.00    +0.000 A 
ATOM     20  C   UNL     1       6.177   3.534  11.955  0.00  0.00    +0.000 A 
ATOM     21  C   UNL     1       7.162   4.444  11.570  0.00  0.00    +0.000 A 
ATOM     22  C   UNL     1       7.779   5.248  12.529  0.00  0.00    +0.000 A 
ATOM     23  C   UNL     1       7.415   5.143  13.870  0.00  0.00    +0.000 A 
ENDBRANCH  17  18
ENDBRANCH  13  17
ENDBRANCH   1  13
TORSDOF 13
ENDMDL
MODEL 2
REMARK VINA RESULT:      -6.2      1.584      6.764
REMARK  Name = 
REMARK  14 active torsions:
REMARK  status: ('A' for Active; 'I' for Inactive)
REMARK    1  A    between atoms: C_1  and  C_2
REMARK    2  A    between atoms: C_2  and  C_3
REMARK    3  A    between atoms: C_3  and  C_4
REMARK    4  A    between atoms: C_4  and  C_5
REMARK    5  A    between atoms: C_5  and  C_6
REMARK    6  A    between atoms: C_6  and  C_7
REMARK    7  A    between atoms: C_7  and  C_8
REMARK    8  A    between atoms: C_8  and  C_9
REMARK    9  A    between atoms: C_9  and  C_10
REMARK   10  A    between atoms: C_10  and  O_11
REMARK   11  A    between atoms: C_10  and  C_12
REMARK   12  A    between atoms: C_12  and  N_13
REMARK   13  A    between atoms: C_12  and  C_14
REMARK   14  A    between atoms: C_14  and  C_15
REMARK                            x       y       z     vdW  Elec       q    Type
REMARK                         _______ _______ _______ _____ _____    ______ ____
ROOT
ATOM      1  C   UNL     1       6.184   4.635  17.688  0.00  0.00    +0.000 C 
ENDROOT
BRANCH   1   2
ATOM      2  O   UNL     1       7.524   4.135  17.604  0.00  0.00    +0.000 OA
ATOM      3  H   UNL     1       8.007   4.461  18.381  0.00  0.00    +0.000 HD
ENDBRANCH   1   2
BRANCH   1   4
ATOM      4  C   UNL     1       6.083   5.955  16.919  0.00  0.00    +0.000 C 
BRANCH   4   5
ATOM      5  C   UNL     1       5.824   5.767  15.434  0.00  0.00    +0.000 C 
BRANCH   5   6
ATOM      6  C   UNL     1       5.189   4.398  15.223  0.00  0.00    +0.000 C 
BRANCH   6   7
ATOM      7  C   UNL     1       6.067   3.538  14.335  0.00  0.00    +0.000 C 
BRANCH   7   8
ATOM      8  C   UNL     1       6.729   4.389  13.261  0.00  0.00    +0.000 C 
BRANCH   8   9
ATOM      9  C   UNL     1       6.663   3.671  11.921  0.00  0.00    +0.000 C 
BRANCH   9  10
ATOM     10  C   UNL     1       5.441   2.767  11.857  0.00  0.00    +0.000 C 
BRANCH  10  12
ATOM     11  C   UNL     1       3.479   3.151  10.348  0.00  0.00    +0.000 C 
ATOM     12  C   UNL     1       4.179   3.586  11.622  0.00  0.00    +0.000 C 
ENDBRANCH  10  12
ENDBRANCH   9  10
ENDBRANCH   8   9
ENDBRANCH   7   8
ENDBRANCH   6   7
ENDBRANCH   5   6
ENDBRANCH   4   5
ENDBRANCH   1   4
BRANCH   1  13
ATOM     13  C   UNL     1       5.780   4.781  19.184  0.00  0.00    +0.000 C 
BRANCH  13  14
ATOM     14  N   UNL     1       6.883   5.326  20.000  0.00  0.00    +0.000 NA
ATOM     15  H   UNL     1       7.701   4.725  19.961  0.00  0.00    +0.000 HD
ATOM     16  H   UNL     1       6.590   5.405  20.971  0.00  0.00    +0.000 HD
ENDBRANCH  13  14
BRANCH  13  17
ATOM     17  C   UNL     1       4.487   5.625  19.323  0.00  0.00    +0.000 C 
BRANCH  17  18
ATOM     18  C   UNL     1       3.209   4.826  19.389  0.00  0.00    +0.000 A 
ATOM     19  C   UNL     1       2.560   4.421  18.210  0.00  0.00    +0.000 A 
ATOM     20  C   UNL     1       1.375   3.693  18.269  0.00  0.00    +0.000 A 
ATOM     21  C   UNL     1       0.823   3.358  19.506  0.00  0.00    +0.000 A 
ATOM     22  C   UNL     1       1.465   3.748  20.682  0.00  0.00    +0.000 A 
ATOM     23  C   UNL     1       2.654   4.472  20.624  0.00  0.00    +0.000 A 
ENDBRANCH  17  18
ENDBRANCH  13  17
ENDBRANCH   1  13
TORSDOF 13
ENDMDL
MODEL 3
REMARK VINA RESULT:      -6.1      1.253      2.199
REMARK  Name = 
REMARK  14 active torsions:
REMARK  status: ('A' for Active; 'I' for Inactive)
REMARK    1  A    between atoms: C_1  and  C_2
REMARK    2  A    between atoms: C_2  and  C_3
REMARK    3  A    between atoms: C_3  and  C_4
REMARK    4  A    between atoms: C_4  and  C_5
REMARK    5  A    between atoms: C_5  and  C_6
REMARK    6  A    between atoms: C_6  and  C_7
REMARK    7  A    between atoms: C_7  and  C_8
REMARK    8  A    between atoms: C_8  and  C_9
REMARK    9  A    between atoms: C_9  and  C_10
REMARK   10  A    between atoms: C_10  and  O_11
REMARK   11  A    between atoms: C_10  and  C_12
REMARK   12  A    between atoms: C_12  and  N_13
REMARK   13  A    between atoms: C_12  and  C_14
REMARK   14  A    between atoms: C_14  and  C_15
REMARK                            x       y       z     vdW  Elec       q    Type
REMARK                         _______ _______ _______ _____ _____    ______ ____
ROOT
ATOM      1  C   UNL     1       4.380   5.549  17.195  0.00  0.00    +0.000 C 
ENDROOT
BRANCH   1   2
ATOM      2  O   UNL     1       4.579   6.880  16.705  0.00  0.00    +0.000 OA
ATOM      3  H   UNL     1       4.383   6.874  15.753  0.00  0.00    +0.000 HD
ENDBRANCH   1   2
BRANCH   1   4
ATOM      4  C   UNL     1       3.943   5.604  18.661  0.00  0.00    +0.000 C 
BRANCH   4   5
ATOM      5  C   UNL     1       2.472   5.944  18.837  0.00  0.00    +0.000 C 
BRANCH   5   6
ATOM      6  C   UNL     1       2.093   5.711  20.295  0.00  0.00    +0.000 C 
BRANCH   6   7
ATOM      7  C   UNL     1       1.088   4.582  20.407  0.00  0.00    +0.000 C 
BRANCH   7   8
ATOM      8  C   UNL     1       1.667   3.437  21.224  0.00  0.00    +0.000 C 
BRANCH   8   9
ATOM      9  C   UNL     1       1.935   2.242  20.320  0.00  0.00    +0.000 C 
BRANCH   9  10
ATOM     10  C   UNL     1       1.237   2.417  18.979  0.00  0.00    +0.000 C 
BRANCH  10  12
ATOM     11  C   UNL     1       3.500   1.616  18.264  0.00  0.00    +0.000 C 
ATOM     12  C   UNL     1       2.244   2.354  17.838  0.00  0.00    +0.000 C 
ENDBRANCH  10  12
ENDBRANCH   9  10
ENDBRANCH   8   9
ENDBRANCH   7   8
ENDBRANCH   6   7
ENDBRANCH   5   6
ENDBRANCH   4   5
ENDBRANCH   1   4
BRANCH   1  13
ATOM     13  C   UNL     1       5.682   4.722  16.989  0.00  0.00    +0.000 C 
BRANCH  13  14
ATOM     14  N   UNL     1       6.147   4.108  18.249  0.00  0.00    +0.000 NA
ATOM     15  H   UNL     1       7.077   4.434  18.496  0.00  0.00    +0.000 HD
ATOM     16  H   UNL     1       6.178   3.096  18.150  0.00  0.00    +0.000 HD
ENDBRANCH  13  14
BRANCH  13  17
ATOM     17  C   UNL     1       5.491   3.667  15.869  0.00  0.00    +0.000 C 
BRANCH  17  18
ATOM     18  C   UNL     1       6.147   4.008  14.555  0.00  0.00    +0.000 A 
ATOM     19  C   UNL     1       5.735   3.379  13.367  0.00  0.00    +0.000 A 
ATOM     20  C   UNL     1       6.348   3.684  12.155  0.00  0.00    +0.000 A 
ATOM     21  C   UNL     1       7.379   4.623  12.111  0.00  0.00    +0.000 A 
ATOM     22  C   UNL     1       7.789   5.260  13.283  0.00  0.00    +0.000 A 
ATOM     23  C   UNL     1       7.173   4.959  14.497  0.00  0.00    +0.000 A 
ENDBRANCH  17  18
ENDBRANCH  13  17
ENDBRANCH   1  13
TORSDOF 13
ENDMDL
MODEL 4
REMARK VINA RESULT:      -6.1      1.069      1.751
REMARK  Name = 
REMARK  14 active torsions:
REMARK  status: ('A' for Active; 'I' for Inactive)
REMARK    1  A    between atoms: C_1  and  C_2
REMARK    2  A    between atoms: C_2  and  C_3
REMARK    3  A    between atoms: C_3  and  C_4
REMARK    4  A    between atoms: C_4  and  C_5
REMARK    5  A    between atoms: C_5  and  C_6
REMARK    6  A    between atoms: C_6  and  C_7
REMARK    7  A    between atoms: C_7  and  C_8
REMARK    8  A    between atoms: C_8  and  C_9
REMARK    9  A    between atoms: C_9  and  C_10
REMARK   10  A    between atoms: C_10  and  O_11
REMARK   11  A    between atoms: C_10  and  C_12
REMARK   12  A    between atoms: C_12  and  N_13
REMARK   13  A    between atoms: C_12  and  C_14
REMARK   14  A    between atoms: C_14  and  C_15
REMARK                            x       y       z     vdW  Elec       q    Type
REMARK                         _______ _______ _______ _____ _____    ______ ____
ROOT
ATOM      1  C   UNL     1       6.050   5.410  18.287  0.00  0.00    +0.000 C 
ENDROOT
BRANCH   1   2
ATOM      2  O   UNL     1       6.891   5.051  19.390  0.00  0.00    +0.000 OA
ATOM      3  H   UNL     1       6.349   4.544  20.017  0.00  0.00    +0.000 HD
ENDBRANCH   1   2
BRANCH   1   4
ATOM      4  C   UNL     1       4.702   4.695  18.420  0.00  0.00    +0.000 C 
BRANCH   4   5
ATOM      5  C   UNL     1       4.750   3.488  19.342  0.00  0.00    +0.000 C 
BRANCH   5   6
ATOM      6  C   UNL     1       3.738   2.461  18.848  0.00  0.00    +0.000 C 
BRANCH   6   7
ATOM      7  C   UNL     1       2.968   3.006  17.661  0.00  0.00    +0.000 C 
BRANCH   7   8
ATOM      8  C   UNL     1       1.552   3.381  18.076  0.00  0.00    +0.000 C 
BRANCH   8   9
ATOM      9  C   UNL     1       1.252   2.813  19.456  0.00  0.00    +0.000 C 
BRANCH   9  10
ATOM     10  C   UNL     1       0.762   3.909  20.392  0.00  0.00    +0.000 C 
BRANCH  10  12
ATOM     11  C   UNL     1       1.936   6.115  20.563  0.00  0.00    +0.000 C 
ATOM     12  C   UNL     1       1.940   4.661  20.999  0.00  0.00    +0.000 C 
ENDBRANCH  10  12
ENDBRANCH   9  10
ENDBRANCH   8   9
ENDBRANCH   7   8
ENDBRANCH   6   7
ENDBRANCH   5   6
ENDBRANCH   4   5
ENDBRANCH   1   4
BRANCH   1  13
ATOM     13  C   UNL     1       6.776   5.075  16.952  0.00  0.00    +0.000 C 
BRANCH  13  14
ATOM     14  N   UNL     1       7.846   4.076  17.146  0.00  0.00    +0.000 NA
ATOM     15  H   UNL     1       7.538   3.148  16.868  0.00  0.00    +0.000 HD
ATOM     16  H   UNL     1       8.117   4.043  18.126  0.00  0.00    +0.000 HD
ENDBRANCH  13  14
BRANCH  13  17
ATOM     17  C   UNL     1       5.759   4.629  15.871  0.00  0.00    +0.000 C 
BRANCH  17  18
ATOM     18  C   UNL     1       6.320   4.519  14.475  0.00  0.00    +0.000 A 
ATOM     19  C   UNL     1       7.368   5.360  14.060  0.00  0.00    +0.000 A 
ATOM     20  C   UNL     1       7.880   5.267  12.769  0.00  0.00    +0.000 A 
ATOM     21  C   UNL     1       7.354   4.334  11.875  0.00  0.00    +0.000 A 
ATOM     22  C   UNL     1       6.321   3.488  12.281  0.00  0.00    +0.000 A 
ATOM     23  C   UNL     1       5.811   3.577  13.575  0.00  0.00    +0.000 A 
ENDBRANCH  17  18
ENDBRANCH  13  17
ENDBRANCH   1  13
TORSDOF 13
ENDMDL
MODEL 5
REMARK VINA RESULT:      -6.0      3.173      4.653
REMARK  Name = 
REMARK  14 active torsions:
REMARK  status: ('A' for Active; 'I' for Inactive)
REMARK    1  A    between atoms: C_1  and  C_2
REMARK    2  A    between atoms: C_2  and  C_3
REMARK    3  A    between atoms: C_3  and  C_4
REMARK    4  A    between atoms: C_4  and  C_5
REMARK    5  A    between atoms: C_5  and  C_6
REMARK    6  A    between atoms: C_6  and  C_7
REMARK    7  A    between atoms: C_7  and  C_8
REMARK    8  A    between atoms: C_8  and  C_9
REMARK    9  A    between atoms: C_9  and  C_10
REMARK   10  A    between atoms: C_10  and  O_11
REMARK   11  A    between atoms: C_10  and  C_12
REMARK   12  A    between atoms: C_12  and  N_13
REMARK   13  A    between atoms: C_12  and  C_14
REMARK   14  A    between atoms: C_14  and  C_15
REMARK                            x       y       z     vdW  Elec       q    Type
REMARK                         _______ _______ _______ _____ _____    ______ ____
ROOT
ATOM      1  C   UNL     1       4.037   2.708  19.576  0.00  0.00    +0.000 C 
ENDROOT
BRANCH   1   2
ATOM      2  O   UNL     1       5.028   1.739  19.936  0.00  0.00    +0.000 OA
ATOM      3  H   UNL     1       4.980   1.018  19.286  0.00  0.00    +0.000 HD
ENDBRANCH   1   2
BRANCH   1   4
ATOM      4  C   UNL     1       2.874   2.640  20.569  0.00  0.00    +0.000 C 
BRANCH   4   5
ATOM      5  C   UNL     1       2.533   3.985  21.190  0.00  0.00    +0.000 C 
BRANCH   5   6
ATOM      6  C   UNL     1       1.401   4.616  20.389  0.00  0.00    +0.000 C 
BRANCH   6   7
ATOM      7  C   UNL     1       1.450   6.127  20.502  0.00  0.00    +0.000 C 
BRANCH   7   8
ATOM      8  C   UNL     1       2.597   6.683  19.672  0.00  0.00    +0.000 C 
BRANCH   8   9
ATOM      9  C   UNL     1       2.101   7.036  18.278  0.00  0.00    +0.000 C 
BRANCH   9  10
ATOM     10  C   UNL     1       2.438   8.480  17.938  0.00  0.00    +0.000 C 
BRANCH  10  12
ATOM     11  C   UNL     1       1.296  10.529  18.818  0.00  0.00    +0.000 C 
ATOM     12  C   UNL     1       1.174   9.330  17.895  0.00  0.00    +0.000 C 
ENDBRANCH  10  12
ENDBRANCH   9  10
ENDBRANCH   8   9
ENDBRANCH   7   8
ENDBRANCH   6   7
ENDBRANCH   5   6
ENDBRANCH   4   5
ENDBRANCH   1   4
BRANCH   1  13
ATOM     13  C   UNL     1       3.585   2.466  18.107  0.00  0.00    +0.000 C 
BRANCH  13  14
ATOM     14  N   UNL     1       2.347   1.662  18.040  0.00  0.00    +0.000 NA
ATOM     15  H   UNL     1       2.146   1.376  17.085  0.00  0.00    +0.000 HD
ATOM     16  H   UNL     1       1.560   2.208  18.382  0.00  0.00    +0.000 HD
ENDBRANCH  13  14
BRANCH  13  17
ATOM     17  C   UNL     1       3.442   3.810  17.348  0.00  0.00    +0.000 C 
BRANCH  17  18
ATOM     18  C   UNL     1       4.742   4.426  16.896  0.00  0.00    +0.000 A 
ATOM     19  C   UNL     1       5.486   3.841  15.856  0.00  0.00    +0.000 A 
ATOM     20  C   UNL     1       6.691   4.403  15.445  0.00  0.00    +0.000 A 
ATOM     21  C   UNL     1       7.170   5.557  16.066  0.00  0.00    +0.000 A 
ATOM     22  C   UNL     1       6.436   6.150  17.093  0.00  0.00    +0.000 A 
ATOM     23  C   UNL     1       5.226   5.592  17.501  0.00  0.00    +0.000 A 
ENDBRANCH  17  18
ENDBRANCH  13  17
ENDBRANCH   1  13
TORSDOF 13
ENDMDL
MODEL 6
REMARK VINA RESULT:      -5.9      2.028      7.004
REMARK  Name = 
REMARK  14 active torsions:
REMARK  status: ('A' for Active; 'I' for Inactive)
REMARK    1  A    between atoms: C_1  and  C_2
REMARK    2  A    between atoms: C_2  and  C_3
REMARK    3  A    between atoms: C_3  and  C_4
REMARK    4  A    between atoms: C_4  and  C_5
REMARK    5  A    between atoms: C_5  and  C_6
REMARK    6  A    between atoms: C_6  and  C_7
REMARK    7  A    between atoms: C_7  and  C_8
REMARK    8  A    between atoms: C_8  and  C_9
REMARK    9  A    between atoms: C_9  and  C_10
REMARK   10  A    between atoms: C_10  and  O_11
REMARK   11  A    between atoms: C_10  and  C_12
REMARK   12  A    between atoms: C_12  and  N_13
REMARK   13  A    between atoms: C_12  and  C_14
REMARK   14  A    between atoms: C_14  and  C_15
REMARK                            x       y       z     vdW  Elec       q    Type
REMARK                         _______ _______ _______ _____ _____    ______ ____
ROOT
ATOM      1  C   UNL     1       6.802   4.793  17.238  0.00  0.00    +0.000 C 
ENDROOT
BRANCH   1   2
ATOM      2  O   UNL     1       7.566   5.988  17.036  0.00  0.00    +0.000 OA
ATOM      3  H   UNL     1       7.861   6.296  17.910  0.00  0.00    +0.000 HD
ENDBRANCH   1   2
BRANCH   1   4
ATOM      4  C   UNL     1       6.718   4.013  15.923  0.00  0.00    +0.000 C 
BRANCH   4   5
ATOM      5  C   UNL     1       7.068   4.850  14.704  0.00  0.00    +0.000 C 
BRANCH   5   6
ATOM      6  C   UNL     1       5.795   5.095  13.904  0.00  0.00    +0.000 C 
BRANCH   6   7
ATOM      7  C   UNL     1       5.151   3.778  13.516  0.00  0.00    +0.000 C 
BRANCH   7   8
ATOM      8  C   UNL     1       5.714   3.284  12.192  0.00  0.00    +0.000 C 
BRANCH   8   9
ATOM      9  C   UNL     1       4.580   2.816  11.292  0.00  0.00    +0.000 C 
BRANCH   9  10
ATOM     10  C   UNL     1       3.713   3.992  10.866  0.00  0.00    +0.000 C 
BRANCH  10  12
ATOM     11  C   UNL     1       2.293   4.914   9.020  0.00  0.00    +0.000 C 
ATOM     12  C   UNL     1       2.983   3.677   9.567  0.00  0.00    +0.000 C 
ENDBRANCH  10  12
ENDBRANCH   9  10
ENDBRANCH   8   9
ENDBRANCH   7   8
ENDBRANCH   6   7
ENDBRANCH   5   6
ENDBRANCH   4   5
ENDBRANCH   1   4
BRANCH   1  13
ATOM     13  C   UNL     1       5.401   5.163  17.805  0.00  0.00    +0.000 C 
BRANCH  13  14
ATOM     14  N   UNL     1       5.082   6.589  17.589  0.00  0.00    +0.000 NA
ATOM     15  H   UNL     1       5.671   6.993  16.866  0.00  0.00    +0.000 HD
ATOM     16  H   UNL     1       5.229   7.111  18.450  0.00  0.00    +0.000 HD
ENDBRANCH  13  14
BRANCH  13  17
ATOM     17  C   UNL     1       4.308   4.232  17.219  0.00  0.00    +0.000 C 
BRANCH  17  18
ATOM     18  C   UNL     1       3.227   3.830  18.191  0.00  0.00    +0.000 A 
ATOM     19  C   UNL     1       3.460   3.879  19.576  0.00  0.00    +0.000 A 
ATOM     20  C   UNL     1       2.467   3.498  20.474  0.00  0.00    +0.000 A 
ATOM     21  C   UNL     1       1.228   3.064  20.001  0.00  0.00    +0.000 A 
ATOM     22  C   UNL     1       0.984   3.020  18.628  0.00  0.00    +0.000 A 
ATOM     23  C   UNL     1       1.976   3.407  17.728  0.00  0.00    +0.000 A 
ENDBRANCH  17  18
ENDBRANCH  13  17
ENDBRANCH   1  13
TORSDOF 13
ENDMDL
MODEL 7
REMARK VINA RESULT:      -5.9      3.674      5.373
REMARK  Name = 
REMARK  14 active torsions:
REMARK  status: ('A' for Active; 'I' for Inactive)
REMARK    1  A    between atoms: C_1  and  C_2
REMARK    2  A    between atoms: C_2  and  C_3
REMARK    3  A    between atoms: C_3  and  C_4
REMARK    4  A    between atoms: C_4  and  C_5
REMARK    5  A    between atoms: C_5  and  C_6
REMARK    6  A    between atoms: C_6  and  C_7
REMARK    7  A    between atoms: C_7  and  C_8
REMARK    8  A    between atoms: C_8  and  C_9
REMARK    9  A    between atoms: C_9  and  C_10
REMARK   10  A    between atoms: C_10  and  O_11
REMARK   11  A    between atoms: C_10  and  C_12
REMARK   12  A    between atoms: C_12  and  N_13
REMARK   13  A    between atoms: C_12  and  C_14
REMARK   14  A    between atoms: C_14  and  C_15
REMARK                            x       y       z     vdW  Elec       q    Type
REMARK                         _______ _______ _______ _____ _____    ______ ____
ROOT
ATOM      1  C   UNL     1       2.199   2.379  19.297  0.00  0.00    +0.000 C 
ENDROOT
BRANCH   1   2
ATOM      2  O   UNL     1       1.362   1.373  18.717  0.00  0.00    +0.000 OA
ATOM      3  H   UNL     1       0.591   1.263  19.299  0.00  0.00    +0.000 HD
ENDBRANCH   1   2
BRANCH   1   4
ATOM      4  C   UNL     1       1.542   3.751  19.126  0.00  0.00    +0.000 C 
BRANCH   4   5
ATOM      5  C   UNL     1       1.119   4.384  20.441  0.00  0.00    +0.000 C 
BRANCH   5   6
ATOM      6  C   UNL     1       2.062   5.541  20.747  0.00  0.00    +0.000 C 
BRANCH   6   7
ATOM      7  C   UNL     1       2.428   6.278  19.473  0.00  0.00    +0.000 C 
BRANCH   7   8
ATOM      8  C   UNL     1       2.086   7.755  19.601  0.00  0.00    +0.000 C 
BRANCH   8   9
ATOM      9  C   UNL     1       1.391   8.011  20.930  0.00  0.00    +0.000 C 
BRANCH   9  10
ATOM     10  C   UNL     1       0.630   9.329  20.892  0.00  0.00    +0.000 C 
BRANCH  10  12
ATOM     11  C   UNL     1      -0.616  10.893  19.383  0.00  0.00    +0.000 C 
ATOM     12  C   UNL     1       0.421   9.786  19.454  0.00  0.00    +0.000 C 
ENDBRANCH  10  12
ENDBRANCH   9  10
ENDBRANCH   8   9
ENDBRANCH   7   8
ENDBRANCH   6   7
ENDBRANCH   5   6
ENDBRANCH   4   5
ENDBRANCH   1   4
BRANCH   1  13
ATOM     13  C   UNL     1       3.615   2.309  18.655  0.00  0.00    +0.000 C 
BRANCH  13  14
ATOM     14  N   UNL     1       4.000   0.921  18.329  0.00  0.00    +0.000 NA
ATOM     15  H   UNL     1       3.730   0.677  17.380  0.00  0.00    +0.000 HD
ATOM     16  H   UNL     1       3.542   0.275  18.968  0.00  0.00    +0.000 HD
ENDBRANCH  13  14
BRANCH  13  17
ATOM     17  C   UNL     1       3.702   3.238  17.416  0.00  0.00    +0.000 C 
BRANCH  17  18
ATOM     18  C   UNL     1       4.692   4.369  17.538  0.00  0.00    +0.000 A 
ATOM     19  C   UNL     1       4.735   5.387  16.569  0.00  0.00    +0.000 A 
ATOM     20  C   UNL     1       5.655   6.425  16.675  0.00  0.00    +0.000 A 
ATOM     21  C   UNL     1       6.545   6.463  17.749  0.00  0.00    +0.000 A 
ATOM     22  C   UNL     1       6.505   5.462  18.720  0.00  0.00    +0.000 A 
ATOM     23  C   UNL     1       5.580   4.425  18.619  0.00  0.00    +0.000 A 
ENDBRANCH  17  18
ENDBRANCH  13  17
ENDBRANCH   1  13
TORSDOF 13
ENDMDL
MODEL 8
REMARK VINA RESULT:      -5.9      3.267      4.757
REMARK  Name = 
REMARK  14 active torsions:
REMARK  status: ('A' for Active; 'I' for Inactive)
REMARK    1  A    between atoms: C_1  and  C_2
REMARK    2  A    between atoms: C_2  and  C_3
REMARK    3  A    between atoms: C_3  and  C_4
REMARK    4  A    between atoms: C_4  and  C_5
REMARK    5  A    between atoms: C_5  and  C_6
REMARK    6  A    between atoms: C_6  and  C_7
REMARK    7  A    between atoms: C_7  and  C_8
REMARK    8  A    between atoms: C_8  and  C_9
REMARK    9  A    between atoms: C_9  and  C_10
REMARK   10  A    between atoms: C_10  and  O_11
REMARK   11  A    between atoms: C_10  and  C_12
REMARK   12  A    between atoms: C_12  and  N_13
REMARK   13  A    between atoms: C_12  and  C_14
REMARK   14  A    between atoms: C_14  and  C_15
REMARK                            x       y       z     vdW  Elec       q    Type
REMARK                         _______ _______ _______ _____ _____    ______ ____
ROOT
ATOM      1  C   UNL     1       3.863   2.875  19.563  0.00  0.00    +0.000 C 
ENDROOT
BRANCH   1   2
ATOM      2  O   UNL     1       5.047   2.177  19.966  0.00  0.00    +0.000 OA
ATOM      3  H   UNL     1       5.628   2.115  19.189  0.00  0.00    +0.000 HD
ENDBRANCH   1   2
BRANCH   1   4
ATOM      4  C   UNL     1       2.724   2.549  20.533  0.00  0.00    +0.000 C 
BRANCH   4   5
ATOM      5  C   UNL     1       2.182   3.771  21.257  0.00  0.00    +0.000 C 
BRANCH   5   6
ATOM      6  C   UNL     1       2.708   5.019  20.559  0.00  0.00    +0.000 C 
BRANCH   6   7
ATOM      7  C   UNL     1       1.605   6.050  20.416  0.00  0.00    +0.000 C 
BRANCH   7   8
ATOM      8  C   UNL     1       2.188   7.393  20.001  0.00  0.00    +0.000 C 
BRANCH   8   9
ATOM      9  C   UNL     1       2.456   7.398  18.504  0.00  0.00    +0.000 C 
BRANCH   9  10
ATOM     10  C   UNL     1       1.702   8.534  17.827  0.00  0.00    +0.000 C 
BRANCH  10  12
ATOM     11  C   UNL     1      -0.103  10.173  18.404  0.00  0.00    +0.000 C 
ATOM     12  C   UNL     1       1.195   9.532  18.861  0.00  0.00    +0.000 C 
ENDBRANCH  10  12
ENDBRANCH   9  10
ENDBRANCH   8   9
ENDBRANCH   7   8
ENDBRANCH   6   7
ENDBRANCH   5   6
ENDBRANCH   4   5
ENDBRANCH   1   4
BRANCH   1  13
ATOM     13  C   UNL     1       3.520   2.507  18.091  0.00  0.00    +0.000 C 
BRANCH  13  14
ATOM     14  N   UNL     1       2.302   1.677  18.002  0.00  0.00    +0.000 NA
ATOM     15  H   UNL     1       1.794   1.860  17.142  0.00  0.00    +0.000 HD
ATOM     16  H   UNL     1       1.686   1.881  18.786  0.00  0.00    +0.000 HD
ENDBRANCH  13  14
BRANCH  13  17
ATOM     17  C   UNL     1       3.415   3.783  17.216  0.00  0.00    +0.000 C 
BRANCH  17  18
ATOM     18  C   UNL     1       4.731   4.444  16.894  0.00  0.00    +0.000 A 
ATOM     19  C   UNL     1       5.093   5.653  17.515  0.00  0.00    +0.000 A 
ATOM     20  C   UNL     1       6.303   6.270  17.210  0.00  0.00    +0.000 A 
ATOM     21  C   UNL     1       7.168   5.689  16.283  0.00  0.00    +0.000 A 
ATOM     22  C   UNL     1       6.822   4.485  15.668  0.00  0.00    +0.000 A 
ATOM     23  C   UNL     1       5.614   3.863  15.976  0.00  0.00    +0.000 A 
ENDBRANCH  17  18
ENDBRANCH  13  17
ENDBRANCH   1  13
TORSDOF 13
ENDMDL
MODEL 9
REMARK VINA RESULT:      -5.9      1.778      6.987
REMARK  Name = 
REMARK  14 active torsions:
REMARK  status: ('A' for Active; 'I' for Inactive)
REMARK    1  A    between atoms: C_1  and  C_2
REMARK    2  A    between atoms: C_2  and  C_3
REMARK    3  A    between atoms: C_3  and  C_4
REMARK    4  A    between atoms: C_4  and  C_5
REMARK    5  A    between atoms: C_5  and  C_6
REMARK    6  A    between atoms: C_6  and  C_7
REMARK    7  A    between atoms: C_7  and  C_8
REMARK    8  A    between atoms: C_8  and  C_9
REMARK    9  A    between atoms: C_9  and  C_10
REMARK   10  A    between atoms: C_10  and  O_11
REMARK   11  A    between atoms: C_10  and  C_12
REMARK   12  A    between atoms: C_12  and  N_13
REMARK   13  A    between atoms: C_12  and  C_14
REMARK   14  A    between atoms: C_14  and  C_15
REMARK                            x       y       z     vdW  Elec       q    Type
REMARK                         _______ _______ _______ _____ _____    ______ ____
ROOT
ATOM      1  C   UNL     1       6.843   4.817  16.736  0.00  0.00    +0.000 C 
ENDROOT
BRANCH   1   2
ATOM      2  O   UNL     1       7.281   6.131  16.369  0.00  0.00    +0.000 OA
ATOM      3  H   UNL     1       6.650   6.765  16.749  0.00  0.00    +0.000 HD
ENDBRANCH   1   2
BRANCH   1   4
ATOM      4  C   UNL     1       6.569   3.999  15.472  0.00  0.00    +0.000 C 
BRANCH   4   5
ATOM      5  C   UNL     1       6.124   4.846  14.292  0.00  0.00    +0.000 C 
BRANCH   5   6
ATOM      6  C   UNL     1       7.265   4.909  13.284  0.00  0.00    +0.000 C 
BRANCH   6   7
ATOM      7  C   UNL     1       6.904   4.144  12.026  0.00  0.00    +0.000 C 
BRANCH   7   8
ATOM      8  C   UNL     1       6.407   2.750  12.380  0.00  0.00    +0.000 C 
BRANCH   8   9
ATOM      9  C   UNL     1       5.243   2.372  11.475  0.00  0.00    +0.000 C 
BRANCH   9  10
ATOM     10  C   UNL     1       4.275   3.537  11.333  0.00  0.00    +0.000 C 
BRANCH  10  12
ATOM     11  C   UNL     1       2.805   4.452   9.523  0.00  0.00    +0.000 C 
ATOM     12  C   UNL     1       3.193   3.214  10.310  0.00  0.00    +0.000 C 
ENDBRANCH  10  12
ENDBRANCH   9  10
ENDBRANCH   8   9
ENDBRANCH   7   8
ENDBRANCH   6   7
ENDBRANCH   5   6
ENDBRANCH   4   5
ENDBRANCH   1   4
BRANCH   1  13
ATOM     13  C   UNL     1       5.596   4.927  17.661  0.00  0.00    +0.000 C 
BRANCH  13  14
ATOM     14  N   UNL     1       4.879   6.203  17.466  0.00  0.00    +0.000 NA
ATOM     15  H   UNL     1       3.888   6.047  17.303  0.00  0.00    +0.000 HD
ATOM     16  H   UNL     1       5.261   6.696  16.662  0.00  0.00    +0.000 HD
ENDBRANCH  13  14
BRANCH  13  17
ATOM     17  C   UNL     1       4.662   3.705  17.470  0.00  0.00    +0.000 C 
BRANCH  17  18
ATOM     18  C   UNL     1       3.420   3.712  18.326  0.00  0.00    +0.000 A 
ATOM     19  C   UNL     1       2.146   3.657  17.734  0.00  0.00    +0.000 A 
ATOM     20  C   UNL     1       0.999   3.676  18.522  0.00  0.00    +0.000 A 
ATOM     21  C   UNL     1       1.107   3.748  19.911  0.00  0.00    +0.000 A 
ATOM     22  C   UNL     1       2.368   3.794  20.508  0.00  0.00    +0.000 A 
ATOM     23  C   UNL     1       3.517   3.770  19.721  0.00  0.00    +0.000 A 
ENDBRANCH  17  18
ENDBRANCH  13  17
ENDBRANCH   1  13
TORSDOF 13
ENDMDL
