MODEL 1
REMARK VINA RESULT:      -8.3      0.000      0.000
REMARK  Name = 
REMARK  8 active torsions:
REMARK  status: ('A' for Active; 'I' for Inactive)
REMARK    1  A    between atoms: C_1  and  O_2
REMARK    2  A    between atoms: O_2  and  C_3
REMARK    3  A    between atoms: C_6  and  C_7
REMARK    4  A    between atoms: C_9  and  C_10
REMARK    5  A    between atoms: C_17  and  C_18
REMARK    6  A    between atoms: C_18  and  O_20
REMARK    7  A    between atoms: C_24  and  O_25
REMARK    8  A    between atoms: O_25  and  C_26
REMARK                            x       y       z     vdW  Elec       q    Type
REMARK                         _______ _______ _______ _____ _____    ______ ____
ROOT
ATOM      1  C   UNL     1       2.588   6.818  18.950  0.00  0.00    +0.000 A 
ATOM      2  C   UNL     1       3.536   6.797  17.790  0.00  0.00    +0.000 A 
ATOM      3  C   UNL     1       4.132   5.620  17.511  0.00  0.00    +0.000 A 
ATOM      4  N   UNL     1       3.858   4.511  18.302  0.00  0.00    +0.000 N 
ATOM      5  N   UNL     1       4.333   3.245  18.209  0.00  0.00    +0.000 NA
ATOM      6  C   UNL     1       3.749   2.576  19.203  0.00  0.00    +0.000 A 
ATOM      7  C   UNL     1       2.893   3.375  19.973  0.00  0.00    +0.000 A 
ATOM      8  C   UNL     1       2.974   4.622  19.387  0.00  0.00    +0.000 A 
ATOM      9  N   UNL     1       2.343   5.789  19.714  0.00  0.00    +0.000 NA
ENDROOT
BRANCH   1  13
ATOM     10  C   UNL     1       0.618  10.563  19.740  0.00  0.00    +0.000 A 
ATOM     11  C   UNL     1       0.968  10.184  18.435  0.00  0.00    +0.000 A 
ATOM     12  C   UNL     1       1.584   8.956  18.186  0.00  0.00    +0.000 A 
ATOM     13  C   UNL     1       1.896   8.103  19.246  0.00  0.00    +0.000 A 
ATOM     14  C   UNL     1       1.619   8.510  20.553  0.00  0.00    +0.000 A 
ATOM     15  C   UNL     1       0.984   9.735  20.814  0.00  0.00    +0.000 A 
BRANCH  10  17
ATOM     16  C   UNL     1      -1.062  12.095  19.058  0.00  0.00    +0.000 C 
ATOM     17  O   UNL     1      -0.035  11.740  19.984  0.00  0.00    +0.000 OA
ENDBRANCH  10  17
BRANCH  15  18
ATOM     18  O   UNL     1       0.800   9.929  22.156  0.00  0.00    +0.000 OA
ATOM     19  C   UNL     1      -0.295   9.301  22.805  0.00  0.00    +0.000 C 
ENDBRANCH  15  18
ENDBRANCH   1  13
BRANCH   3  20
ATOM     20  C   UNL     1       5.083   5.483  16.377  0.00  0.00    +0.000 C 
ATOM     21  F   UNL     1       4.849   4.479  15.502  0.00  0.00    +0.000 F 
ATOM     22  F   UNL     1       5.112   6.631  15.643  0.00  0.00    +0.000 F 
ATOM     23  F   UNL     1       6.352   5.307  16.836  0.00  0.00    +0.000 F 
ENDBRANCH   3  20
BRANCH   7  24
ATOM     24  C   UNL     1       2.098   2.993  21.116  0.00  0.00    +0.000 C 
ATOM     25  O   UNL     1       2.583   2.561  22.152  0.00  0.00    +0.000 OA
BRANCH  24  26
ATOM     26  O   UNL     1       0.756   3.151  20.958  0.00  0.00    +0.000 OA
ATOM     27  H   UNL     1       0.360   2.358  20.531  0.00  0.00    +0.000 HD
ENDBRANCH  24  26
ENDBRANCH   7  24
TORSDOF 6
ENDMDL
MODEL 2
REMARK VINA RESULT:      -8.2      0.995      1.276
REMARK  Name = 
REMARK  8 active torsions:
REMARK  status: ('A' for Active; 'I' for Inactive)
REMARK    1  A    between atoms: C_1  and  O_2
REMARK    2  A    between atoms: O_2  and  C_3
REMARK    3  A    between atoms: C_6  and  C_7
REMARK    4  A    between atoms: C_9  and  C_10
REMARK    5  A    between atoms: C_17  and  C_18
REMARK    6  A    between atoms: C_18  and  O_20
REMARK    7  A    between atoms: C_24  and  O_25
REMARK    8  A    between atoms: O_25  and  C_26
REMARK                            x       y       z     vdW  Elec       q    Type
REMARK                         _______ _______ _______ _____ _____    ______ ____
ROOT
ATOM      1  C   UNL     1       2.955   6.442  19.118  0.00  0.00    +0.000 A 
ATOM      2  C   UNL     1       4.245   6.371  18.358  0.00  0.00    +0.000 A 
ATOM      3  C   UNL     1       4.905   5.195  18.388  0.00  0.00    +0.000 A 
ATOM      4  N   UNL     1       4.379   4.134  19.115  0.00  0.00    +0.000 N 
ATOM      5  N   UNL     1       4.862   2.879  19.284  0.00  0.00    +0.000 NA
ATOM      6  C   UNL     1       3.973   2.263  20.063  0.00  0.00    +0.000 A 
ATOM      7  C   UNL     1       2.902   3.087  20.432  0.00  0.00    +0.000 A 
ATOM      8  C   UNL     1       3.176   4.293  19.820  0.00  0.00    +0.000 A 
ATOM      9  N   UNL     1       2.467   5.461  19.824  0.00  0.00    +0.000 NA
ENDROOT
BRANCH   1  13
ATOM     10  C   UNL     1       0.816  10.171  18.902  0.00  0.00    +0.000 A 
ATOM     11  C   UNL     1       1.468   9.639  17.779  0.00  0.00    +0.000 A 
ATOM     12  C   UNL     1       2.139   8.416  17.853  0.00  0.00    +0.000 A 
ATOM     13  C   UNL     1       2.200   7.725  19.063  0.00  0.00    +0.000 A 
ATOM     14  C   UNL     1       1.617   8.288  20.201  0.00  0.00    +0.000 A 
ATOM     15  C   UNL     1       0.926   9.509  20.135  0.00  0.00    +0.000 A 
BRANCH  10  17
ATOM     16  C   UNL     1      -1.284  11.219  18.542  0.00  0.00    +0.000 C 
ATOM     17  O   UNL     1       0.111  11.341  18.822  0.00  0.00    +0.000 OA
ENDBRANCH  10  17
BRANCH  15  18
ATOM     18  O   UNL     1       0.427   9.870  21.358  0.00  0.00    +0.000 OA
ATOM     19  C   UNL     1      -0.394   8.957  22.070  0.00  0.00    +0.000 C 
ENDBRANCH  15  18
ENDBRANCH   1  13
BRANCH   3  20
ATOM     20  C   UNL     1       6.188   5.009  17.661  0.00  0.00    +0.000 C 
ATOM     21  F   UNL     1       7.257   4.631  18.398  0.00  0.00    +0.000 F 
ATOM     22  F   UNL     1       6.046   4.071  16.683  0.00  0.00    +0.000 F 
ATOM     23  F   UNL     1       6.547   6.156  17.024  0.00  0.00    +0.000 F 
ENDBRANCH   3  20
BRANCH   7  24
ATOM     24  C   UNL     1       1.763   2.760  21.258  0.00  0.00    +0.000 C 
ATOM     25  O   UNL     1       1.864   2.216  22.348  0.00  0.00    +0.000 OA
BRANCH  24  26
ATOM     26  O   UNL     1       0.558   3.106  20.733  0.00  0.00    +0.000 OA
ATOM     27  H   UNL     1      -0.134   2.455  20.989  0.00  0.00    +0.000 HD
ENDBRANCH  24  26
ENDBRANCH   7  24
TORSDOF 6
ENDMDL
MODEL 3
REMARK VINA RESULT:      -8.1      0.680      1.021
REMARK  Name = 
REMARK  8 active torsions:
REMARK  status: ('A' for Active; 'I' for Inactive)
REMARK    1  A    between atoms: C_1  and  O_2
REMARK    2  A    between atoms: O_2  and  C_3
REMARK    3  A    between atoms: C_6  and  C_7
REMARK    4  A    between atoms: C_9  and  C_10
REMARK    5  A    between atoms: C_17  and  C_18
REMARK    6  A    between atoms: C_18  and  O_20
REMARK    7  A    between atoms: C_24  and  O_25
REMARK    8  A    between atoms: O_25  and  C_26
REMARK                            x       y       z     vdW  Elec       q    Type
REMARK                         _______ _______ _______ _____ _____    ______ ____
ROOT
ATOM      1  C   UNL     1       2.716   6.680  18.771  0.00  0.00    +0.000 A 
ATOM      2  C   UNL     1       3.688   6.530  17.640  0.00  0.00    +0.000 A 
ATOM      3  C   UNL     1       4.224   5.306  17.456  0.00  0.00    +0.000 A 
ATOM      4  N   UNL     1       3.870   4.269  18.311  0.00  0.00    +0.000 N 
ATOM      5  N   UNL     1       4.275   2.976  18.315  0.00  0.00    +0.000 NA
ATOM      6  C   UNL     1       3.631   2.409  19.335  0.00  0.00    +0.000 A 
ATOM      7  C   UNL     1       2.804   3.304  20.027  0.00  0.00    +0.000 A 
ATOM      8  C   UNL     1       2.969   4.501  19.362  0.00  0.00    +0.000 A 
ATOM      9  N   UNL     1       2.397   5.721  19.595  0.00  0.00    +0.000 NA
ENDROOT
BRANCH   1  13
ATOM     10  C   UNL     1       0.958  10.577  19.272  0.00  0.00    +0.000 A 
ATOM     11  C   UNL     1       1.603  10.216  18.079  0.00  0.00    +0.000 A 
ATOM     12  C   UNL     1       2.148   8.941  17.917  0.00  0.00    +0.000 A 
ATOM     13  C   UNL     1       2.091   8.019  18.962  0.00  0.00    +0.000 A 
ATOM     14  C   UNL     1       1.517   8.400  20.178  0.00  0.00    +0.000 A 
ATOM     15  C   UNL     1       0.951   9.674  20.346  0.00  0.00    +0.000 A 
BRANCH  10  17
ATOM     16  C   UNL     1       1.223  12.858  19.874  0.00  0.00    +0.000 C 
ATOM     17  O   UNL     1       0.374  11.806  19.416  0.00  0.00    +0.000 OA
ENDBRANCH  10  17
BRANCH  15  18
ATOM     18  O   UNL     1       0.437   9.832  21.606  0.00  0.00    +0.000 OA
ATOM     19  C   UNL     1      -0.399   8.821  22.147  0.00  0.00    +0.000 C 
ENDBRANCH  15  18
ENDBRANCH   1  13
BRANCH   3  20
ATOM     20  C   UNL     1       5.191   5.041  16.360  0.00  0.00    +0.000 C 
ATOM     21  F   UNL     1       5.516   6.087  15.567  0.00  0.00    +0.000 F 
ATOM     22  F   UNL     1       6.363   4.567  16.867  0.00  0.00    +0.000 F 
ATOM     23  F   UNL     1       4.723   4.065  15.535  0.00  0.00    +0.000 F 
ENDBRANCH   3  20
BRANCH   7  24
ATOM     24  C   UNL     1       1.962   3.043  21.172  0.00  0.00    +0.000 C 
ATOM     25  O   UNL     1       2.402   2.901  22.304  0.00  0.00    +0.000 OA
BRANCH  24  26
ATOM     26  O   UNL     1       0.633   2.969  20.898  0.00  0.00    +0.000 OA
ATOM     27  H   UNL     1       0.135   2.630  21.678  0.00  0.00    +0.000 HD
ENDBRANCH  24  26
ENDBRANCH   7  24
TORSDOF 6
ENDMDL
MODEL 4
REMARK VINA RESULT:      -7.9      0.915      1.873
REMARK  Name = 
REMARK  8 active torsions:
REMARK  status: ('A' for Active; 'I' for Inactive)
REMARK    1  A    between atoms: C_1  and  O_2
REMARK    2  A    between atoms: O_2  and  C_3
REMARK    3  A    between atoms: C_6  and  C_7
REMARK    4  A    between atoms: C_9  and  C_10
REMARK    5  A    between atoms: C_17  and  C_18
REMARK    6  A    between atoms: C_18  and  O_20
REMARK    7  A    between atoms: C_24  and  O_25
REMARK    8  A    between atoms: O_25  and  C_26
REMARK                            x       y       z     vdW  Elec       q    Type
REMARK                         _______ _______ _______ _____ _____    ______ ____
ROOT
ATOM      1  C   UNL     1       2.456   6.835  19.424  0.00  0.00    +0.000 A 
ATOM      2  C   UNL     1       3.342   6.971  18.223  0.00  0.00    +0.000 A 
ATOM      3  C   UNL     1       3.959   5.853  17.790  0.00  0.00    +0.000 A 
ATOM      4  N   UNL     1       3.760   4.657  18.469  0.00  0.00    +0.000 N 
ATOM      5  N   UNL     1       4.267   3.426  18.217  0.00  0.00    +0.000 NA
ATOM      6  C   UNL     1       3.756   2.635  19.161  0.00  0.00    +0.000 A 
ATOM      7  C   UNL     1       2.918   3.316  20.053  0.00  0.00    +0.000 A 
ATOM      8  C   UNL     1       2.931   4.620  19.602  0.00  0.00    +0.000 A 
ATOM      9  N   UNL     1       2.283   5.723  20.083  0.00  0.00    +0.000 NA
ENDROOT
BRANCH   1  13
ATOM     10  C   UNL     1       0.352  10.322  20.817  0.00  0.00    +0.000 A 
ATOM     11  C   UNL     1       0.459   9.169  21.611  0.00  0.00    +0.000 A 
ATOM     12  C   UNL     1       1.165   8.052  21.160  0.00  0.00    +0.000 A 
ATOM     13  C   UNL     1       1.742   8.056  19.890  0.00  0.00    +0.000 A 
ATOM     14  C   UNL     1       1.573   9.172  19.067  0.00  0.00    +0.000 A 
ATOM     15  C   UNL     1       0.879  10.308  19.516  0.00  0.00    +0.000 A 
BRANCH  10  17
ATOM     16  C   UNL     1      -0.896  11.334  22.565  0.00  0.00    +0.000 C 
ATOM     17  O   UNL     1      -0.292  11.438  21.276  0.00  0.00    +0.000 OA
ENDBRANCH  10  17
BRANCH  15  18
ATOM     18  O   UNL     1       0.841  11.285  18.558  0.00  0.00    +0.000 OA
ATOM     19  C   UNL     1       1.846  12.288  18.548  0.00  0.00    +0.000 C 
ENDBRANCH  15  18
ENDBRANCH   1  13
BRANCH   3  20
ATOM     20  C   UNL     1       4.852   5.871  16.603  0.00  0.00    +0.000 C 
ATOM     21  F   UNL     1       4.699   4.869  15.708  0.00  0.00    +0.000 F 
ATOM     22  F   UNL     1       4.692   7.032  15.909  0.00  0.00    +0.000 F 
ATOM     23  F   UNL     1       6.158   5.847  16.987  0.00  0.00    +0.000 F 
ENDBRANCH   3  20
BRANCH   7  24
ATOM     24  C   UNL     1       2.195   2.787  21.186  0.00  0.00    +0.000 C 
ATOM     25  O   UNL     1       2.747   2.274  22.148  0.00  0.00    +0.000 OA
BRANCH  24  26
ATOM     26  O   UNL     1       0.843   2.902  21.106  0.00  0.00    +0.000 OA
ATOM     27  H   UNL     1       0.430   2.777  21.990  0.00  0.00    +0.000 HD
ENDBRANCH  24  26
ENDBRANCH   7  24
TORSDOF 6
ENDMDL
MODEL 5
REMARK VINA RESULT:      -7.9      1.158      1.447
REMARK  Name = 
REMARK  8 active torsions:
REMARK  status: ('A' for Active; 'I' for Inactive)
REMARK    1  A    between atoms: C_1  and  O_2
REMARK    2  A    between atoms: O_2  and  C_3
REMARK    3  A    between atoms: C_6  and  C_7
REMARK    4  A    between atoms: C_9  and  C_10
REMARK    5  A    between atoms: C_17  and  C_18
REMARK    6  A    between atoms: C_18  and  O_20
REMARK    7  A    between atoms: C_24  and  O_25
REMARK    8  A    between atoms: O_25  and  C_26
REMARK                            x       y       z     vdW  Elec       q    Type
REMARK                         _______ _______ _______ _____ _____    ______ ____
ROOT
ATOM      1  C   UNL     1       2.745   6.649  18.343  0.00  0.00    +0.000 A 
ATOM      2  C   UNL     1       4.087   6.651  17.675  0.00  0.00    +0.000 A 
ATOM      3  C   UNL     1       4.599   5.451  17.333  0.00  0.00    +0.000 A 
ATOM      4  N   UNL     1       3.884   4.295  17.622  0.00  0.00    +0.000 N 
ATOM      5  N   UNL     1       4.198   3.001  17.374  0.00  0.00    +0.000 NA
ATOM      6  C   UNL     1       3.171   2.293  17.845  0.00  0.00    +0.000 A 
ATOM      7  C   UNL     1       2.172   3.092  18.417  0.00  0.00    +0.000 A 
ATOM      8  C   UNL     1       2.643   4.380  18.273  0.00  0.00    +0.000 A 
ATOM      9  N   UNL     1       2.078   5.569  18.641  0.00  0.00    +0.000 NA
ENDROOT
BRANCH   1  13
ATOM     10  C   UNL     1       1.080  10.500  19.302  0.00  0.00    +0.000 A 
ATOM     11  C   UNL     1       1.664  10.250  18.051  0.00  0.00    +0.000 A 
ATOM     12  C   UNL     1       2.179   8.990  17.740  0.00  0.00    +0.000 A 
ATOM     13  C   UNL     1       2.153   7.970  18.692  0.00  0.00    +0.000 A 
ATOM     14  C   UNL     1       1.643   8.238  19.965  0.00  0.00    +0.000 A 
ATOM     15  C   UNL     1       1.107   9.496  20.283  0.00  0.00    +0.000 A 
BRANCH  10  17
ATOM     16  C   UNL     1      -0.768  11.968  19.040  0.00  0.00    +0.000 C 
ATOM     17  O   UNL     1       0.525  11.716  19.593  0.00  0.00    +0.000 OA
ENDBRANCH  10  17
BRANCH  15  18
ATOM     18  O   UNL     1       0.655   9.537  21.575  0.00  0.00    +0.000 OA
ATOM     19  C   UNL     1      -0.402   8.674  21.968  0.00  0.00    +0.000 C 
ENDBRANCH  15  18
ENDBRANCH   1  13
BRANCH   3  20
ATOM     20  C   UNL     1       5.918   5.337  16.657  0.00  0.00    +0.000 C 
ATOM     21  F   UNL     1       6.832   4.526  17.236  0.00  0.00    +0.000 F 
ATOM     22  F   UNL     1       5.758   4.885  15.382  0.00  0.00    +0.000 F 
ATOM     23  F   UNL     1       6.505   6.559  16.545  0.00  0.00    +0.000 F 
ENDBRANCH   3  20
BRANCH   7  24
ATOM     24  C   UNL     1       0.927   2.675  19.018  0.00  0.00    +0.000 C 
ATOM     25  O   UNL     1       0.150   1.902  18.474  0.00  0.00    +0.000 OA
BRANCH  24  26
ATOM     26  O   UNL     1       0.677   3.205  20.244  0.00  0.00    +0.000 OA
ATOM     27  H   UNL     1       0.164   4.042  20.164  0.00  0.00    +0.000 HD
ENDBRANCH  24  26
ENDBRANCH   7  24
TORSDOF 6
ENDMDL
MODEL 6
REMARK VINA RESULT:      -7.9      3.106      3.870
REMARK  Name = 
REMARK  8 active torsions:
REMARK  status: ('A' for Active; 'I' for Inactive)
REMARK    1  A    between atoms: C_1  and  O_2
REMARK    2  A    between atoms: O_2  and  C_3
REMARK    3  A    between atoms: C_6  and  C_7
REMARK    4  A    between atoms: C_9  and  C_10
REMARK    5  A    between atoms: C_17  and  C_18
REMARK    6  A    between atoms: C_18  and  O_20
REMARK    7  A    between atoms: C_24  and  O_25
REMARK    8  A    between atoms: O_25  and  C_26
REMARK                            x       y       z     vdW  Elec       q    Type
REMARK                         _______ _______ _______ _____ _____    ______ ____
ROOT
ATOM      1  C   UNL     1       2.522   6.555  18.592  0.00  0.00    +0.000 A 
ATOM      2  C   UNL     1       1.877   5.319  19.142  0.00  0.00    +0.000 A 
ATOM      3  C   UNL     1       2.413   4.137  18.776  0.00  0.00    +0.000 A 
ATOM      4  N   UNL     1       3.503   4.119  17.914  0.00  0.00    +0.000 N 
ATOM      5  N   UNL     1       4.196   3.065  17.420  0.00  0.00    +0.000 NA
ATOM      6  C   UNL     1       5.146   3.597  16.651  0.00  0.00    +0.000 A 
ATOM      7  C   UNL     1       5.098   4.997  16.610  0.00  0.00    +0.000 A 
ATOM      8  C   UNL     1       4.033   5.323  17.424  0.00  0.00    +0.000 A 
ATOM      9  N   UNL     1       3.528   6.548  17.763  0.00  0.00    +0.000 NA
ENDROOT
BRANCH   1  13
ATOM     10  C   UNL     1       0.936  10.381  19.764  0.00  0.00    +0.000 A 
ATOM     11  C   UNL     1       1.330  10.129  18.442  0.00  0.00    +0.000 A 
ATOM     12  C   UNL     1       1.820   8.877  18.065  0.00  0.00    +0.000 A 
ATOM     13  C   UNL     1       1.960   7.867  19.018  0.00  0.00    +0.000 A 
ATOM     14  C   UNL     1       1.640   8.136  20.350  0.00  0.00    +0.000 A 
ATOM     15  C   UNL     1       1.131   9.387  20.737  0.00  0.00    +0.000 A 
BRANCH  10  17
ATOM     16  C   UNL     1      -0.562  12.145  19.235  0.00  0.00    +0.000 C 
ATOM     17  O   UNL     1       0.404  11.587  20.127  0.00  0.00    +0.000 OA
ENDBRANCH  10  17
BRANCH  15  18
ATOM     18  O   UNL     1       0.877   9.431  22.082  0.00  0.00    +0.000 OA
ATOM     19  C   UNL     1      -0.442   9.187  22.548  0.00  0.00    +0.000 C 
ENDBRANCH  15  18
ENDBRANCH   1  13
BRANCH   3  20
ATOM     20  C   UNL     1       1.860   2.849  19.270  0.00  0.00    +0.000 C 
ATOM     21  F   UNL     1       2.704   2.045  19.955  0.00  0.00    +0.000 F 
ATOM     22  F   UNL     1       0.796   3.076  20.090  0.00  0.00    +0.000 F 
ATOM     23  F   UNL     1       1.378   2.108  18.236  0.00  0.00    +0.000 F 
ENDBRANCH   3  20
BRANCH   7  24
ATOM     24  C   UNL     1       5.963   5.903  15.892  0.00  0.00    +0.000 C 
ATOM     25  O   UNL     1       7.182   5.805  15.896  0.00  0.00    +0.000 OA
BRANCH  24  26
ATOM     26  O   UNL     1       5.320   6.881  15.200  0.00  0.00    +0.000 OA
ATOM     27  H   UNL     1       5.894   7.674  15.102  0.00  0.00    +0.000 HD
ENDBRANCH  24  26
ENDBRANCH   7  24
TORSDOF 6
ENDMDL
MODEL 7
REMARK VINA RESULT:      -7.9      3.197      3.920
REMARK  Name = 
REMARK  8 active torsions:
REMARK  status: ('A' for Active; 'I' for Inactive)
REMARK    1  A    between atoms: C_1  and  O_2
REMARK    2  A    between atoms: O_2  and  C_3
REMARK    3  A    between atoms: C_6  and  C_7
REMARK    4  A    between atoms: C_9  and  C_10
REMARK    5  A    between atoms: C_17  and  C_18
REMARK    6  A    between atoms: C_18  and  O_20
REMARK    7  A    between atoms: C_24  and  O_25
REMARK    8  A    between atoms: O_25  and  C_26
REMARK                            x       y       z     vdW  Elec       q    Type
REMARK                         _______ _______ _______ _____ _____    ______ ____
ROOT
ATOM      1  C   UNL     1       2.378   6.753  19.228  0.00  0.00    +0.000 A 
ATOM      2  C   UNL     1       1.869   5.533  19.932  0.00  0.00    +0.000 A 
ATOM      3  C   UNL     1       2.409   4.351  19.571  0.00  0.00    +0.000 A 
ATOM      4  N   UNL     1       3.380   4.319  18.577  0.00  0.00    +0.000 N 
ATOM      5  N   UNL     1       4.053   3.262  18.061  0.00  0.00    +0.000 NA
ATOM      6  C   UNL     1       4.869   3.779  17.143  0.00  0.00    +0.000 A 
ATOM      7  C   UNL     1       4.750   5.170  17.024  0.00  0.00    +0.000 A 
ATOM      8  C   UNL     1       3.784   5.508  17.949  0.00  0.00    +0.000 A 
ATOM      9  N   UNL     1       3.269   6.731  18.276  0.00  0.00    +0.000 NA
ENDROOT
BRANCH   1  13
ATOM     10  C   UNL     1       0.779  10.585  20.365  0.00  0.00    +0.000 A 
ATOM     11  C   UNL     1       1.086  10.291  19.028  0.00  0.00    +0.000 A 
ATOM     12  C   UNL     1       1.581   9.036  18.665  0.00  0.00    +0.000 A 
ATOM     13  C   UNL     1       1.813   8.068  19.642  0.00  0.00    +0.000 A 
ATOM     14  C   UNL     1       1.581   8.382  20.983  0.00  0.00    +0.000 A 
ATOM     15  C   UNL     1       1.067   9.635  21.358  0.00  0.00    +0.000 A 
BRANCH  10  17
ATOM     16  C   UNL     1       1.123  12.914  20.664  0.00  0.00    +0.000 C 
ATOM     17  O   UNL     1       0.242  11.792  20.719  0.00  0.00    +0.000 OA
ENDBRANCH  10  17
BRANCH  15  18
ATOM     18  O   UNL     1       0.907   9.726  22.715  0.00  0.00    +0.000 OA
ATOM     19  C   UNL     1      -0.401   9.671  23.264  0.00  0.00    +0.000 C 
ENDBRANCH  15  18
ENDBRANCH   1  13
BRANCH   3  20
ATOM     20  C   UNL     1       1.986   3.078  20.211  0.00  0.00    +0.000 C 
ATOM     21  F   UNL     1       1.571   2.089  19.388  0.00  0.00    +0.000 F 
ATOM     22  F   UNL     1       3.006   2.559  20.950  0.00  0.00    +0.000 F 
ATOM     23  F   UNL     1       0.971   3.300  21.090  0.00  0.00    +0.000 F 
ENDBRANCH   3  20
BRANCH   7  24
ATOM     24  C   UNL     1       5.471   6.059  16.144  0.00  0.00    +0.000 C 
ATOM     25  O   UNL     1       5.610   5.846  14.948  0.00  0.00    +0.000 OA
BRANCH  24  26
ATOM     26  O   UNL     1       5.989   7.163  16.745  0.00  0.00    +0.000 OA
ATOM     27  H   UNL     1       5.608   7.281  17.645  0.00  0.00    +0.000 HD
ENDBRANCH  24  26
ENDBRANCH   7  24
TORSDOF 6
ENDMDL
MODEL 8
REMARK VINA RESULT:      -7.9      3.231      4.274
REMARK  Name = 
REMARK  8 active torsions:
REMARK  status: ('A' for Active; 'I' for Inactive)
REMARK    1  A    between atoms: C_1  and  O_2
REMARK    2  A    between atoms: O_2  and  C_3
REMARK    3  A    between atoms: C_6  and  C_7
REMARK    4  A    between atoms: C_9  and  C_10
REMARK    5  A    between atoms: C_17  and  C_18
REMARK    6  A    between atoms: C_18  and  O_20
REMARK    7  A    between atoms: C_24  and  O_25
REMARK    8  A    between atoms: O_25  and  C_26
REMARK                            x       y       z     vdW  Elec       q    Type
REMARK                         _______ _______ _______ _____ _____    ______ ____
ROOT
ATOM      1  C   UNL     1       2.259   6.760  19.668  0.00  0.00    +0.000 A 
ATOM      2  C   UNL     1       1.758   5.475  20.252  0.00  0.00    +0.000 A 
ATOM      3  C   UNL     1       2.283   4.335  19.759  0.00  0.00    +0.000 A 
ATOM      4  N   UNL     1       3.231   4.403  18.745  0.00  0.00    +0.000 N 
ATOM      5  N   UNL     1       3.887   3.402  18.108  0.00  0.00    +0.000 NA
ATOM      6  C   UNL     1       4.687   4.009  17.231  0.00  0.00    +0.000 A 
ATOM      7  C   UNL     1       4.574   5.405  17.260  0.00  0.00    +0.000 A 
ATOM      8  C   UNL     1       3.630   5.649  18.237  0.00  0.00    +0.000 A 
ATOM      9  N   UNL     1       3.130   6.834  18.700  0.00  0.00    +0.000 NA
ENDROOT
BRANCH   1  13
ATOM     10  C   UNL     1       0.650  10.381  21.351  0.00  0.00    +0.000 A 
ATOM     11  C   UNL     1       0.960   9.276  22.159  0.00  0.00    +0.000 A 
ATOM     12  C   UNL     1       1.505   8.115  21.607  0.00  0.00    +0.000 A 
ATOM     13  C   UNL     1       1.712   8.027  20.230  0.00  0.00    +0.000 A 
ATOM     14  C   UNL     1       1.335   9.095  19.413  0.00  0.00    +0.000 A 
ATOM     15  C   UNL     1       0.802  10.274  19.959  0.00  0.00    +0.000 A 
BRANCH  10  17
ATOM     16  C   UNL     1      -0.973  11.413  22.741  0.00  0.00    +0.000 C 
ATOM     17  O   UNL     1       0.168  11.540  21.893  0.00  0.00    +0.000 OA
ENDBRANCH  10  17
BRANCH  15  18
ATOM     18  O   UNL     1       0.512  11.192  18.985  0.00  0.00    +0.000 OA
ATOM     19  C   UNL     1      -0.829  11.335  18.542  0.00  0.00    +0.000 C 
ENDBRANCH  15  18
ENDBRANCH   1  13
BRANCH   3  20
ATOM     20  C   UNL     1       1.865   3.004  20.272  0.00  0.00    +0.000 C 
ATOM     21  F   UNL     1       1.404   2.117  19.362  0.00  0.00    +0.000 F 
ATOM     22  F   UNL     1       2.905   2.396  20.908  0.00  0.00    +0.000 F 
ATOM     23  F   UNL     1       0.887   3.139  21.208  0.00  0.00    +0.000 F 
ENDBRANCH   3  20
BRANCH   7  24
ATOM     24  C   UNL     1       5.282   6.379  16.462  0.00  0.00    +0.000 C 
ATOM     25  O   UNL     1       5.223   6.410  15.241  0.00  0.00    +0.000 OA
BRANCH  24  26
ATOM     26  O   UNL     1       6.025   7.269  17.172  0.00  0.00    +0.000 OA
ATOM     27  H   UNL     1       6.976   7.204  16.925  0.00  0.00    +0.000 HD
ENDBRANCH  24  26
ENDBRANCH   7  24
TORSDOF 6
ENDMDL
MODEL 9
REMARK VINA RESULT:      -7.8      1.374      2.284
REMARK  Name = 
REMARK  8 active torsions:
REMARK  status: ('A' for Active; 'I' for Inactive)
REMARK    1  A    between atoms: C_1  and  O_2
REMARK    2  A    between atoms: O_2  and  C_3
REMARK    3  A    between atoms: C_6  and  C_7
REMARK    4  A    between atoms: C_9  and  C_10
REMARK    5  A    between atoms: C_17  and  C_18
REMARK    6  A    between atoms: C_18  and  O_20
REMARK    7  A    between atoms: C_24  and  O_25
REMARK    8  A    between atoms: O_25  and  C_26
REMARK                            x       y       z     vdW  Elec       q    Type
REMARK                         _______ _______ _______ _____ _____    ______ ____
ROOT
ATOM      1  C   UNL     1       2.396   6.923  18.980  0.00  0.00    +0.000 A 
ATOM      2  C   UNL     1       3.605   7.172  18.129  0.00  0.00    +0.000 A 
ATOM      3  C   UNL     1       4.097   6.117  17.448  0.00  0.00    +0.000 A 
ATOM      4  N   UNL     1       3.485   4.876  17.573  0.00  0.00    +0.000 N 
ATOM      5  N   UNL     1       3.801   3.694  16.991  0.00  0.00    +0.000 NA
ATOM      6  C   UNL     1       2.895   2.826  17.442  0.00  0.00    +0.000 A 
ATOM      7  C   UNL     1       1.978   3.403  18.330  0.00  0.00    +0.000 A 
ATOM      8  C   UNL     1       2.369   4.724  18.411  0.00  0.00    +0.000 A 
ATOM      9  N   UNL     1       1.830   5.758  19.125  0.00  0.00    +0.000 NA
ENDROOT
BRANCH   1  13
ATOM     10  C   UNL     1       0.707  10.242  21.140  0.00  0.00    +0.000 A 
ATOM     11  C   UNL     1       0.980   9.021  21.776  0.00  0.00    +0.000 A 
ATOM     12  C   UNL     1       1.552   7.959  21.072  0.00  0.00    +0.000 A 
ATOM     13  C   UNL     1       1.822   8.088  19.709  0.00  0.00    +0.000 A 
ATOM     14  C   UNL     1       1.481   9.275  19.056  0.00  0.00    +0.000 A 
ATOM     15  C   UNL     1       0.922  10.356  19.757  0.00  0.00    +0.000 A 
BRANCH  10  17
ATOM     16  C   UNL     1      -0.843  11.008  22.767  0.00  0.00    +0.000 C 
ATOM     17  O   UNL     1       0.199  11.304  21.836  0.00  0.00    +0.000 OA
ENDBRANCH  10  17
BRANCH  15  18
ATOM     18  O   UNL     1       0.676  11.418  18.928  0.00  0.00    +0.000 OA
ATOM     19  C   UNL     1       1.698  12.377  18.707  0.00  0.00    +0.000 C 
ENDBRANCH  15  18
ENDBRANCH   1  13
BRANCH   3  20
ATOM     20  C   UNL     1       5.286   6.252  16.567  0.00  0.00    +0.000 C 
ATOM     21  F   UNL     1       5.062   6.248  15.233  0.00  0.00    +0.000 F 
ATOM     22  F   UNL     1       5.948   7.411  16.840  0.00  0.00    +0.000 F 
ATOM     23  F   UNL     1       6.177   5.252  16.809  0.00  0.00    +0.000 F 
ENDBRANCH   3  20
BRANCH   7  24
ATOM     24  C   UNL     1       0.868   2.774  19.006  0.00  0.00    +0.000 C 
ATOM     25  O   UNL     1       0.164   1.922  18.481  0.00  0.00    +0.000 OA
BRANCH  24  26
ATOM     26  O   UNL     1       0.660   3.197  20.281  0.00  0.00    +0.000 OA
ATOM     27  H   UNL     1       1.451   3.021  20.840  0.00  0.00    +0.000 HD
ENDBRANCH  24  26
ENDBRANCH   7  24
TORSDOF 6
ENDMDL
