MODEL 1
REMARK VINA RESULT:      -7.2      0.000      0.000
REMARK  Name = 
REMARK  5 active torsions:
REMARK  status: ('A' for Active; 'I' for Inactive)
REMARK    1  A    between atoms: C_2  and  C_3
REMARK    2  A    between atoms: C_3  and  S_4
REMARK    3  A    between atoms: S_4  and  C_5
REMARK    4  A    between atoms: N_10  and  C_11
REMARK    5  A    between atoms: C_14  and  N_15
REMARK                            x       y       z     vdW  Elec       q    Type
REMARK                         _______ _______ _______ _____ _____    ______ ____
ROOT
ATOM      1  C   UNL     1       2.395   7.244  18.845  0.00  0.00    +0.000 A 
ATOM      2  C   UNL     1       1.877   7.619  20.077  0.00  0.00    +0.000 A 
ATOM      3  C   UNL     1       1.240   8.857  20.244  0.00  0.00    +0.000 A 
ATOM      4  C   UNL     1       1.111   9.786  19.204  0.00  0.00    +0.000 A 
ATOM      5  C   UNL     1       1.598   9.370  17.957  0.00  0.00    +0.000 A 
ATOM      6  C   UNL     1       2.224   8.123  17.772  0.00  0.00    +0.000 A 
ENDROOT
BRANCH   4   7
ATOM      7  N   UNL     1       0.547  11.029  19.413  0.00  0.00    +0.000 N 
ATOM      8  C   UNL     1      -0.898  11.252  19.319  0.00  0.00    +0.000 C 
ATOM      9  C   UNL     1      -1.176  12.319  18.263  0.00  0.00    +0.000 C 
ATOM     10  C   UNL     1      -0.391  13.599  18.557  0.00  0.00    +0.000 C 
ATOM     11  C   UNL     1       1.095  13.310  18.764  0.00  0.00    +0.000 C 
ATOM     12  C   UNL     1       1.323  12.207  19.801  0.00  0.00    +0.000 C 
ENDBRANCH   4   7
BRANCH   1  15
ATOM     13  O   UNL     1       1.438   4.690  17.679  0.00  0.00    +0.000 OA
ATOM     14  C   UNL     1       2.582   4.859  18.097  0.00  0.00    +0.000 C 
ATOM     15  N   UNL     1       3.100   6.041  18.621  0.00  0.00    +0.000 N 
ATOM     16  H   UNL     1       4.097   6.067  18.808  0.00  0.00    +0.000 HD
BRANCH  14  17
ATOM     17  C   UNL     1       3.576   3.708  18.060  0.00  0.00    +0.000 C 
BRANCH  17  18
ATOM     18  S   UNL     1       4.881   4.009  16.834  0.00  0.00    +0.000 S 
BRANCH  18  19
ATOM     19  C   UNL     1       6.087   4.755  17.848  0.00  0.00    +0.000 A 
ATOM     20  N   UNL     1       6.110   4.574  19.154  0.00  0.00    +0.000 NA
ATOM     21  N   UNL     1       7.063   5.362  19.767  0.00  0.00    +0.000 NA
ATOM     22  C   UNL     1       7.735   6.080  18.891  0.00  0.00    +0.000 A 
ATOM     23  S   UNL     1       7.283   5.826  17.256  0.00  0.00    +0.000 S 
ENDBRANCH  18  19
ENDBRANCH  17  18
ENDBRANCH  14  17
ENDBRANCH   1  15
TORSDOF 5
ENDMDL
MODEL 2
REMARK VINA RESULT:      -7.1      0.402      1.091
REMARK  Name = 
REMARK  5 active torsions:
REMARK  status: ('A' for Active; 'I' for Inactive)
REMARK    1  A    between atoms: C_2  and  C_3
REMARK    2  A    between atoms: C_3  and  S_4
REMARK    3  A    between atoms: S_4  and  C_5
REMARK    4  A    between atoms: N_10  and  C_11
REMARK    5  A    between atoms: C_14  and  N_15
REMARK                            x       y       z     vdW  Elec       q    Type
REMARK                         _______ _______ _______ _____ _____    ______ ____
ROOT
ATOM      1  C   UNL     1       2.346   7.297  19.048  0.00  0.00    +0.000 A 
ATOM      2  C   UNL     1       2.197   8.217  18.019  0.00  0.00    +0.000 A 
ATOM      3  C   UNL     1       1.516   9.425  18.226  0.00  0.00    +0.000 A 
ATOM      4  C   UNL     1       0.931   9.761  19.455  0.00  0.00    +0.000 A 
ATOM      5  C   UNL     1       1.133   8.841  20.492  0.00  0.00    +0.000 A 
ATOM      6  C   UNL     1       1.830   7.632  20.302  0.00  0.00    +0.000 A 
ENDROOT
BRANCH   4   7
ATOM      7  N   UNL     1       0.200  10.922  19.611  0.00  0.00    +0.000 N 
ATOM      8  C   UNL     1      -1.164  11.056  19.094  0.00  0.00    +0.000 C 
ATOM      9  C   UNL     1      -1.223  12.236  18.126  0.00  0.00    +0.000 C 
ATOM     10  C   UNL     1      -0.705  13.515  18.787  0.00  0.00    +0.000 C 
ATOM     11  C   UNL     1       0.672  13.302  19.415  0.00  0.00    +0.000 C 
ATOM     12  C   UNL     1       0.692  12.086  20.347  0.00  0.00    +0.000 C 
ENDBRANCH   4   7
BRANCH   1  15
ATOM     13  O   UNL     1       1.363   4.870  17.652  0.00  0.00    +0.000 OA
ATOM     14  C   UNL     1       2.437   4.922  18.251  0.00  0.00    +0.000 C 
ATOM     15  N   UNL     1       2.967   6.037  18.893  0.00  0.00    +0.000 N 
ATOM     16  H   UNL     1       3.920   5.966  19.234  0.00  0.00    +0.000 HD
BRANCH  14  17
ATOM     17  C   UNL     1       3.317   3.684  18.327  0.00  0.00    +0.000 C 
BRANCH  17  18
ATOM     18  S   UNL     1       4.613   3.723  17.056  0.00  0.00    +0.000 S 
BRANCH  18  19
ATOM     19  C   UNL     1       5.905   4.466  17.961  0.00  0.00    +0.000 A 
ATOM     20  N   UNL     1       5.871   4.562  19.275  0.00  0.00    +0.000 NA
ATOM     21  N   UNL     1       6.929   5.300  19.765  0.00  0.00    +0.000 NA
ATOM     22  C   UNL     1       7.729   5.702  18.799  0.00  0.00    +0.000 A 
ATOM     23  S   UNL     1       7.274   5.184  17.229  0.00  0.00    +0.000 S 
ENDBRANCH  18  19
ENDBRANCH  17  18
ENDBRANCH  14  17
ENDBRANCH   1  15
TORSDOF 5
ENDMDL
MODEL 3
REMARK VINA RESULT:      -7.0      1.313      1.638
REMARK  Name = 
REMARK  5 active torsions:
REMARK  status: ('A' for Active; 'I' for Inactive)
REMARK    1  A    between atoms: C_2  and  C_3
REMARK    2  A    between atoms: C_3  and  S_4
REMARK    3  A    between atoms: S_4  and  C_5
REMARK    4  A    between atoms: N_10  and  C_11
REMARK    5  A    between atoms: C_14  and  N_15
REMARK                            x       y       z     vdW  Elec       q    Type
REMARK                         _______ _______ _______ _____ _____    ______ ____
ROOT
ATOM      1  C   UNL     1       2.441   7.258  19.106  0.00  0.00    +0.000 A 
ATOM      2  C   UNL     1       1.830   7.650  20.289  0.00  0.00    +0.000 A 
ATOM      3  C   UNL     1       1.124   8.858  20.370  0.00  0.00    +0.000 A 
ATOM      4  C   UNL     1       1.015   9.742  19.287  0.00  0.00    +0.000 A 
ATOM      5  C   UNL     1       1.597   9.307  18.090  0.00  0.00    +0.000 A 
ATOM      6  C   UNL     1       2.294   8.088  17.991  0.00  0.00    +0.000 A 
ENDROOT
BRANCH   4   7
ATOM      7  N   UNL     1       0.379  10.961  19.415  0.00  0.00    +0.000 N 
ATOM      8  C   UNL     1      -1.065  11.108  19.212  0.00  0.00    +0.000 C 
ATOM      9  C   UNL     1      -1.317  12.128  18.102  0.00  0.00    +0.000 C 
ATOM     10  C   UNL     1      -0.617  13.453  18.407  0.00  0.00    +0.000 C 
ATOM     11  C   UNL     1       0.863  13.245  18.727  0.00  0.00    +0.000 C 
ATOM     12  C   UNL     1       1.068  12.187  19.815  0.00  0.00    +0.000 C 
ENDBRANCH   4   7
BRANCH   1  15
ATOM     13  O   UNL     1       1.696   4.629  17.951  0.00  0.00    +0.000 OA
ATOM     14  C   UNL     1       2.796   4.866  18.448  0.00  0.00    +0.000 C 
ATOM     15  N   UNL     1       3.216   6.085  18.972  0.00  0.00    +0.000 N 
ATOM     16  H   UNL     1       4.195   6.165  19.231  0.00  0.00    +0.000 HD
BRANCH  14  17
ATOM     17  C   UNL     1       3.843   3.764  18.519  0.00  0.00    +0.000 C 
BRANCH  17  18
ATOM     18  S   UNL     1       5.494   4.450  18.839  0.00  0.00    +0.000 S 
BRANCH  18  19
ATOM     19  C   UNL     1       6.146   4.440  17.222  0.00  0.00    +0.000 A 
ATOM     20  N   UNL     1       7.433   4.594  16.988  0.00  0.00    +0.000 NA
ATOM     21  N   UNL     1       7.704   4.686  15.637  0.00  0.00    +0.000 NA
ATOM     22  C   UNL     1       6.610   4.568  14.914  0.00  0.00    +0.000 A 
ATOM     23  S   UNL     1       5.177   4.302  15.818  0.00  0.00    +0.000 S 
ENDBRANCH  18  19
ENDBRANCH  17  18
ENDBRANCH  14  17
ENDBRANCH   1  15
TORSDOF 5
ENDMDL
MODEL 4
REMARK VINA RESULT:      -7.0      0.937      1.793
REMARK  Name = 
REMARK  5 active torsions:
REMARK  status: ('A' for Active; 'I' for Inactive)
REMARK    1  A    between atoms: C_2  and  C_3
REMARK    2  A    between atoms: C_3  and  S_4
REMARK    3  A    between atoms: S_4  and  C_5
REMARK    4  A    between atoms: N_10  and  C_11
REMARK    5  A    between atoms: C_14  and  N_15
REMARK                            x       y       z     vdW  Elec       q    Type
REMARK                         _______ _______ _______ _____ _____    ______ ____
ROOT
ATOM      1  C   UNL     1       2.619   7.136  18.670  0.00  0.00    +0.000 A 
ATOM      2  C   UNL     1       2.428   8.210  17.811  0.00  0.00    +0.000 A 
ATOM      3  C   UNL     1       1.739   9.356  18.232  0.00  0.00    +0.000 A 
ATOM      4  C   UNL     1       1.188   9.476  19.516  0.00  0.00    +0.000 A 
ATOM      5  C   UNL     1       1.433   8.402  20.382  0.00  0.00    +0.000 A 
ATOM      6  C   UNL     1       2.138   7.253  19.976  0.00  0.00    +0.000 A 
ENDROOT
BRANCH   4   7
ATOM      7  N   UNL     1       0.449  10.583  19.881  0.00  0.00    +0.000 N 
ATOM      8  C   UNL     1       0.720  11.914  19.331  0.00  0.00    +0.000 C 
ATOM      9  C   UNL     1       1.025  12.880  20.475  0.00  0.00    +0.000 C 
ATOM     10  C   UNL     1      -0.101  12.878  21.509  0.00  0.00    +0.000 C 
ATOM     11  C   UNL     1      -0.434  11.460  21.973  0.00  0.00    +0.000 C 
ATOM     12  C   UNL     1      -0.693  10.520  20.792  0.00  0.00    +0.000 C 
ENDBRANCH   4   7
BRANCH   1  15
ATOM     13  O   UNL     1       1.421   4.623  17.646  0.00  0.00    +0.000 OA
ATOM     14  C   UNL     1       2.626   4.768  17.848  0.00  0.00    +0.000 C 
ATOM     15  N   UNL     1       3.251   5.930  18.292  0.00  0.00    +0.000 N 
ATOM     16  H   UNL     1       4.266   5.940  18.291  0.00  0.00    +0.000 HD
BRANCH  14  17
ATOM     17  C   UNL     1       3.576   3.607  17.602  0.00  0.00    +0.000 C 
BRANCH  17  18
ATOM     18  S   UNL     1       4.936   4.095  16.501  0.00  0.00    +0.000 S 
BRANCH  18  19
ATOM     19  C   UNL     1       6.058   4.739  17.670  0.00  0.00    +0.000 A 
ATOM     20  N   UNL     1       6.046   4.358  18.932  0.00  0.00    +0.000 NA
ATOM     21  N   UNL     1       6.928   5.092  19.700  0.00  0.00    +0.000 NA
ATOM     22  C   UNL     1       7.586   5.972  18.974  0.00  0.00    +0.000 A 
ATOM     23  S   UNL     1       7.208   5.951  17.302  0.00  0.00    +0.000 S 
ENDBRANCH  18  19
ENDBRANCH  17  18
ENDBRANCH  14  17
ENDBRANCH   1  15
TORSDOF 5
ENDMDL
MODEL 5
REMARK VINA RESULT:      -6.9      1.073      1.283
REMARK  Name = 
REMARK  5 active torsions:
REMARK  status: ('A' for Active; 'I' for Inactive)
REMARK    1  A    between atoms: C_2  and  C_3
REMARK    2  A    between atoms: C_3  and  S_4
REMARK    3  A    between atoms: S_4  and  C_5
REMARK    4  A    between atoms: N_10  and  C_11
REMARK    5  A    between atoms: C_14  and  N_15
REMARK                            x       y       z     vdW  Elec       q    Type
REMARK                         _______ _______ _______ _____ _____    ______ ____
ROOT
ATOM      1  C   UNL     1       2.250   7.231  19.493  0.00  0.00    +0.000 A 
ATOM      2  C   UNL     1       1.652   7.644  20.676  0.00  0.00    +0.000 A 
ATOM      3  C   UNL     1       1.017   8.891  20.764  0.00  0.00    +0.000 A 
ATOM      4  C   UNL     1       0.970   9.792  19.691  0.00  0.00    +0.000 A 
ATOM      5  C   UNL     1       1.537   9.336  18.493  0.00  0.00    +0.000 A 
ATOM      6  C   UNL     1       2.162   8.079  18.387  0.00  0.00    +0.000 A 
ENDROOT
BRANCH   4   7
ATOM      7  N   UNL     1       0.405  11.044  19.827  0.00  0.00    +0.000 N 
ATOM      8  C   UNL     1      -0.105  11.531  21.112  0.00  0.00    +0.000 C 
ATOM      9  C   UNL     1      -1.583  11.888  20.966  0.00  0.00    +0.000 C 
ATOM     10  C   UNL     1      -1.797  12.880  19.822  0.00  0.00    +0.000 C 
ATOM     11  C   UNL     1      -1.151  12.390  18.526  0.00  0.00    +0.000 C 
ATOM     12  C   UNL     1       0.317  12.008  18.730  0.00  0.00    +0.000 C 
ENDBRANCH   4   7
BRANCH   1  15
ATOM     13  O   UNL     1       1.221   4.449  19.433  0.00  0.00    +0.000 OA
ATOM     14  C   UNL     1       2.416   4.733  19.365  0.00  0.00    +0.000 C 
ATOM     15  N   UNL     1       2.957   6.015  19.352  0.00  0.00    +0.000 N 
ATOM     16  H   UNL     1       3.951   6.098  19.164  0.00  0.00    +0.000 HD
BRANCH  14  17
ATOM     17  C   UNL     1       3.451   3.622  19.277  0.00  0.00    +0.000 C 
BRANCH  17  18
ATOM     18  S   UNL     1       4.417   3.745  17.744  0.00  0.00    +0.000 S 
BRANCH  18  19
ATOM     19  C   UNL     1       5.880   4.463  18.363  0.00  0.00    +0.000 A 
ATOM     20  N   UNL     1       5.996   4.836  19.622  0.00  0.00    +0.000 NA
ATOM     21  N   UNL     1       7.185   5.497  19.856  0.00  0.00    +0.000 NA
ATOM     22  C   UNL     1       7.924   5.566  18.767  0.00  0.00    +0.000 A 
ATOM     23  S   UNL     1       7.245   4.803  17.389  0.00  0.00    +0.000 S 
ENDBRANCH  18  19
ENDBRANCH  17  18
ENDBRANCH  14  17
ENDBRANCH   1  15
TORSDOF 5
ENDMDL
MODEL 6
REMARK VINA RESULT:      -6.9      1.849      2.465
REMARK  Name = 
REMARK  5 active torsions:
REMARK  status: ('A' for Active; 'I' for Inactive)
REMARK    1  A    between atoms: C_2  and  C_3
REMARK    2  A    between atoms: C_3  and  S_4
REMARK    3  A    between atoms: S_4  and  C_5
REMARK    4  A    between atoms: N_10  and  C_11
REMARK    5  A    between atoms: C_14  and  N_15
REMARK                            x       y       z     vdW  Elec       q    Type
REMARK                         _______ _______ _______ _____ _____    ______ ____
ROOT
ATOM      1  C   UNL     1       2.510   6.306  18.686  0.00  0.00    +0.000 A 
ATOM      2  C   UNL     1       2.087   6.079  19.988  0.00  0.00    +0.000 A 
ATOM      3  C   UNL     1       1.582   7.124  20.774  0.00  0.00    +0.000 A 
ATOM      4  C   UNL     1       1.497   8.444  20.311  0.00  0.00    +0.000 A 
ATOM      5  C   UNL     1       1.884   8.643  18.978  0.00  0.00    +0.000 A 
ATOM      6  C   UNL     1       2.377   7.599  18.174  0.00  0.00    +0.000 A 
ENDROOT
BRANCH   4   7
ATOM      7  N   UNL     1       1.066   9.468  21.130  0.00  0.00    +0.000 N 
ATOM      8  C   UNL     1       1.010   9.326  22.587  0.00  0.00    +0.000 C 
ATOM      9  C   UNL     1      -0.420   9.575  23.063  0.00  0.00    +0.000 C 
ATOM     10  C   UNL     1      -0.933  10.931  22.574  0.00  0.00    +0.000 C 
ATOM     11  C   UNL     1      -0.750  11.087  21.065  0.00  0.00    +0.000 C 
ATOM     12  C   UNL     1       0.687  10.790  20.630  0.00  0.00    +0.000 C 
ENDBRANCH   4   7
BRANCH   1  15
ATOM     13  O   UNL     1       4.483   4.199  19.369  0.00  0.00    +0.000 OA
ATOM     14  C   UNL     1       4.035   4.369  18.235  0.00  0.00    +0.000 C 
ATOM     15  N   UNL     1       3.084   5.313  17.860  0.00  0.00    +0.000 N 
ATOM     16  H   UNL     1       2.716   5.252  16.916  0.00  0.00    +0.000 HD
BRANCH  14  17
ATOM     17  C   UNL     1       4.522   3.490  17.093  0.00  0.00    +0.000 C 
BRANCH  17  18
ATOM     18  S   UNL     1       5.639   4.405  15.992  0.00  0.00    +0.000 S 
BRANCH  18  19
ATOM     19  C   UNL     1       6.717   5.108  17.168  0.00  0.00    +0.000 A 
ATOM     20  N   UNL     1       7.448   4.367  17.977  0.00  0.00    +0.000 NA
ATOM     21  N   UNL     1       8.121   5.131  18.909  0.00  0.00    +0.000 NA
ATOM     22  C   UNL     1       7.889   6.416  18.740  0.00  0.00    +0.000 A 
ATOM     23  S   UNL     1       6.865   6.795  17.418  0.00  0.00    +0.000 S 
ENDBRANCH  18  19
ENDBRANCH  17  18
ENDBRANCH  14  17
ENDBRANCH   1  15
TORSDOF 5
ENDMDL
MODEL 7
REMARK VINA RESULT:      -6.8      1.945      2.510
REMARK  Name = 
REMARK  5 active torsions:
REMARK  status: ('A' for Active; 'I' for Inactive)
REMARK    1  A    between atoms: C_2  and  C_3
REMARK    2  A    between atoms: C_3  and  S_4
REMARK    3  A    between atoms: S_4  and  C_5
REMARK    4  A    between atoms: N_10  and  C_11
REMARK    5  A    between atoms: C_14  and  N_15
REMARK                            x       y       z     vdW  Elec       q    Type
REMARK                         _______ _______ _______ _____ _____    ______ ____
ROOT
ATOM      1  C   UNL     1       2.802   7.190  18.422  0.00  0.00    +0.000 A 
ATOM      2  C   UNL     1       2.484   8.254  17.589  0.00  0.00    +0.000 A 
ATOM      3  C   UNL     1       1.661   9.298  18.037  0.00  0.00    +0.000 A 
ATOM      4  C   UNL     1       1.099   9.319  19.320  0.00  0.00    +0.000 A 
ATOM      5  C   UNL     1       1.470   8.261  20.160  0.00  0.00    +0.000 A 
ATOM      6  C   UNL     1       2.309   7.215  19.729  0.00  0.00    +0.000 A 
ENDROOT
BRANCH   4   7
ATOM      7  N   UNL     1       0.232  10.320  19.710  0.00  0.00    +0.000 N 
ATOM      8  C   UNL     1      -0.192  11.382  18.793  0.00  0.00    +0.000 C 
ATOM      9  C   UNL     1       0.186  12.739  19.384  0.00  0.00    +0.000 C 
ATOM     10  C   UNL     1      -0.386  12.902  20.794  0.00  0.00    +0.000 C 
ATOM     11  C   UNL     1      -0.020  11.717  21.687  0.00  0.00    +0.000 C 
ATOM     12  C   UNL     1      -0.380  10.379  21.037  0.00  0.00    +0.000 C 
ENDBRANCH   4   7
BRANCH   1  15
ATOM     13  O   UNL     1       1.939   4.415  17.826  0.00  0.00    +0.000 OA
ATOM     14  C   UNL     1       3.112   4.786  17.783  0.00  0.00    +0.000 C 
ATOM     15  N   UNL     1       3.574   6.078  18.017  0.00  0.00    +0.000 N 
ATOM     16  H   UNL     1       4.552   6.263  17.821  0.00  0.00    +0.000 HD
BRANCH  14  17
ATOM     17  C   UNL     1       4.207   3.787  17.442  0.00  0.00    +0.000 C 
BRANCH  17  18
ATOM     18  S   UNL     1       5.847   4.448  17.854  0.00  0.00    +0.000 S 
BRANCH  18  19
ATOM     19  C   UNL     1       6.510   4.637  16.252  0.00  0.00    +0.000 A 
ATOM     20  N   UNL     1       7.507   5.461  16.002  0.00  0.00    +0.000 NA
ATOM     21  N   UNL     1       7.778   5.549  14.652  0.00  0.00    +0.000 NA
ATOM     22  C   UNL     1       6.990   4.763  13.948  0.00  0.00    +0.000 A 
ATOM     23  S   UNL     1       5.887   3.834  14.875  0.00  0.00    +0.000 S 
ENDBRANCH  18  19
ENDBRANCH  17  18
ENDBRANCH  14  17
ENDBRANCH   1  15
TORSDOF 5
ENDMDL
MODEL 8
REMARK VINA RESULT:      -6.8      1.831      2.387
REMARK  Name = 
REMARK  5 active torsions:
REMARK  status: ('A' for Active; 'I' for Inactive)
REMARK    1  A    between atoms: C_2  and  C_3
REMARK    2  A    between atoms: C_3  and  S_4
REMARK    3  A    between atoms: S_4  and  C_5
REMARK    4  A    between atoms: N_10  and  C_11
REMARK    5  A    between atoms: C_14  and  N_15
REMARK                            x       y       z     vdW  Elec       q    Type
REMARK                         _______ _______ _______ _____ _____    ______ ____
ROOT
ATOM      1  C   UNL     1       2.497   7.207  18.763  0.00  0.00    +0.000 A 
ATOM      2  C   UNL     1       1.992   7.332  20.050  0.00  0.00    +0.000 A 
ATOM      3  C   UNL     1       1.264   8.469  20.431  0.00  0.00    +0.000 A 
ATOM      4  C   UNL     1       1.029   9.541  19.559  0.00  0.00    +0.000 A 
ATOM      5  C   UNL     1       1.506   9.374  18.252  0.00  0.00    +0.000 A 
ATOM      6  C   UNL     1       2.223   8.231  17.853  0.00  0.00    +0.000 A 
ENDROOT
BRANCH   4   7
ATOM      7  N   UNL     1       0.375  10.682  19.981  0.00  0.00    +0.000 N 
ATOM      8  C   UNL     1       0.714  12.009  19.460  0.00  0.00    +0.000 C 
ATOM      9  C   UNL     1       1.118  12.918  20.620  0.00  0.00    +0.000 C 
ATOM     10  C   UNL     1       0.028  12.956  21.692  0.00  0.00    +0.000 C 
ATOM     11  C   UNL     1      -0.381  11.549  22.126  0.00  0.00    +0.000 C 
ATOM     12  C   UNL     1      -0.739  10.664  20.929  0.00  0.00    +0.000 C 
ENDBRANCH   4   7
BRANCH   1  15
ATOM     13  O   UNL     1       1.662   4.483  17.936  0.00  0.00    +0.000 OA
ATOM     14  C   UNL     1       2.836   4.848  17.987  0.00  0.00    +0.000 C 
ATOM     15  N   UNL     1       3.288   6.119  18.331  0.00  0.00    +0.000 N 
ATOM     16  H   UNL     1       4.277   6.309  18.205  0.00  0.00    +0.000 HD
BRANCH  14  17
ATOM     17  C   UNL     1       3.945   3.865  17.645  0.00  0.00    +0.000 C 
BRANCH  17  18
ATOM     18  S   UNL     1       5.574   4.540  18.080  0.00  0.00    +0.000 S 
BRANCH  18  19
ATOM     19  C   UNL     1       6.291   4.651  16.494  0.00  0.00    +0.000 A 
ATOM     20  N   UNL     1       7.376   5.364  16.268  0.00  0.00    +0.000 NA
ATOM     21  N   UNL     1       7.687   5.417  14.924  0.00  0.00    +0.000 NA
ATOM     22  C   UNL     1       6.837   4.716  14.202  0.00  0.00    +0.000 A 
ATOM     23  S   UNL     1       5.619   3.914  15.104  0.00  0.00    +0.000 S 
ENDBRANCH  18  19
ENDBRANCH  17  18
ENDBRANCH  14  17
ENDBRANCH   1  15
TORSDOF 5
ENDMDL
MODEL 9
REMARK VINA RESULT:      -6.8      2.285      3.216
REMARK  Name = 
REMARK  5 active torsions:
REMARK  status: ('A' for Active; 'I' for Inactive)
REMARK    1  A    between atoms: C_2  and  C_3
REMARK    2  A    between atoms: C_3  and  S_4
REMARK    3  A    between atoms: S_4  and  C_5
REMARK    4  A    between atoms: N_10  and  C_11
REMARK    5  A    between atoms: C_14  and  N_15
REMARK                            x       y       z     vdW  Elec       q    Type
REMARK                         _______ _______ _______ _____ _____    ______ ____
ROOT
ATOM      1  C   UNL     1       2.609   7.008  18.518  0.00  0.00    +0.000 A 
ATOM      2  C   UNL     1       2.489   8.039  17.596  0.00  0.00    +0.000 A 
ATOM      3  C   UNL     1       1.843   9.236  17.935  0.00  0.00    +0.000 A 
ATOM      4  C   UNL     1       1.268   9.454  19.194  0.00  0.00    +0.000 A 
ATOM      5  C   UNL     1       1.442   8.421  20.125  0.00  0.00    +0.000 A 
ATOM      6  C   UNL     1       2.103   7.220  19.803  0.00  0.00    +0.000 A 
ENDROOT
BRANCH   4   7
ATOM      7  N   UNL     1       0.572  10.612  19.478  0.00  0.00    +0.000 N 
ATOM      8  C   UNL     1      -0.885  10.696  19.342  0.00  0.00    +0.000 C 
ATOM      9  C   UNL     1      -1.237  11.813  18.362  0.00  0.00    +0.000 C 
ATOM     10  C   UNL     1      -0.598  13.137  18.787  0.00  0.00    +0.000 C 
ATOM     11  C   UNL     1       0.902  12.982  19.031  0.00  0.00    +0.000 C 
ATOM     12  C   UNL     1       1.209  11.826  19.988  0.00  0.00    +0.000 C 
ENDBRANCH   4   7
BRANCH   1  15
ATOM     13  O   UNL     1       5.014   5.730  19.694  0.00  0.00    +0.000 OA
ATOM     14  C   UNL     1       4.348   5.224  18.792  0.00  0.00    +0.000 C 
ATOM     15  N   UNL     1       3.193   5.755  18.226  0.00  0.00    +0.000 N 
ATOM     16  H   UNL     1       2.679   5.164  17.579  0.00  0.00    +0.000 HD
BRANCH  14  17
ATOM     17  C   UNL     1       4.770   3.886  18.203  0.00  0.00    +0.000 C 
BRANCH  17  18
ATOM     18  S   UNL     1       3.349   2.770  18.028  0.00  0.00    +0.000 S 
BRANCH  18  19
ATOM     19  C   UNL     1       2.716   2.825  19.651  0.00  0.00    +0.000 A 
ATOM     20  N   UNL     1       3.458   2.530  20.700  0.00  0.00    +0.000 NA
ATOM     21  N   UNL     1       2.719   2.511  21.866  0.00  0.00    +0.000 NA
ATOM     22  C   UNL     1       1.458   2.821  21.645  0.00  0.00    +0.000 A 
ATOM     23  S   UNL     1       1.085   3.193  20.013  0.00  0.00    +0.000 S 
ENDBRANCH  18  19
ENDBRANCH  17  18
ENDBRANCH  14  17
ENDBRANCH   1  15
TORSDOF 5
ENDMDL
