MODEL 1
REMARK VINA RESULT:      -6.5      0.000      0.000
REMARK  Name = 
REMARK  6 active torsions:
REMARK  status: ('A' for Active; 'I' for Inactive)
REMARK    1  A    between atoms: C_1  and  C_2
REMARK    2  A    between atoms: C_2  and  C_3
REMARK    3  A    between atoms: C_2  and  O_4
REMARK    4  A    between atoms: C_2  and  C_5
REMARK    5  A    between atoms: N_15  and  C_16
REMARK    6  A    between atoms: C_16  and  C_17
REMARK                            x       y       z     vdW  Elec       q    Type
REMARK                         _______ _______ _______ _____ _____    ______ ____
ROOT
ATOM      1  C   UNL     1       5.178   5.301  17.149  0.00  0.00    +0.000 A 
ATOM      2  N   UNL     1       4.679   6.438  16.695  0.00  0.00    +0.000 NA
ATOM      3  C   UNL     1       3.774   6.866  17.620  0.00  0.00    +0.000 A 
ATOM      4  C   UNL     1       2.964   8.012  17.590  0.00  0.00    +0.000 A 
ATOM      5  C   UNL     1       2.120   8.271  18.676  0.00  0.00    +0.000 A 
ATOM      6 CL   UNL     1       1.151   9.703  18.602  0.00  0.00    +0.000 Cl
ATOM      7  C   UNL     1       2.083   7.396  19.768  0.00  0.00    +0.000 A 
ATOM      8 CL   UNL     1       1.071   7.693  21.142  0.00  0.00    +0.000 Cl
ATOM      9  C   UNL     1       2.874   6.233  19.798  0.00  0.00    +0.000 A 
ATOM     10  C   UNL     1       3.717   5.994  18.702  0.00  0.00    +0.000 A 
ATOM     11  N   UNL     1       4.607   4.984  18.372  0.00  0.00    +0.000 N 
ENDROOT
BRANCH   1  13
ATOM     12  C   UNL     1       7.529   4.507  17.290  0.00  0.00    +0.000 C 
ATOM     13  C   UNL     1       6.256   4.511  16.444  0.00  0.00    +0.000 C 
ATOM     14  C   UNL     1       6.521   5.072  15.046  0.00  0.00    +0.000 C 
BRANCH  13  15
ATOM     15  O   UNL     1       5.807   3.162  16.304  0.00  0.00    +0.000 OA
ATOM     16  H   UNL     1       5.406   3.076  15.421  0.00  0.00    +0.000 HD
ENDBRANCH  13  15
ENDBRANCH   1  13
BRANCH  11  17
ATOM     17  C   UNL     1       4.844   3.772  19.144  0.00  0.00    +0.000 C 
BRANCH  17  18
ATOM     18  C   UNL     1       3.738   2.762  18.882  0.00  0.00    +0.000 C 
ATOM     19  N   UNL     1       2.821   1.925  18.665  0.00  0.00    +0.000 NA
ENDBRANCH  17  18
ENDBRANCH  11  17
TORSDOF 4
ENDMDL
MODEL 2
REMARK VINA RESULT:      -6.4      0.860      1.162
REMARK  Name = 
REMARK  6 active torsions:
REMARK  status: ('A' for Active; 'I' for Inactive)
REMARK    1  A    between atoms: C_1  and  C_2
REMARK    2  A    between atoms: C_2  and  C_3
REMARK    3  A    between atoms: C_2  and  O_4
REMARK    4  A    between atoms: C_2  and  C_5
REMARK    5  A    between atoms: N_15  and  C_16
REMARK    6  A    between atoms: C_16  and  C_17
REMARK                            x       y       z     vdW  Elec       q    Type
REMARK                         _______ _______ _______ _____ _____    ______ ____
ROOT
ATOM      1  C   UNL     1       5.397   5.622  17.095  0.00  0.00    +0.000 A 
ATOM      2  N   UNL     1       4.859   6.759  16.691  0.00  0.00    +0.000 NA
ATOM      3  C   UNL     1       3.887   7.074  17.594  0.00  0.00    +0.000 A 
ATOM      4  C   UNL     1       3.017   8.176  17.598  0.00  0.00    +0.000 A 
ATOM      5  C   UNL     1       2.108   8.315  18.653  0.00  0.00    +0.000 A 
ATOM      6 CL   UNL     1       1.065   9.695  18.624  0.00  0.00    +0.000 Cl
ATOM      7  C   UNL     1       2.067   7.366  19.681  0.00  0.00    +0.000 A 
ATOM      8 CL   UNL     1       0.974   7.514  21.018  0.00  0.00    +0.000 Cl
ATOM      9  C   UNL     1       2.920   6.246  19.675  0.00  0.00    +0.000 A 
ATOM     10  C   UNL     1       3.826   6.129  18.612  0.00  0.00    +0.000 A 
ATOM     11  N   UNL     1       4.787   5.192  18.262  0.00  0.00    +0.000 N 
ENDROOT
BRANCH   1  13
ATOM     12  C   UNL     1       6.032   3.769  15.565  0.00  0.00    +0.000 C 
ATOM     13  C   UNL     1       6.551   4.940  16.396  0.00  0.00    +0.000 C 
ATOM     14  C   UNL     1       7.606   4.480  17.404  0.00  0.00    +0.000 C 
BRANCH  13  15
ATOM     15  O   UNL     1       7.162   5.882  15.512  0.00  0.00    +0.000 OA
ATOM     16  H   UNL     1       6.656   6.711  15.571  0.00  0.00    +0.000 HD
ENDBRANCH  13  15
ENDBRANCH   1  13
BRANCH  11  17
ATOM     17  C   UNL     1       5.053   3.944  18.963  0.00  0.00    +0.000 C 
BRANCH  17  18
ATOM     18  C   UNL     1       4.052   2.881  18.537  0.00  0.00    +0.000 C 
ATOM     19  N   UNL     1       3.223   2.001  18.183  0.00  0.00    +0.000 NA
ENDBRANCH  17  18
ENDBRANCH  11  17
TORSDOF 4
ENDMDL
MODEL 3
REMARK VINA RESULT:      -6.4      1.705      3.583
REMARK  Name = 
REMARK  6 active torsions:
REMARK  status: ('A' for Active; 'I' for Inactive)
REMARK    1  A    between atoms: C_1  and  C_2
REMARK    2  A    between atoms: C_2  and  C_3
REMARK    3  A    between atoms: C_2  and  O_4
REMARK    4  A    between atoms: C_2  and  C_5
REMARK    5  A    between atoms: N_15  and  C_16
REMARK    6  A    between atoms: C_16  and  C_17
REMARK                            x       y       z     vdW  Elec       q    Type
REMARK                         _______ _______ _______ _____ _____    ______ ____
ROOT
ATOM      1  C   UNL     1       3.669   4.666  19.087  0.00  0.00    +0.000 A 
ATOM      2  N   UNL     1       2.942   5.071  20.113  0.00  0.00    +0.000 NA
ATOM      3  C   UNL     1       2.518   6.333  19.819  0.00  0.00    +0.000 A 
ATOM      4  C   UNL     1       1.734   7.199  20.597  0.00  0.00    +0.000 A 
ATOM      5  C   UNL     1       1.392   8.452  20.076  0.00  0.00    +0.000 A 
ATOM      6 CL   UNL     1       0.412   9.480  21.064  0.00  0.00    +0.000 Cl
ATOM      7  C   UNL     1       1.832   8.833  18.804  0.00  0.00    +0.000 A 
ATOM      8 CL   UNL     1       1.411  10.365  18.112  0.00  0.00    +0.000 Cl
ATOM      9  C   UNL     1       2.637   7.981  18.024  0.00  0.00    +0.000 A 
ATOM     10  C   UNL     1       2.964   6.729  18.563  0.00  0.00    +0.000 A 
ATOM     11  N   UNL     1       3.721   5.655  18.118  0.00  0.00    +0.000 N 
ENDROOT
BRANCH   1  13
ATOM     12  C   UNL     1       3.745   2.565  17.762  0.00  0.00    +0.000 C 
ATOM     13  C   UNL     1       4.295   3.294  18.985  0.00  0.00    +0.000 C 
ATOM     14  C   UNL     1       4.059   2.488  20.264  0.00  0.00    +0.000 C 
BRANCH  13  15
ATOM     15  O   UNL     1       5.705   3.454  18.816  0.00  0.00    +0.000 OA
ATOM     16  H   UNL     1       6.087   3.645  19.691  0.00  0.00    +0.000 HD
ENDBRANCH  13  15
ENDBRANCH   1  13
BRANCH  11  17
ATOM     17  C   UNL     1       4.489   5.609  16.881  0.00  0.00    +0.000 C 
BRANCH  17  18
ATOM     18  C   UNL     1       5.707   6.512  16.990  0.00  0.00    +0.000 C 
ATOM     19  N   UNL     1       6.717   7.261  17.079  0.00  0.00    +0.000 NA
ENDBRANCH  17  18
ENDBRANCH  11  17
TORSDOF 4
ENDMDL
MODEL 4
REMARK VINA RESULT:      -6.2      3.188      4.198
REMARK  Name = 
REMARK  6 active torsions:
REMARK  status: ('A' for Active; 'I' for Inactive)
REMARK    1  A    between atoms: C_1  and  C_2
REMARK    2  A    between atoms: C_2  and  C_3
REMARK    3  A    between atoms: C_2  and  O_4
REMARK    4  A    between atoms: C_2  and  C_5
REMARK    5  A    between atoms: N_15  and  C_16
REMARK    6  A    between atoms: C_16  and  C_17
REMARK                            x       y       z     vdW  Elec       q    Type
REMARK                         _______ _______ _______ _____ _____    ______ ____
ROOT
ATOM      1  C   UNL     1       6.137   4.812  18.487  0.00  0.00    +0.000 A 
ATOM      2  N   UNL     1       5.622   4.743  19.701  0.00  0.00    +0.000 NA
ATOM      3  C   UNL     1       4.393   4.165  19.574  0.00  0.00    +0.000 A 
ATOM      4  C   UNL     1       3.445   3.890  20.571  0.00  0.00    +0.000 A 
ATOM      5  C   UNL     1       2.250   3.257  20.211  0.00  0.00    +0.000 A 
ATOM      6 CL   UNL     1       1.117   2.924  21.476  0.00  0.00    +0.000 Cl
ATOM      7  C   UNL     1       2.006   2.913  18.877  0.00  0.00    +0.000 A 
ATOM      8 CL   UNL     1       0.550   2.107  18.392  0.00  0.00    +0.000 Cl
ATOM      9  C   UNL     1       2.940   3.205  17.865  0.00  0.00    +0.000 A 
ATOM     10  C   UNL     1       4.133   3.834  18.248  0.00  0.00    +0.000 A 
ATOM     11  N   UNL     1       5.253   4.278  17.562  0.00  0.00    +0.000 N 
ENDROOT
BRANCH   1  13
ATOM     12  C   UNL     1       8.357   5.359  19.459  0.00  0.00    +0.000 C 
ATOM     13  C   UNL     1       7.517   5.349  18.184  0.00  0.00    +0.000 C 
ATOM     14  C   UNL     1       7.438   6.744  17.562  0.00  0.00    +0.000 C 
BRANCH  13  15
ATOM     15  O   UNL     1       8.142   4.477  17.241  0.00  0.00    +0.000 OA
ATOM     16  H   UNL     1       7.624   4.513  16.418  0.00  0.00    +0.000 HD
ENDBRANCH  13  15
ENDBRANCH   1  13
BRANCH  11  17
ATOM     17  C   UNL     1       5.433   4.249  16.117  0.00  0.00    +0.000 C 
BRANCH  17  18
ATOM     18  C   UNL     1       5.239   5.642  15.539  0.00  0.00    +0.000 C 
ATOM     19  N   UNL     1       5.079   6.796  15.059  0.00  0.00    +0.000 NA
ENDBRANCH  17  18
ENDBRANCH  11  17
TORSDOF 4
ENDMDL
MODEL 5
REMARK VINA RESULT:      -6.2      3.140      4.098
REMARK  Name = 
REMARK  6 active torsions:
REMARK  status: ('A' for Active; 'I' for Inactive)
REMARK    1  A    between atoms: C_1  and  C_2
REMARK    2  A    between atoms: C_2  and  C_3
REMARK    3  A    between atoms: C_2  and  O_4
REMARK    4  A    between atoms: C_2  and  C_5
REMARK    5  A    between atoms: N_15  and  C_16
REMARK    6  A    between atoms: C_16  and  C_17
REMARK                            x       y       z     vdW  Elec       q    Type
REMARK                         _______ _______ _______ _____ _____    ______ ____
ROOT
ATOM      1  C   UNL     1       5.948   5.174  18.416  0.00  0.00    +0.000 A 
ATOM      2  N   UNL     1       5.672   4.721  19.626  0.00  0.00    +0.000 NA
ATOM      3  C   UNL     1       4.413   4.202  19.572  0.00  0.00    +0.000 A 
ATOM      4  C   UNL     1       3.660   3.617  20.603  0.00  0.00    +0.000 A 
ATOM      5  C   UNL     1       2.386   3.119  20.309  0.00  0.00    +0.000 A 
ATOM      6 CL   UNL     1       1.500   2.394  21.607  0.00  0.00    +0.000 Cl
ATOM      7  C   UNL     1       1.872   3.210  19.011  0.00  0.00    +0.000 A 
ATOM      8 CL   UNL     1       0.309   2.584  18.599  0.00  0.00    +0.000 Cl
ATOM      9  C   UNL     1       2.610   3.814  17.975  0.00  0.00    +0.000 A 
ATOM     10  C   UNL     1       3.886   4.302  18.289  0.00  0.00    +0.000 A 
ATOM     11  N   UNL     1       4.876   4.950  17.566  0.00  0.00    +0.000 N 
ENDROOT
BRANCH   1  13
ATOM     12  C   UNL     1       8.161   5.926  19.261  0.00  0.00    +0.000 C 
ATOM     13  C   UNL     1       7.271   5.792  18.027  0.00  0.00    +0.000 C 
ATOM     14  C   UNL     1       7.064   7.145  17.344  0.00  0.00    +0.000 C 
BRANCH  13  15
ATOM     15  O   UNL     1       7.919   4.920  17.099  0.00  0.00    +0.000 OA
ATOM     16  H   UNL     1       7.266   4.675  16.420  0.00  0.00    +0.000 HD
ENDBRANCH  13  15
ENDBRANCH   1  13
BRANCH  11  17
ATOM     17  C   UNL     1       4.774   5.380  16.178  0.00  0.00    +0.000 C 
BRANCH  17  18
ATOM     18  C   UNL     1       5.543   4.425  15.279  0.00  0.00    +0.000 C 
ATOM     19  N   UNL     1       6.181   3.633  14.533  0.00  0.00    +0.000 NA
ENDBRANCH  17  18
ENDBRANCH  11  17
TORSDOF 4
ENDMDL
MODEL 6
REMARK VINA RESULT:      -6.1      3.371      5.291
REMARK  Name = 
REMARK  6 active torsions:
REMARK  status: ('A' for Active; 'I' for Inactive)
REMARK    1  A    between atoms: C_1  and  C_2
REMARK    2  A    between atoms: C_2  and  C_3
REMARK    3  A    between atoms: C_2  and  O_4
REMARK    4  A    between atoms: C_2  and  C_5
REMARK    5  A    between atoms: N_15  and  C_16
REMARK    6  A    between atoms: C_16  and  C_17
REMARK                            x       y       z     vdW  Elec       q    Type
REMARK                         _______ _______ _______ _____ _____    ______ ____
ROOT
ATOM      1  C   UNL     1       2.906   3.366  18.682  0.00  0.00    +0.000 A 
ATOM      2  N   UNL     1       3.514   2.946  17.587  0.00  0.00    +0.000 NA
ATOM      3  C   UNL     1       4.468   3.873  17.288  0.00  0.00    +0.000 A 
ATOM      4  C   UNL     1       5.366   3.891  16.210  0.00  0.00    +0.000 A 
ATOM      5  C   UNL     1       6.289   4.939  16.117  0.00  0.00    +0.000 A 
ATOM      6 CL   UNL     1       7.386   4.914  14.779  0.00  0.00    +0.000 Cl
ATOM      7  C   UNL     1       6.309   5.952  17.083  0.00  0.00    +0.000 A 
ATOM      8 CL   UNL     1       7.451   7.253  17.021  0.00  0.00    +0.000 Cl
ATOM      9  C   UNL     1       5.398   5.954  18.157  0.00  0.00    +0.000 A 
ATOM     10  C   UNL     1       4.485   4.893  18.233  0.00  0.00    +0.000 A 
ATOM     11  N   UNL     1       3.460   4.563  19.107  0.00  0.00    +0.000 N 
ENDROOT
BRANCH   1  13
ATOM     12  C   UNL     1       0.461   3.276  19.118  0.00  0.00    +0.000 C 
ATOM     13  C   UNL     1       1.806   2.602  19.382  0.00  0.00    +0.000 C 
ATOM     14  C   UNL     1       2.085   2.490  20.882  0.00  0.00    +0.000 C 
BRANCH  13  15
ATOM     15  O   UNL     1       1.759   1.281  18.840  0.00  0.00    +0.000 OA
ATOM     16  H   UNL     1       1.203   0.740  19.428  0.00  0.00    +0.000 HD
ENDBRANCH  13  15
ENDBRANCH   1  13
BRANCH  11  17
ATOM     17  C   UNL     1       3.006   5.371  20.230  0.00  0.00    +0.000 C 
BRANCH  17  18
ATOM     18  C   UNL     1       2.477   6.707  19.731  0.00  0.00    +0.000 C 
ATOM     19  N   UNL     1       2.039   7.814  19.319  0.00  0.00    +0.000 NA
ENDBRANCH  17  18
ENDBRANCH  11  17
TORSDOF 4
ENDMDL
MODEL 7
REMARK VINA RESULT:      -6.1      1.590      2.048
REMARK  Name = 
REMARK  6 active torsions:
REMARK  status: ('A' for Active; 'I' for Inactive)
REMARK    1  A    between atoms: C_1  and  C_2
REMARK    2  A    between atoms: C_2  and  C_3
REMARK    3  A    between atoms: C_2  and  O_4
REMARK    4  A    between atoms: C_2  and  C_5
REMARK    5  A    between atoms: N_15  and  C_16
REMARK    6  A    between atoms: C_16  and  C_17
REMARK                            x       y       z     vdW  Elec       q    Type
REMARK                         _______ _______ _______ _____ _____    ______ ____
ROOT
ATOM      1  C   UNL     1       3.849   5.224  18.240  0.00  0.00    +0.000 A 
ATOM      2  N   UNL     1       3.679   6.330  17.537  0.00  0.00    +0.000 NA
ATOM      3  C   UNL     1       2.890   7.153  18.285  0.00  0.00    +0.000 A 
ATOM      4  C   UNL     1       2.411   8.433  17.970  0.00  0.00    +0.000 A 
ATOM      5  C   UNL     1       1.633   9.114  18.913  0.00  0.00    +0.000 A 
ATOM      6 CL   UNL     1       1.075  10.696  18.488  0.00  0.00    +0.000 Cl
ATOM      7  C   UNL     1       1.335   8.521  20.146  0.00  0.00    +0.000 A 
ATOM      8 CL   UNL     1       0.396   9.339  21.350  0.00  0.00    +0.000 Cl
ATOM      9  C   UNL     1       1.793   7.228  20.463  0.00  0.00    +0.000 A 
ATOM     10  C   UNL     1       2.575   6.566  19.506  0.00  0.00    +0.000 A 
ATOM     11  N   UNL     1       3.179   5.319  19.449  0.00  0.00    +0.000 N 
ENDROOT
BRANCH   1  13
ATOM     12  C   UNL     1       5.509   4.459  16.557  0.00  0.00    +0.000 C 
ATOM     13  C   UNL     1       4.703   4.061  17.791  0.00  0.00    +0.000 C 
ATOM     14  C   UNL     1       3.845   2.824  17.516  0.00  0.00    +0.000 C 
BRANCH  13  15
ATOM     15  O   UNL     1       5.618   3.742  18.841  0.00  0.00    +0.000 OA
ATOM     16  H   UNL     1       6.288   3.139  18.475  0.00  0.00    +0.000 HD
ENDBRANCH  13  15
ENDBRANCH   1  13
BRANCH  11  17
ATOM     17  C   UNL     1       3.067   4.272  20.456  0.00  0.00    +0.000 C 
BRANCH  17  18
ATOM     18  C   UNL     1       1.756   3.521  20.284  0.00  0.00    +0.000 C 
ATOM     19  N   UNL     1       0.670   2.898  20.142  0.00  0.00    +0.000 NA
ENDBRANCH  17  18
ENDBRANCH  11  17
TORSDOF 4
ENDMDL
MODEL 8
REMARK VINA RESULT:      -6.1      3.552      5.385
REMARK  Name = 
REMARK  6 active torsions:
REMARK  status: ('A' for Active; 'I' for Inactive)
REMARK    1  A    between atoms: C_1  and  C_2
REMARK    2  A    between atoms: C_2  and  C_3
REMARK    3  A    between atoms: C_2  and  O_4
REMARK    4  A    between atoms: C_2  and  C_5
REMARK    5  A    between atoms: N_15  and  C_16
REMARK    6  A    between atoms: C_16  and  C_17
REMARK                            x       y       z     vdW  Elec       q    Type
REMARK                         _______ _______ _______ _____ _____    ______ ____
ROOT
ATOM      1  C   UNL     1       2.515   3.717  18.997  0.00  0.00    +0.000 A 
ATOM      2  N   UNL     1       3.087   3.169  17.939  0.00  0.00    +0.000 NA
ATOM      3  C   UNL     1       4.118   3.988  17.583  0.00  0.00    +0.000 A 
ATOM      4  C   UNL     1       5.017   3.852  16.514  0.00  0.00    +0.000 A 
ATOM      5  C   UNL     1       6.027   4.808  16.356  0.00  0.00    +0.000 A 
ATOM      6 CL   UNL     1       7.121   4.593  15.032  0.00  0.00    +0.000 Cl
ATOM      7  C   UNL     1       6.131   5.882  17.247  0.00  0.00    +0.000 A 
ATOM      8 CL   UNL     1       7.381   7.073  17.101  0.00  0.00    +0.000 Cl
ATOM      9  C   UNL     1       5.221   6.039  18.310  0.00  0.00    +0.000 A 
ATOM     10  C   UNL     1       4.220   5.068  18.454  0.00  0.00    +0.000 A 
ATOM     11  N   UNL     1       3.169   4.890  19.340  0.00  0.00    +0.000 N 
ENDROOT
BRANCH   1  13
ATOM     12  C   UNL     1       1.849   2.450  21.028  0.00  0.00    +0.000 C 
ATOM     13  C   UNL     1       1.351   3.103  19.740  0.00  0.00    +0.000 C 
ATOM     14  C   UNL     1       0.608   2.097  18.860  0.00  0.00    +0.000 C 
BRANCH  13  15
ATOM     15  O   UNL     1       0.439   4.146  20.089  0.00  0.00    +0.000 OA
ATOM     16  H   UNL     1       0.873   4.995  19.893  0.00  0.00    +0.000 HD
ENDBRANCH  13  15
ENDBRANCH   1  13
BRANCH  11  17
ATOM     17  C   UNL     1       2.782   5.813  20.398  0.00  0.00    +0.000 C 
BRANCH  17  18
ATOM     18  C   UNL     1       2.283   7.117  19.797  0.00  0.00    +0.000 C 
ATOM     19  N   UNL     1       1.869   8.199  19.299  0.00  0.00    +0.000 NA
ENDBRANCH  17  18
ENDBRANCH  11  17
TORSDOF 4
ENDMDL
MODEL 9
REMARK VINA RESULT:      -6.0      2.490      3.621
REMARK  Name = 
REMARK  6 active torsions:
REMARK  status: ('A' for Active; 'I' for Inactive)
REMARK    1  A    between atoms: C_1  and  C_2
REMARK    2  A    between atoms: C_2  and  C_3
REMARK    3  A    between atoms: C_2  and  O_4
REMARK    4  A    between atoms: C_2  and  C_5
REMARK    5  A    between atoms: N_15  and  C_16
REMARK    6  A    between atoms: C_16  and  C_17
REMARK                            x       y       z     vdW  Elec       q    Type
REMARK                         _______ _______ _______ _____ _____    ______ ____
ROOT
ATOM      1  C   UNL     1       5.478   4.477  16.344  0.00  0.00    +0.000 A 
ATOM      2  N   UNL     1       4.561   3.541  16.173  0.00  0.00    +0.000 NA
ATOM      3  C   UNL     1       3.685   3.656  17.210  0.00  0.00    +0.000 A 
ATOM      4  C   UNL     1       2.549   2.881  17.490  0.00  0.00    +0.000 A 
ATOM      5  C   UNL     1       1.770   3.201  18.607  0.00  0.00    +0.000 A 
ATOM      6 CL   UNL     1       0.372   2.227  18.905  0.00  0.00    +0.000 Cl
ATOM      7  C   UNL     1       2.125   4.274  19.433  0.00  0.00    +0.000 A 
ATOM      8 CL   UNL     1       1.175   4.720  20.812  0.00  0.00    +0.000 Cl
ATOM      9  C   UNL     1       3.274   5.045  19.174  0.00  0.00    +0.000 A 
ATOM     10  C   UNL     1       4.038   4.710  18.047  0.00  0.00    +0.000 A 
ATOM     11  N   UNL     1       5.204   5.210  17.488  0.00  0.00    +0.000 N 
ENDROOT
BRANCH   1  13
ATOM     12  C   UNL     1       6.666   6.210  15.016  0.00  0.00    +0.000 C 
ATOM     13  C   UNL     1       6.618   4.728  15.384  0.00  0.00    +0.000 C 
ATOM     14  C   UNL     1       6.488   3.851  14.138  0.00  0.00    +0.000 C 
BRANCH  13  15
ATOM     15  O   UNL     1       7.841   4.389  16.040  0.00  0.00    +0.000 OA
ATOM     16  H   UNL     1       7.770   3.464  16.336  0.00  0.00    +0.000 HD
ENDBRANCH  13  15
ENDBRANCH   1  13
BRANCH  11  17
ATOM     17  C   UNL     1       6.029   6.272  18.048  0.00  0.00    +0.000 C 
BRANCH  17  18
ATOM     18  C   UNL     1       6.918   5.717  19.149  0.00  0.00    +0.000 C 
ATOM     19  N   UNL     1       7.655   5.256  20.061  0.00  0.00    +0.000 NA
ENDBRANCH  17  18
ENDBRANCH  11  17
TORSDOF 4
ENDMDL
