MODEL 1
REMARK VINA RESULT:      -8.4      0.000      0.000
REMARK  Name = 
REMARK  8 active torsions:
REMARK  status: ('A' for Active; 'I' for Inactive)
REMARK    1  A    between atoms: C_1  and  C_2
REMARK    2  A    between atoms: N_4  and  C_5
REMARK    3  A    between atoms: C_5  and  C_6
REMARK    4  A    between atoms: N_8  and  C_9
REMARK    5  A    between atoms: C_21  and  C_23
REMARK    6  A    between atoms: C_23  and  O_24
REMARK    7  A    between atoms: C_23  and  C_25
REMARK    8  A    between atoms: C_25  and  O_26
REMARK                            x       y       z     vdW  Elec       q    Type
REMARK                         _______ _______ _______ _____ _____    ______ ____
ROOT
ATOM      1  C   UNL     1       3.254   6.812  18.847  0.00  0.00    +0.000 A 
ATOM      2  C   UNL     1       2.979   7.685  17.787  0.00  0.00    +0.000 A 
ATOM      3  C   UNL     1       1.943   8.621  17.871  0.00  0.00    +0.000 A 
ATOM      4  C   UNL     1       1.188   8.717  19.037  0.00  0.00    +0.000 A 
ATOM      5  C   UNL     1       1.425   7.831  20.109  0.00  0.00    +0.000 A 
ATOM      6  C   UNL     1       2.440   6.873  19.990  0.00  0.00    +0.000 A 
ATOM      7  C   UNL     1       0.646   7.954  21.406  0.00  0.00    +0.000 C 
ATOM      8  C   UNL     1       1.016   9.185  22.261  0.00  0.00    +0.000 C 
ATOM      9  C   UNL     1       1.247  10.498  21.493  0.00  0.00    +0.000 C 
ATOM     10  C   UNL     1       0.279  10.667  20.375  0.00  0.00    +0.000 A 
ATOM     11  C   UNL     1      -0.836  11.523  20.178  0.00  0.00    +0.000 A 
ATOM     12  N   UNL     1      -1.281  12.491  21.057  0.00  0.00    +0.000 N 
ATOM     13  C   UNL     1      -2.454  13.200  20.869  0.00  0.00    +0.000 C 
ATOM     14  O   UNL     1      -3.255  13.067  19.952  0.00  0.00    +0.000 OA
ATOM     15  N   UNL     1      -1.427  11.257  19.013  0.00  0.00    +0.000 NA
ATOM     16  N   UNL     1      -0.738  10.244  18.480  0.00  0.00    +0.000 N 
ATOM     17  C   UNL     1       0.302   9.846  19.260  0.00  0.00    +0.000 A 
ATOM     18  H   UNL     1      -0.728  12.673  21.884  0.00  0.00    +0.000 HD
ATOM     19  H   UNL     1      -1.062   9.850  17.605  0.00  0.00    +0.000 HD
ENDROOT
BRANCH   1  22
ATOM     20  C   UNL     1       6.442   5.036  18.516  0.00  0.00    +0.000 C 
ATOM     21  C   UNL     1       5.527   6.142  18.049  0.00  0.00    +0.000 C 
ATOM     22  N   UNL     1       4.332   5.899  18.797  0.00  0.00    +0.000 N 
ATOM     23  C   UNL     1       4.338   4.585  19.247  0.00  0.00    +0.000 C 
ATOM     24  O   UNL     1       3.446   3.958  19.791  0.00  0.00    +0.000 OA
ATOM     25  O   UNL     1       5.538   3.997  18.922  0.00  0.00    +0.000 OA
BRANCH  20  26
ATOM     26  C   UNL     1       7.361   4.564  17.388  0.00  0.00    +0.000 C 
BRANCH  26  30
ATOM     27  C   UNL     1       6.095   3.906  13.884  0.00  0.00    +0.000 C 
ATOM     28  C   UNL     1       6.898   4.574  14.966  0.00  0.00    +0.000 C 
ATOM     29  O   UNL     1       7.713   5.462  14.743  0.00  0.00    +0.000 OA
ATOM     30  N   UNL     1       6.635   4.088  16.225  0.00  0.00    +0.000 N 
ATOM     31  H   UNL     1       6.026   3.285  16.330  0.00  0.00    +0.000 HD
ENDBRANCH  26  30
ENDBRANCH  20  26
ENDBRANCH   1  22
BRANCH  13  32
ATOM     32  C   UNL     1      -2.731  14.214  21.985  0.00  0.00    +0.000 C 
BRANCH  32  33
ATOM     33  O   UNL     1      -3.433  15.349  21.479  0.00  0.00    +0.000 OA
ATOM     34  H   UNL     1      -4.210  15.007  20.997  0.00  0.00    +0.000 HD
ENDBRANCH  32  33
BRANCH  32  35
ATOM     35  C   UNL     1      -3.526  13.531  23.114  0.00  0.00    +0.000 C 
BRANCH  35  36
ATOM     36  O   UNL     1      -3.976  12.229  22.743  0.00  0.00    +0.000 OA
ATOM     37  H   UNL     1      -3.274  11.858  22.162  0.00  0.00    +0.000 HD
ENDBRANCH  35  36
ENDBRANCH  32  35
ENDBRANCH  13  32
TORSDOF 7
ENDMDL
MODEL 2
REMARK VINA RESULT:      -8.2      0.577      1.056
REMARK  Name = 
REMARK  8 active torsions:
REMARK  status: ('A' for Active; 'I' for Inactive)
REMARK    1  A    between atoms: C_1  and  C_2
REMARK    2  A    between atoms: N_4  and  C_5
REMARK    3  A    between atoms: C_5  and  C_6
REMARK    4  A    between atoms: N_8  and  C_9
REMARK    5  A    between atoms: C_21  and  C_23
REMARK    6  A    between atoms: C_23  and  O_24
REMARK    7  A    between atoms: C_23  and  C_25
REMARK    8  A    between atoms: C_25  and  O_26
REMARK                            x       y       z     vdW  Elec       q    Type
REMARK                         _______ _______ _______ _____ _____    ______ ____
ROOT
ATOM      1  C   UNL     1       3.323   6.803  18.807  0.00  0.00    +0.000 A 
ATOM      2  C   UNL     1       3.061   7.689  17.754  0.00  0.00    +0.000 A 
ATOM      3  C   UNL     1       2.017   8.615  17.830  0.00  0.00    +0.000 A 
ATOM      4  C   UNL     1       1.238   8.689  18.983  0.00  0.00    +0.000 A 
ATOM      5  C   UNL     1       1.462   7.789  20.047  0.00  0.00    +0.000 A 
ATOM      6  C   UNL     1       2.486   6.841  19.934  0.00  0.00    +0.000 A 
ATOM      7  C   UNL     1       0.656   7.888  21.330  0.00  0.00    +0.000 C 
ATOM      8  C   UNL     1       0.999   9.110  22.209  0.00  0.00    +0.000 C 
ATOM      9  C   UNL     1       1.235  10.435  21.464  0.00  0.00    +0.000 C 
ATOM     10  C   UNL     1       0.287  10.613  20.330  0.00  0.00    +0.000 A 
ATOM     11  C   UNL     1      -0.830  11.463  20.123  0.00  0.00    +0.000 A 
ATOM     12  N   UNL     1      -1.300  12.414  21.006  0.00  0.00    +0.000 N 
ATOM     13  C   UNL     1      -2.476  13.117  20.804  0.00  0.00    +0.000 C 
ATOM     14  O   UNL     1      -3.257  12.990  19.870  0.00  0.00    +0.000 OA
ATOM     15  N   UNL     1      -1.397  11.209  18.942  0.00  0.00    +0.000 NA
ATOM     16  N   UNL     1      -0.688  10.209  18.409  0.00  0.00    +0.000 N 
ATOM     17  C   UNL     1       0.339   9.808  19.203  0.00  0.00    +0.000 A 
ATOM     18  H   UNL     1      -0.766  12.588  21.846  0.00  0.00    +0.000 HD
ATOM     19  H   UNL     1      -0.992   9.825  17.522  0.00  0.00    +0.000 HD
ENDROOT
BRANCH   1  22
ATOM     20  C   UNL     1       6.524   5.049  18.475  0.00  0.00    +0.000 C 
ATOM     21  C   UNL     1       5.590   6.133  17.993  0.00  0.00    +0.000 C 
ATOM     22  N   UNL     1       4.409   5.899  18.765  0.00  0.00    +0.000 N 
ATOM     23  C   UNL     1       4.435   4.599  19.251  0.00  0.00    +0.000 C 
ATOM     24  O   UNL     1       3.558   3.978  19.827  0.00  0.00    +0.000 OA
ATOM     25  O   UNL     1       5.636   4.013  18.925  0.00  0.00    +0.000 OA
BRANCH  20  26
ATOM     26  C   UNL     1       7.429   4.554  17.347  0.00  0.00    +0.000 C 
BRANCH  26  30
ATOM     27  C   UNL     1       6.096   3.909  13.865  0.00  0.00    +0.000 C 
ATOM     28  C   UNL     1       6.902   4.588  14.938  0.00  0.00    +0.000 C 
ATOM     29  O   UNL     1       7.678   5.509  14.710  0.00  0.00    +0.000 OA
ATOM     30  N   UNL     1       6.691   4.071  16.195  0.00  0.00    +0.000 N 
ATOM     31  H   UNL     1       6.114   3.246  16.302  0.00  0.00    +0.000 HD
ENDBRANCH  26  30
ENDBRANCH  20  26
ENDBRANCH   1  22
BRANCH  13  32
ATOM     32  C   UNL     1      -2.783  14.113  21.929  0.00  0.00    +0.000 C 
BRANCH  32  33
ATOM     33  O   UNL     1      -2.077  13.769  23.120  0.00  0.00    +0.000 OA
ATOM     34  H   UNL     1      -1.392  14.453  23.249  0.00  0.00    +0.000 HD
ENDBRANCH  32  33
BRANCH  32  35
ATOM     35  C   UNL     1      -2.425  15.538  21.465  0.00  0.00    +0.000 C 
BRANCH  35  36
ATOM     36  O   UNL     1      -3.035  15.866  20.217  0.00  0.00    +0.000 OA
ATOM     37  H   UNL     1      -2.575  15.318  19.542  0.00  0.00    +0.000 HD
ENDBRANCH  35  36
ENDBRANCH  32  35
ENDBRANCH  13  32
TORSDOF 7
ENDMDL
MODEL 3
REMARK VINA RESULT:      -8.2      1.505      2.314
REMARK  Name = 
REMARK  8 active torsions:
REMARK  status: ('A' for Active; 'I' for Inactive)
REMARK    1  A    between atoms: C_1  and  C_2
REMARK    2  A    between atoms: N_4  and  C_5
REMARK    3  A    between atoms: C_5  and  C_6
REMARK    4  A    between atoms: N_8  and  C_9
REMARK    5  A    between atoms: C_21  and  C_23
REMARK    6  A    between atoms: C_23  and  O_24
REMARK    7  A    between atoms: C_23  and  C_25
REMARK    8  A    between atoms: C_25  and  O_26
REMARK                            x       y       z     vdW  Elec       q    Type
REMARK                         _______ _______ _______ _____ _____    ______ ____
ROOT
ATOM      1  C   UNL     1       2.537   6.922  19.249  0.00  0.00    +0.000 A 
ATOM      2  C   UNL     1       2.052   6.799  20.557  0.00  0.00    +0.000 A 
ATOM      3  C   UNL     1       1.334   7.835  21.163  0.00  0.00    +0.000 A 
ATOM      4  C   UNL     1       1.062   9.000  20.450  0.00  0.00    +0.000 A 
ATOM      5  C   UNL     1       1.564   9.162  19.141  0.00  0.00    +0.000 A 
ATOM      6  C   UNL     1       2.316   8.130  18.567  0.00  0.00    +0.000 A 
ATOM      7  C   UNL     1       1.235  10.403  18.331  0.00  0.00    +0.000 C 
ATOM      8  C   UNL     1      -0.229  10.484  17.848  0.00  0.00    +0.000 C 
ATOM      9  C   UNL     1      -1.301  10.042  18.858  0.00  0.00    +0.000 C 
ATOM     10  C   UNL     1      -0.979  10.486  20.242  0.00  0.00    +0.000 A 
ATOM     11  C   UNL     1      -1.531  11.476  21.096  0.00  0.00    +0.000 A 
ATOM     12  N   UNL     1      -2.603  12.294  20.803  0.00  0.00    +0.000 N 
ATOM     13  C   UNL     1      -3.007  13.333  21.624  0.00  0.00    +0.000 C 
ATOM     14  O   UNL     1      -2.485  13.687  22.674  0.00  0.00    +0.000 OA
ATOM     15  N   UNL     1      -0.853  11.531  22.244  0.00  0.00    +0.000 NA
ATOM     16  N   UNL     1       0.123  10.626  22.131  0.00  0.00    +0.000 N 
ATOM     17  C   UNL     1       0.097   9.966  20.943  0.00  0.00    +0.000 A 
ATOM     18  H   UNL     1      -3.101  12.134  19.939  0.00  0.00    +0.000 HD
ATOM     19  H   UNL     1       0.794  10.546  22.887  0.00  0.00    +0.000 HD
ENDROOT
BRANCH   1  22
ATOM     20  C   UNL     1       4.873   4.395  17.987  0.00  0.00    +0.000 C 
ATOM     21  C   UNL     1       4.641   5.794  18.507  0.00  0.00    +0.000 C 
ATOM     22  N   UNL     1       3.217   5.863  18.605  0.00  0.00    +0.000 N 
ATOM     23  C   UNL     1       2.659   4.876  17.804  0.00  0.00    +0.000 C 
ATOM     24  O   UNL     1       1.489   4.699  17.509  0.00  0.00    +0.000 OA
ATOM     25  O   UNL     1       3.661   4.094  17.278  0.00  0.00    +0.000 OA
BRANCH  20  26
ATOM     26  C   UNL     1       6.087   4.343  17.059  0.00  0.00    +0.000 C 
BRANCH  26  30
ATOM     27  C   UNL     1       6.036   3.775  13.319  0.00  0.00    +0.000 C 
ATOM     28  C   UNL     1       6.495   4.358  14.627  0.00  0.00    +0.000 C 
ATOM     29  O   UNL     1       7.446   5.125  14.721  0.00  0.00    +0.000 OA
ATOM     30  N   UNL     1       5.752   3.939  15.706  0.00  0.00    +0.000 N 
ATOM     31  H   UNL     1       5.045   3.226  15.575  0.00  0.00    +0.000 HD
ENDBRANCH  26  30
ENDBRANCH  20  26
ENDBRANCH   1  22
BRANCH  13  32
ATOM     32  C   UNL     1      -4.220  14.096  21.077  0.00  0.00    +0.000 C 
BRANCH  32  33
ATOM     33  O   UNL     1      -4.411  13.821  19.691  0.00  0.00    +0.000 OA
ATOM     34  H   UNL     1      -4.350  14.676  19.223  0.00  0.00    +0.000 HD
ENDBRANCH  32  33
BRANCH  32  35
ATOM     35  C   UNL     1      -5.472  13.723  21.893  0.00  0.00    +0.000 C 
BRANCH  35  36
ATOM     36  O   UNL     1      -5.328  12.467  22.556  0.00  0.00    +0.000 OA
ATOM     37  H   UNL     1      -4.468  12.099  22.248  0.00  0.00    +0.000 HD
ENDBRANCH  35  36
ENDBRANCH  32  35
ENDBRANCH  13  32
TORSDOF 7
ENDMDL
MODEL 4
REMARK VINA RESULT:      -7.9      1.108      1.340
REMARK  Name = 
REMARK  8 active torsions:
REMARK  status: ('A' for Active; 'I' for Inactive)
REMARK    1  A    between atoms: C_1  and  C_2
REMARK    2  A    between atoms: N_4  and  C_5
REMARK    3  A    between atoms: C_5  and  C_6
REMARK    4  A    between atoms: N_8  and  C_9
REMARK    5  A    between atoms: C_21  and  C_23
REMARK    6  A    between atoms: C_23  and  O_24
REMARK    7  A    between atoms: C_23  and  C_25
REMARK    8  A    between atoms: C_25  and  O_26
REMARK                            x       y       z     vdW  Elec       q    Type
REMARK                         _______ _______ _______ _____ _____    ______ ____
ROOT
ATOM      1  C   UNL     1       3.065   6.919  18.679  0.00  0.00    +0.000 A 
ATOM      2  C   UNL     1       2.901   7.917  17.710  0.00  0.00    +0.000 A 
ATOM      3  C   UNL     1       1.981   8.955  17.888  0.00  0.00    +0.000 A 
ATOM      4  C   UNL     1       1.234   9.026  19.062  0.00  0.00    +0.000 A 
ATOM      5  C   UNL     1       1.359   8.019  20.042  0.00  0.00    +0.000 A 
ATOM      6  C   UNL     1       2.255   6.965  19.826  0.00  0.00    +0.000 A 
ATOM      7  C   UNL     1       0.591   8.106  21.349  0.00  0.00    +0.000 C 
ATOM      8  C   UNL     1       1.096   9.198  22.317  0.00  0.00    +0.000 C 
ATOM      9  C   UNL     1       1.485  10.542  21.678  0.00  0.00    +0.000 C 
ATOM     10  C   UNL     1       0.550  10.931  20.586  0.00  0.00    +0.000 A 
ATOM     11  C   UNL     1      -0.455  11.926  20.478  0.00  0.00    +0.000 A 
ATOM     12  N   UNL     1      -0.791  12.850  21.448  0.00  0.00    +0.000 N 
ATOM     13  C   UNL     1      -1.872  13.706  21.334  0.00  0.00    +0.000 C 
ATOM     14  O   UNL     1      -2.677  13.757  20.412  0.00  0.00    +0.000 OA
ATOM     15  N   UNL     1      -1.066  11.845  19.295  0.00  0.00    +0.000 NA
ATOM     16  N   UNL     1      -0.496  10.815  18.664  0.00  0.00    +0.000 N 
ATOM     17  C   UNL     1       0.485  10.224  19.396  0.00  0.00    +0.000 A 
ATOM     18  H   UNL     1      -0.226  12.885  22.286  0.00  0.00    +0.000 HD
ATOM     19  H   UNL     1      -0.858  10.548  17.755  0.00  0.00    +0.000 HD
ENDROOT
BRANCH   1  22
ATOM     20  C   UNL     1       6.051   4.818  18.365  0.00  0.00    +0.000 C 
ATOM     21  C   UNL     1       5.371   6.142  18.109  0.00  0.00    +0.000 C 
ATOM     22  N   UNL     1       4.029   5.896  18.536  0.00  0.00    +0.000 N 
ATOM     23  C   UNL     1       3.806   4.526  18.562  0.00  0.00    +0.000 C 
ATOM     24  O   UNL     1       2.760   3.923  18.734  0.00  0.00    +0.000 OA
ATOM     25  O   UNL     1       4.980   3.866  18.281  0.00  0.00    +0.000 OA
BRANCH  20  26
ATOM     26  C   UNL     1       7.129   4.536  17.317  0.00  0.00    +0.000 C 
BRANCH  26  30
ATOM     27  C   UNL     1       6.302   3.893  13.682  0.00  0.00    +0.000 C 
ATOM     28  C   UNL     1       6.895   4.610  14.863  0.00  0.00    +0.000 C 
ATOM     29  O   UNL     1       7.591   5.614  14.757  0.00  0.00    +0.000 OA
ATOM     30  N   UNL     1       6.591   4.025  16.071  0.00  0.00    +0.000 N 
ATOM     31  H   UNL     1       6.097   3.141  16.084  0.00  0.00    +0.000 HD
ENDBRANCH  26  30
ENDBRANCH  20  26
ENDBRANCH   1  22
BRANCH  13  32
ATOM     32  C   UNL     1      -2.036  14.633  22.545  0.00  0.00    +0.000 C 
BRANCH  32  33
ATOM     33  O   UNL     1      -2.055  13.886  23.759  0.00  0.00    +0.000 OA
ATOM     34  H   UNL     1      -2.503  13.041  23.563  0.00  0.00    +0.000 HD
ENDBRANCH  32  33
BRANCH  32  35
ATOM     35  C   UNL     1      -0.899  15.673  22.553  0.00  0.00    +0.000 C 
BRANCH  35  36
ATOM     36  O   UNL     1       0.331  15.121  23.021  0.00  0.00    +0.000 OA
ATOM     37  H   UNL     1       0.892  15.890  23.271  0.00  0.00    +0.000 HD
ENDBRANCH  35  36
ENDBRANCH  32  35
ENDBRANCH  13  32
TORSDOF 7
ENDMDL
MODEL 5
REMARK VINA RESULT:      -7.8      1.566      2.456
REMARK  Name = 
REMARK  8 active torsions:
REMARK  status: ('A' for Active; 'I' for Inactive)
REMARK    1  A    between atoms: C_1  and  C_2
REMARK    2  A    between atoms: N_4  and  C_5
REMARK    3  A    between atoms: C_5  and  C_6
REMARK    4  A    between atoms: N_8  and  C_9
REMARK    5  A    between atoms: C_21  and  C_23
REMARK    6  A    between atoms: C_23  and  O_24
REMARK    7  A    between atoms: C_23  and  C_25
REMARK    8  A    between atoms: C_25  and  O_26
REMARK                            x       y       z     vdW  Elec       q    Type
REMARK                         _______ _______ _______ _____ _____    ______ ____
ROOT
ATOM      1  C   UNL     1       2.513   6.825  19.267  0.00  0.00    +0.000 A 
ATOM      2  C   UNL     1       1.977   6.677  20.553  0.00  0.00    +0.000 A 
ATOM      3  C   UNL     1       1.275   7.717  21.169  0.00  0.00    +0.000 A 
ATOM      4  C   UNL     1       1.070   8.915  20.488  0.00  0.00    +0.000 A 
ATOM      5  C   UNL     1       1.622   9.101  19.202  0.00  0.00    +0.000 A 
ATOM      6  C   UNL     1       2.358   8.062  18.619  0.00  0.00    +0.000 A 
ATOM      7  C   UNL     1       1.367  10.380  18.425  0.00  0.00    +0.000 C 
ATOM      8  C   UNL     1      -0.075  10.529  17.895  0.00  0.00    +0.000 C 
ATOM      9  C   UNL     1      -1.198  10.093  18.852  0.00  0.00    +0.000 C 
ATOM     10  C   UNL     1      -0.910  10.480  20.261  0.00  0.00    +0.000 A 
ATOM     11  C   UNL     1      -1.456  11.460  21.129  0.00  0.00    +0.000 A 
ATOM     12  N   UNL     1      -2.488  12.326  20.827  0.00  0.00    +0.000 N 
ATOM     13  C   UNL     1      -2.884  13.351  21.669  0.00  0.00    +0.000 C 
ATOM     14  O   UNL     1      -2.388  13.651  22.748  0.00  0.00    +0.000 OA
ATOM     15  N   UNL     1      -0.818  11.453  22.300  0.00  0.00    +0.000 NA
ATOM     16  N   UNL     1       0.129  10.517  22.190  0.00  0.00    +0.000 N 
ATOM     17  C   UNL     1       0.122   9.898  20.980  0.00  0.00    +0.000 A 
ATOM     18  H   UNL     1      -2.961  12.213  19.941  0.00  0.00    +0.000 HD
ATOM     19  H   UNL     1       0.769  10.388  22.965  0.00  0.00    +0.000 HD
ENDROOT
BRANCH   1  22
ATOM     20  C   UNL     1       4.810   4.277  17.979  0.00  0.00    +0.000 C 
ATOM     21  C   UNL     1       4.600   5.672  18.519  0.00  0.00    +0.000 C 
ATOM     22  N   UNL     1       3.177   5.764  18.611  0.00  0.00    +0.000 N 
ATOM     23  C   UNL     1       2.606   4.798  17.793  0.00  0.00    +0.000 C 
ATOM     24  O   UNL     1       1.435   4.645  17.490  0.00  0.00    +0.000 OA
ATOM     25  O   UNL     1       3.597   4.007  17.261  0.00  0.00    +0.000 OA
BRANCH  20  26
ATOM     26  C   UNL     1       6.028   4.217  17.056  0.00  0.00    +0.000 C 
BRANCH  26  30
ATOM     27  C   UNL     1       5.960   3.817  13.294  0.00  0.00    +0.000 C 
ATOM     28  C   UNL     1       6.423   4.343  14.625  0.00  0.00    +0.000 C 
ATOM     29  O   UNL     1       7.370   5.112  14.748  0.00  0.00    +0.000 OA
ATOM     30  N   UNL     1       5.688   3.872  15.688  0.00  0.00    +0.000 N 
ATOM     31  H   UNL     1       4.984   3.162  15.529  0.00  0.00    +0.000 HD
ENDBRANCH  26  30
ENDBRANCH  20  26
ENDBRANCH   1  22
BRANCH  13  32
ATOM     32  C   UNL     1      -4.049  14.176  21.107  0.00  0.00    +0.000 C 
BRANCH  32  33
ATOM     33  O   UNL     1      -5.105  14.279  22.061  0.00  0.00    +0.000 OA
ATOM     34  H   UNL     1      -5.060  13.480  22.619  0.00  0.00    +0.000 HD
ENDBRANCH  32  33
BRANCH  32  35
ATOM     35  C   UNL     1      -3.539  15.569  20.693  0.00  0.00    +0.000 C 
BRANCH  35  36
ATOM     36  O   UNL     1      -2.197  15.528  20.210  0.00  0.00    +0.000 OA
ATOM     37  H   UNL     1      -2.063  16.370  19.718  0.00  0.00    +0.000 HD
ENDBRANCH  35  36
ENDBRANCH  32  35
ENDBRANCH  13  32
TORSDOF 7
ENDMDL
MODEL 6
REMARK VINA RESULT:      -7.7      1.945      2.721
REMARK  Name = 
REMARK  8 active torsions:
REMARK  status: ('A' for Active; 'I' for Inactive)
REMARK    1  A    between atoms: C_1  and  C_2
REMARK    2  A    between atoms: N_4  and  C_5
REMARK    3  A    between atoms: C_5  and  C_6
REMARK    4  A    between atoms: N_8  and  C_9
REMARK    5  A    between atoms: C_21  and  C_23
REMARK    6  A    between atoms: C_23  and  O_24
REMARK    7  A    between atoms: C_23  and  C_25
REMARK    8  A    between atoms: C_25  and  O_26
REMARK                            x       y       z     vdW  Elec       q    Type
REMARK                         _______ _______ _______ _____ _____    ______ ____
ROOT
ATOM      1  C   UNL     1       3.066   6.171  18.470  0.00  0.00    +0.000 A 
ATOM      2  C   UNL     1       2.654   5.839  19.767  0.00  0.00    +0.000 A 
ATOM      3  C   UNL     1       2.055   6.788  20.602  0.00  0.00    +0.000 A 
ATOM      4  C   UNL     1       1.829   8.080  20.133  0.00  0.00    +0.000 A 
ATOM      5  C   UNL     1       2.260   8.449  18.841  0.00  0.00    +0.000 A 
ATOM      6  C   UNL     1       2.895   7.496  18.036  0.00  0.00    +0.000 A 
ATOM      7  C   UNL     1       1.977   9.838  18.295  0.00  0.00    +0.000 C 
ATOM      8  C   UNL     1       0.497  10.099  17.944  0.00  0.00    +0.000 C 
ATOM      9  C   UNL     1      -0.542   9.545  18.935  0.00  0.00    +0.000 C 
ATOM     10  C   UNL     1      -0.103   9.705  20.349  0.00  0.00    +0.000 A 
ATOM     11  C   UNL     1      -0.524  10.552  21.406  0.00  0.00    +0.000 A 
ATOM     12  N   UNL     1      -1.547  11.477  21.346  0.00  0.00    +0.000 N 
ATOM     13  C   UNL     1      -1.821  12.368  22.369  0.00  0.00    +0.000 C 
ATOM     14  O   UNL     1      -1.209  12.488  23.424  0.00  0.00    +0.000 OA
ATOM     15  N   UNL     1       0.225  10.350  22.491  0.00  0.00    +0.000 NA
ATOM     16  N   UNL     1       1.121   9.422  22.145  0.00  0.00    +0.000 N 
ATOM     17  C   UNL     1       0.972   8.997  20.862  0.00  0.00    +0.000 A 
ATOM     18  H   UNL     1      -2.109  11.511  20.506  0.00  0.00    +0.000 HD
ATOM     19  H   UNL     1       1.829   9.161  22.822  0.00  0.00    +0.000 HD
ENDROOT
BRANCH   1  22
ATOM     20  C   UNL     1       5.143   4.020  16.352  0.00  0.00    +0.000 C 
ATOM     21  C   UNL     1       4.878   5.386  16.937  0.00  0.00    +0.000 C 
ATOM     22  N   UNL     1       3.622   5.209  17.597  0.00  0.00    +0.000 N 
ATOM     23  C   UNL     1       2.990   4.088  17.075  0.00  0.00    +0.000 C 
ATOM     24  O   UNL     1       1.854   3.689  17.271  0.00  0.00    +0.000 OA
ATOM     25  O   UNL     1       3.830   3.463  16.184  0.00  0.00    +0.000 OA
BRANCH  20  26
ATOM     26  C   UNL     1       5.879   4.121  15.016  0.00  0.00    +0.000 C 
BRANCH  26  30
ATOM     27  C   UNL     1       4.523   3.260  11.590  0.00  0.00    +0.000 C 
ATOM     28  C   UNL     1       5.557   3.612  12.624  0.00  0.00    +0.000 C 
ATOM     29  O   UNL     1       6.754   3.685  12.376  0.00  0.00    +0.000 OA
ATOM     30  N   UNL     1       5.029   3.835  13.875  0.00  0.00    +0.000 N 
ATOM     31  H   UNL     1       4.045   3.661  14.037  0.00  0.00    +0.000 HD
ENDBRANCH  26  30
ENDBRANCH  20  26
ENDBRANCH   1  22
BRANCH  13  32
ATOM     32  C   UNL     1      -3.003  13.295  22.060  0.00  0.00    +0.000 C 
BRANCH  32  33
ATOM     33  O   UNL     1      -3.064  14.370  22.996  0.00  0.00    +0.000 OA
ATOM     34  H   UNL     1      -3.746  14.133  23.653  0.00  0.00    +0.000 HD
ENDBRANCH  32  33
BRANCH  32  35
ATOM     35  C   UNL     1      -2.879  13.823  20.618  0.00  0.00    +0.000 C 
BRANCH  35  36
ATOM     36  O   UNL     1      -3.613  13.026  19.689  0.00  0.00    +0.000 OA
ATOM     37  H   UNL     1      -4.329  13.607  19.345  0.00  0.00    +0.000 HD
ENDBRANCH  35  36
ENDBRANCH  32  35
ENDBRANCH  13  32
TORSDOF 7
ENDMDL
MODEL 7
REMARK VINA RESULT:      -7.7      1.812      2.553
REMARK  Name = 
REMARK  8 active torsions:
REMARK  status: ('A' for Active; 'I' for Inactive)
REMARK    1  A    between atoms: C_1  and  C_2
REMARK    2  A    between atoms: N_4  and  C_5
REMARK    3  A    between atoms: C_5  and  C_6
REMARK    4  A    between atoms: N_8  and  C_9
REMARK    5  A    between atoms: C_21  and  C_23
REMARK    6  A    between atoms: C_23  and  O_24
REMARK    7  A    between atoms: C_23  and  C_25
REMARK    8  A    between atoms: C_25  and  O_26
REMARK                            x       y       z     vdW  Elec       q    Type
REMARK                         _______ _______ _______ _____ _____    ______ ____
ROOT
ATOM      1  C   UNL     1       2.390   6.130  19.130  0.00  0.00    +0.000 A 
ATOM      2  C   UNL     1       1.916   5.970  20.438  0.00  0.00    +0.000 A 
ATOM      3  C   UNL     1       1.398   7.051  21.158  0.00  0.00    +0.000 A 
ATOM      4  C   UNL     1       1.316   8.307  20.561  0.00  0.00    +0.000 A 
ATOM      5  C   UNL     1       1.812   8.502  19.254  0.00  0.00    +0.000 A 
ATOM      6  C   UNL     1       2.366   7.416  18.565  0.00  0.00    +0.000 A 
ATOM      7  C   UNL     1       1.686   9.851  18.569  0.00  0.00    +0.000 C 
ATOM      8  C   UNL     1       0.248  10.222  18.146  0.00  0.00    +0.000 C 
ATOM      9  C   UNL     1      -0.865   9.876  19.150  0.00  0.00    +0.000 C 
ATOM     10  C   UNL     1      -0.444  10.129  20.556  0.00  0.00    +0.000 A 
ATOM     11  C   UNL     1      -0.801  11.114  21.513  0.00  0.00    +0.000 A 
ATOM     12  N   UNL     1      -1.723  12.125  21.331  0.00  0.00    +0.000 N 
ATOM     13  C   UNL     1      -1.928  13.136  22.254  0.00  0.00    +0.000 C 
ATOM     14  O   UNL     1      -1.332  13.298  23.312  0.00  0.00    +0.000 OA
ATOM     15  N   UNL     1      -0.102  10.947  22.637  0.00  0.00    +0.000 NA
ATOM     16  N   UNL     1       0.702   9.904  22.410  0.00  0.00    +0.000 N 
ATOM     17  C   UNL     1       0.540   9.372  21.170  0.00  0.00    +0.000 A 
ATOM     18  H   UNL     1      -2.258  12.132  20.473  0.00  0.00    +0.000 HD
ATOM     19  H   UNL     1       1.364   9.642  23.132  0.00  0.00    +0.000 HD
ENDROOT
BRANCH   1  22
ATOM     20  C   UNL     1       4.259   3.426  17.510  0.00  0.00    +0.000 C 
ATOM     21  C   UNL     1       4.252   4.813  18.107  0.00  0.00    +0.000 C 
ATOM     22  N   UNL     1       2.865   5.036  18.372  0.00  0.00    +0.000 N 
ATOM     23  C   UNL     1       2.110   4.159  17.604  0.00  0.00    +0.000 C 
ATOM     24  O   UNL     1       0.902   4.129  17.441  0.00  0.00    +0.000 OA
ATOM     25  O   UNL     1       2.949   3.298  16.937  0.00  0.00    +0.000 OA
BRANCH  20  26
ATOM     26  C   UNL     1       5.348   3.285  16.446  0.00  0.00    +0.000 C 
BRANCH  26  30
ATOM     27  C   UNL     1       7.614   6.240  15.776  0.00  0.00    +0.000 C 
ATOM     28  C   UNL     1       7.194   4.917  16.357  0.00  0.00    +0.000 C 
ATOM     29  O   UNL     1       7.933   4.224  17.047  0.00  0.00    +0.000 OA
ATOM     30  N   UNL     1       5.907   4.558  16.032  0.00  0.00    +0.000 N 
ATOM     31  H   UNL     1       5.384   5.126  15.376  0.00  0.00    +0.000 HD
ENDBRANCH  26  30
ENDBRANCH  20  26
ENDBRANCH   1  22
BRANCH  13  32
ATOM     32  C   UNL     1      -3.002  14.141  21.819  0.00  0.00    +0.000 C 
BRANCH  32  33
ATOM     33  O   UNL     1      -2.859  14.473  20.439  0.00  0.00    +0.000 OA
ATOM     34  H   UNL     1      -1.979  14.882  20.337  0.00  0.00    +0.000 HD
ENDBRANCH  32  33
BRANCH  32  35
ATOM     35  C   UNL     1      -4.398  13.556  22.106  0.00  0.00    +0.000 C 
BRANCH  35  36
ATOM     36  O   UNL     1      -4.335  12.395  22.933  0.00  0.00    +0.000 OA
ATOM     37  H   UNL     1      -5.032  11.787  22.595  0.00  0.00    +0.000 HD
ENDBRANCH  35  36
ENDBRANCH  32  35
ENDBRANCH  13  32
TORSDOF 7
ENDMDL
MODEL 8
REMARK VINA RESULT:      -7.7      1.711      2.454
REMARK  Name = 
REMARK  8 active torsions:
REMARK  status: ('A' for Active; 'I' for Inactive)
REMARK    1  A    between atoms: C_1  and  C_2
REMARK    2  A    between atoms: N_4  and  C_5
REMARK    3  A    between atoms: C_5  and  C_6
REMARK    4  A    between atoms: N_8  and  C_9
REMARK    5  A    between atoms: C_21  and  C_23
REMARK    6  A    between atoms: C_23  and  O_24
REMARK    7  A    between atoms: C_23  and  C_25
REMARK    8  A    between atoms: C_25  and  O_26
REMARK                            x       y       z     vdW  Elec       q    Type
REMARK                         _______ _______ _______ _____ _____    ______ ____
ROOT
ATOM      1  C   UNL     1       2.577   6.338  18.823  0.00  0.00    +0.000 A 
ATOM      2  C   UNL     1       2.209   6.187  20.166  0.00  0.00    +0.000 A 
ATOM      3  C   UNL     1       1.663   7.251  20.891  0.00  0.00    +0.000 A 
ATOM      4  C   UNL     1       1.443   8.476  20.266  0.00  0.00    +0.000 A 
ATOM      5  C   UNL     1       1.830   8.664  18.921  0.00  0.00    +0.000 A 
ATOM      6  C   UNL     1       2.415   7.599  18.225  0.00  0.00    +0.000 A 
ATOM      7  C   UNL     1       1.553   9.976  18.209  0.00  0.00    +0.000 C 
ATOM      8  C   UNL     1       0.065  10.225  17.882  0.00  0.00    +0.000 C 
ATOM      9  C   UNL     1      -0.944   9.831  18.974  0.00  0.00    +0.000 C 
ATOM     10  C   UNL     1      -0.447  10.162  20.337  0.00  0.00    +0.000 A 
ATOM     11  C   UNL     1      -0.810  11.149  21.289  0.00  0.00    +0.000 A 
ATOM     12  N   UNL     1      -1.816  12.083  21.146  0.00  0.00    +0.000 N 
ATOM     13  C   UNL     1      -2.032  13.106  22.053  0.00  0.00    +0.000 C 
ATOM     14  O   UNL     1      -1.377  13.347  23.060  0.00  0.00    +0.000 OA
ATOM     15  N   UNL     1      -0.023  11.072  22.363  0.00  0.00    +0.000 NA
ATOM     16  N   UNL     1       0.841  10.085  22.109  0.00  0.00    +0.000 N 
ATOM     17  C   UNL     1       0.633   9.500  20.899  0.00  0.00    +0.000 A 
ATOM     18  H   UNL     1      -2.409  12.021  20.330  0.00  0.00    +0.000 HD
ATOM     19  H   UNL     1       1.570   9.897  22.788  0.00  0.00    +0.000 HD
ENDROOT
BRANCH   1  22
ATOM     20  C   UNL     1       4.475   3.962  16.778  0.00  0.00    +0.000 C 
ATOM     21  C   UNL     1       4.139   5.395  17.114  0.00  0.00    +0.000 C 
ATOM     22  N   UNL     1       3.079   5.257  18.063  0.00  0.00    +0.000 N 
ATOM     23  C   UNL     1       2.522   3.991  17.939  0.00  0.00    +0.000 C 
ATOM     24  O   UNL     1       1.518   3.541  18.465  0.00  0.00    +0.000 OA
ATOM     25  O   UNL     1       3.249   3.259  17.030  0.00  0.00    +0.000 OA
BRANCH  20  26
ATOM     26  C   UNL     1       4.907   3.821  15.318  0.00  0.00    +0.000 C 
BRANCH  26  30
ATOM     27  C   UNL     1       7.881   5.420  13.611  0.00  0.00    +0.000 C 
ATOM     28  C   UNL     1       6.732   4.466  13.790  0.00  0.00    +0.000 C 
ATOM     29  O   UNL     1       6.404   3.647  12.940  0.00  0.00    +0.000 OA
ATOM     30  N   UNL     1       6.081   4.609  14.993  0.00  0.00    +0.000 N 
ATOM     31  H   UNL     1       6.338   5.371  15.609  0.00  0.00    +0.000 HD
ENDBRANCH  26  30
ENDBRANCH  20  26
ENDBRANCH   1  22
BRANCH  13  32
ATOM     32  C   UNL     1      -3.207  14.014  21.669  0.00  0.00    +0.000 C 
BRANCH  32  33
ATOM     33  O   UNL     1      -3.344  14.097  20.251  0.00  0.00    +0.000 OA
ATOM     34  H   UNL     1      -2.538  14.535  19.916  0.00  0.00    +0.000 HD
ENDBRANCH  32  33
BRANCH  32  35
ATOM     35  C   UNL     1      -4.499  13.483  22.319  0.00  0.00    +0.000 C 
BRANCH  35  36
ATOM     36  O   UNL     1      -4.274  12.286  23.063  0.00  0.00    +0.000 OA
ATOM     37  H   UNL     1      -3.298  12.208  23.156  0.00  0.00    +0.000 HD
ENDBRANCH  35  36
ENDBRANCH  32  35
ENDBRANCH  13  32
TORSDOF 7
ENDMDL
MODEL 9
REMARK VINA RESULT:      -7.5      2.145     10.735
REMARK  Name = 
REMARK  8 active torsions:
REMARK  status: ('A' for Active; 'I' for Inactive)
REMARK    1  A    between atoms: C_1  and  C_2
REMARK    2  A    between atoms: N_4  and  C_5
REMARK    3  A    between atoms: C_5  and  C_6
REMARK    4  A    between atoms: N_8  and  C_9
REMARK    5  A    between atoms: C_21  and  C_23
REMARK    6  A    between atoms: C_23  and  O_24
REMARK    7  A    between atoms: C_23  and  C_25
REMARK    8  A    between atoms: C_25  and  O_26
REMARK                            x       y       z     vdW  Elec       q    Type
REMARK                         _______ _______ _______ _____ _____    ______ ____
ROOT
ATOM      1  C   UNL     1      -0.624  10.938  22.089  0.00  0.00    +0.000 A 
ATOM      2  C   UNL     1       0.147  10.074  22.877  0.00  0.00    +0.000 A 
ATOM      3  C   UNL     1       0.796   8.969  22.317  0.00  0.00    +0.000 A 
ATOM      4  C   UNL     1       0.709   8.734  20.947  0.00  0.00    +0.000 A 
ATOM      5  C   UNL     1      -0.084   9.573  20.135  0.00  0.00    +0.000 A 
ATOM      6  C   UNL     1      -0.761  10.649  20.722  0.00  0.00    +0.000 A 
ATOM      7  C   UNL     1      -0.151   9.362  18.633  0.00  0.00    +0.000 C 
ATOM      8  C   UNL     1       1.139   9.743  17.875  0.00  0.00    +0.000 C 
ATOM      9  C   UNL     1       2.463   9.343  18.548  0.00  0.00    +0.000 C 
ATOM     10  C   UNL     1       2.379   8.002  19.189  0.00  0.00    +0.000 A 
ATOM     11  C   UNL     1       2.930   6.735  18.864  0.00  0.00    +0.000 A 
ATOM     12  N   UNL     1       3.761   6.461  17.796  0.00  0.00    +0.000 N 
ATOM     13  C   UNL     1       4.155   5.180  17.455  0.00  0.00    +0.000 C 
ATOM     14  O   UNL     1       3.821   4.136  18.003  0.00  0.00    +0.000 OA
ATOM     15  N   UNL     1       2.518   5.811  19.733  0.00  0.00    +0.000 NA
ATOM     16  N   UNL     1       1.705   6.449  20.581  0.00  0.00    +0.000 N 
ATOM     17  C   UNL     1       1.583   7.773  20.299  0.00  0.00    +0.000 A 
ATOM     18  H   UNL     1       4.080   7.236  17.231  0.00  0.00    +0.000 HD
ATOM     19  H   UNL     1       1.237   5.906  21.298  0.00  0.00    +0.000 HD
ENDROOT
BRANCH   1  22
ATOM     20  C   UNL     1      -2.726  13.442  23.745  0.00  0.00    +0.000 C 
ATOM     21  C   UNL     1      -2.623  12.136  22.994  0.00  0.00    +0.000 C 
ATOM     22  N   UNL     1      -1.240  12.088  22.633  0.00  0.00    +0.000 N 
ATOM     23  C   UNL     1      -0.709  13.369  22.699  0.00  0.00    +0.000 C 
ATOM     24  O   UNL     1       0.385  13.765  22.335  0.00  0.00    +0.000 OA
ATOM     25  O   UNL     1      -1.657  14.231  23.199  0.00  0.00    +0.000 OA
BRANCH  20  26
ATOM     26  C   UNL     1      -4.082  14.109  23.515  0.00  0.00    +0.000 C 
BRANCH  26  30
ATOM     27  C   UNL     1      -6.889  12.354  21.683  0.00  0.00    +0.000 C 
ATOM     28  C   UNL     1      -6.175  12.991  22.843  0.00  0.00    +0.000 C 
ATOM     29  O   UNL     1      -6.685  13.128  23.949  0.00  0.00    +0.000 OA
ATOM     30  N   UNL     1      -4.901  13.412  22.541  0.00  0.00    +0.000 N 
ATOM     31  H   UNL     1      -4.576  13.361  21.583  0.00  0.00    +0.000 HD
ENDBRANCH  26  30
ENDBRANCH  20  26
ENDBRANCH   1  22
BRANCH  13  32
ATOM     32  C   UNL     1       5.075   5.138  16.228  0.00  0.00    +0.000 C 
BRANCH  32  33
ATOM     33  O   UNL     1       5.288   6.449  15.708  0.00  0.00    +0.000 OA
ATOM     34  H   UNL     1       4.422   6.770  15.391  0.00  0.00    +0.000 HD
ENDBRANCH  32  33
BRANCH  32  35
ATOM     35  C   UNL     1       6.411   4.471  16.611  0.00  0.00    +0.000 C 
BRANCH  35  36
ATOM     36  O   UNL     1       6.500   4.212  18.011  0.00  0.00    +0.000 OA
ATOM     37  H   UNL     1       6.127   5.007  18.455  0.00  0.00    +0.000 HD
ENDBRANCH  35  36
ENDBRANCH  32  35
ENDBRANCH  13  32
TORSDOF 7
ENDMDL
