MODEL 1
REMARK VINA RESULT:      -8.2      0.000      0.000
REMARK  Name = 
REMARK  10 active torsions:
REMARK  status: ('A' for Active; 'I' for Inactive)
REMARK    1  A    between atoms: C_1  and  O_2
REMARK    2  A    between atoms: O_2  and  C_3
REMARK    3  A    between atoms: C_6  and  C_7
REMARK    4  A    between atoms: C_10  and  C_11
REMARK    5  A    between atoms: C_11  and  S_12
REMARK    6  A    between atoms: S_12  and  C_13
REMARK    7  A    between atoms: C_16  and  C_17
REMARK    8  A    between atoms: N_23  and  C_24
REMARK    9  A    between atoms: C_32  and  O_33
REMARK   10  A    between atoms: O_33  and  C_34
REMARK                            x       y       z     vdW  Elec       q    Type
REMARK                         _______ _______ _______ _____ _____    ______ ____
ROOT
ATOM      1  S   UNL     1       5.356   4.375  16.817  0.00  0.00    +0.000 S 
ENDROOT
BRANCH   1   2
ATOM      2  C   UNL     1       4.318   5.751  17.026  0.00  0.00    +0.000 A 
ATOM      3  N   UNL     1       4.458   6.882  16.377  0.00  0.00    +0.000 NA
ATOM      4  N   UNL     1       3.620   7.806  16.947  0.00  0.00    +0.000 NA
ATOM      5  C   UNL     1       3.000   7.248  17.973  0.00  0.00    +0.000 A 
ATOM      6  N   UNL     1       3.286   5.869  17.944  0.00  0.00    +0.000 N 
BRANCH   5   7
ATOM      7  C   UNL     1       2.142   7.988  18.928  0.00  0.00    +0.000 A 
ATOM      8  C   UNL     1       1.994   7.534  20.242  0.00  0.00    +0.000 A 
ATOM      9  C   UNL     1       1.193   8.258  21.122  0.00  0.00    +0.000 A 
ATOM     10  N   UNL     1       0.547   9.392  20.792  0.00  0.00    +0.000 NA
ATOM     11  C   UNL     1       0.664   9.797  19.516  0.00  0.00    +0.000 A 
ATOM     12  C   UNL     1       1.411   9.124  18.559  0.00  0.00    +0.000 A 
ENDBRANCH   5   7
BRANCH   6  13
ATOM     13  C   UNL     1       2.586   4.884  18.774  0.00  0.00    +0.000 C 
ATOM     14  C   UNL     1       1.684   3.924  17.965  0.00  0.00    +0.000 C 
ATOM     15  C   UNL     1       2.454   2.764  17.349  0.00  0.00    +0.000 C 
ATOM     16  C   UNL     1       3.227   1.969  18.392  0.00  0.00    +0.000 C 
ATOM     17  C   UNL     1       4.061   2.833  19.326  0.00  0.00    +0.000 C 
ATOM     18  C   UNL     1       3.337   4.074  19.844  0.00  0.00    +0.000 C 
ENDBRANCH   6  13
ENDBRANCH   1   2
BRANCH   1  19
ATOM     19  C   UNL     1       6.982   5.042  16.361  0.00  0.00    +0.000 C 
BRANCH  19  23
ATOM     20  C   UNL     1       8.150   7.838  18.287  0.00  0.00    +0.000 A 
ATOM     21  N   UNL     1       8.316   6.890  19.198  0.00  0.00    +0.000 NA
ATOM     22  N   UNL     1       7.894   5.708  18.636  0.00  0.00    +0.000 NA
ATOM     23  C   UNL     1       7.496   5.984  17.415  0.00  0.00    +0.000 A 
ATOM     24  O   UNL     1       7.631   7.330  17.111  0.00  0.00    +0.000 OA
BRANCH  20  28
ATOM     25  C   UNL     1       8.973  12.073  18.539  0.00  0.00    +0.000 A 
ATOM     26  C   UNL     1       8.216  11.526  17.496  0.00  0.00    +0.000 A 
ATOM     27  C   UNL     1       7.962  10.152  17.434  0.00  0.00    +0.000 A 
ATOM     28  C   UNL     1       8.480   9.263  18.390  0.00  0.00    +0.000 A 
ATOM     29  C   UNL     1       9.301   9.806  19.387  0.00  0.00    +0.000 A 
ATOM     30  C   UNL     1       9.566  11.197  19.468  0.00  0.00    +0.000 A 
BRANCH  25  32
ATOM     31  C   UNL     1      10.177  13.983  17.795  0.00  0.00    +0.000 C 
ATOM     32  O   UNL     1       9.172  13.419  18.641  0.00  0.00    +0.000 OA
ENDBRANCH  25  32
BRANCH  30  33
ATOM     33  O   UNL     1      10.400  11.509  20.512  0.00  0.00    +0.000 OA
ATOM     34  C   UNL     1       9.914  12.327  21.569  0.00  0.00    +0.000 C 
ENDBRANCH  30  33
ENDBRANCH  20  28
ENDBRANCH  19  23
ENDBRANCH   1  19
TORSDOF 8
ENDMDL
MODEL 2
REMARK VINA RESULT:      -8.2      3.565      7.478
REMARK  Name = 
REMARK  10 active torsions:
REMARK  status: ('A' for Active; 'I' for Inactive)
REMARK    1  A    between atoms: C_1  and  O_2
REMARK    2  A    between atoms: O_2  and  C_3
REMARK    3  A    between atoms: C_6  and  C_7
REMARK    4  A    between atoms: C_10  and  C_11
REMARK    5  A    between atoms: C_11  and  S_12
REMARK    6  A    between atoms: S_12  and  C_13
REMARK    7  A    between atoms: C_16  and  C_17
REMARK    8  A    between atoms: N_23  and  C_24
REMARK    9  A    between atoms: C_32  and  O_33
REMARK   10  A    between atoms: O_33  and  C_34
REMARK                            x       y       z     vdW  Elec       q    Type
REMARK                         _______ _______ _______ _____ _____    ______ ____
ROOT
ATOM      1  S   UNL     1       1.438   8.840  20.260  0.00  0.00    +0.000 S 
ENDROOT
BRANCH   1   2
ATOM      2  C   UNL     1       0.772   9.871  21.487  0.00  0.00    +0.000 A 
ATOM      3  N   UNL     1       0.759   9.579  22.767  0.00  0.00    +0.000 NA
ATOM      4  N   UNL     1      -0.033  10.497  23.406  0.00  0.00    +0.000 NA
ATOM      5  C   UNL     1      -0.539  11.326  22.508  0.00  0.00    +0.000 A 
ATOM      6  N   UNL     1       0.103  11.068  21.280  0.00  0.00    +0.000 N 
BRANCH   5   7
ATOM      7  C   UNL     1      -1.570  12.348  22.808  0.00  0.00    +0.000 A 
ATOM      8  C   UNL     1      -1.211  13.553  23.419  0.00  0.00    +0.000 A 
ATOM      9  C   UNL     1      -2.199  14.502  23.676  0.00  0.00    +0.000 A 
ATOM     10  N   UNL     1      -3.497  14.340  23.361  0.00  0.00    +0.000 NA
ATOM     11  C   UNL     1      -3.837  13.162  22.811  0.00  0.00    +0.000 A 
ATOM     12  C   UNL     1      -2.931  12.143  22.549  0.00  0.00    +0.000 A 
ENDBRANCH   5   7
BRANCH   6  13
ATOM     13  C   UNL     1      -0.015  11.942  20.111  0.00  0.00    +0.000 C 
ATOM     14  C   UNL     1       0.701  13.302  20.281  0.00  0.00    +0.000 C 
ATOM     15  C   UNL     1       2.195  13.226  19.995  0.00  0.00    +0.000 C 
ATOM     16  C   UNL     1       2.486  12.674  18.606  0.00  0.00    +0.000 C 
ATOM     17  C   UNL     1       1.733  11.392  18.286  0.00  0.00    +0.000 C 
ATOM     18  C   UNL     1       0.261  11.412  18.695  0.00  0.00    +0.000 C 
ENDBRANCH   6  13
ENDBRANCH   1   2
BRANCH   1  19
ATOM     19  C   UNL     1       1.044   7.141  20.768  0.00  0.00    +0.000 C 
BRANCH  19  23
ATOM     20  C   UNL     1       3.705   5.415  19.085  0.00  0.00    +0.000 A 
ATOM     21  N   UNL     1       3.364   4.462  19.941  0.00  0.00    +0.000 NA
ATOM     22  N   UNL     1       2.337   4.956  20.711  0.00  0.00    +0.000 NA
ATOM     23  C   UNL     1       2.096   6.177  20.292  0.00  0.00    +0.000 A 
ATOM     24  O   UNL     1       2.930   6.547  19.248  0.00  0.00    +0.000 OA
BRANCH  20  28
ATOM     25  C   UNL     1       6.608   5.200  15.892  0.00  0.00    +0.000 A 
ATOM     26  C   UNL     1       5.732   4.144  16.169  0.00  0.00    +0.000 A 
ATOM     27  C   UNL     1       4.800   4.235  17.208  0.00  0.00    +0.000 A 
ATOM     28  C   UNL     1       4.726   5.368  18.034  0.00  0.00    +0.000 A 
ATOM     29  C   UNL     1       5.657   6.389  17.802  0.00  0.00    +0.000 A 
ATOM     30  C   UNL     1       6.607   6.316  16.751  0.00  0.00    +0.000 A 
BRANCH  25  32
ATOM     31  C   UNL     1       6.966   4.616  13.615  0.00  0.00    +0.000 C 
ATOM     32  O   UNL     1       7.477   5.144  14.842  0.00  0.00    +0.000 OA
ENDBRANCH  25  32
BRANCH  30  33
ATOM     33  O   UNL     1       7.425   7.417  16.710  0.00  0.00    +0.000 OA
ATOM     34  C   UNL     1       7.845   8.017  17.929  0.00  0.00    +0.000 C 
ENDBRANCH  30  33
ENDBRANCH  20  28
ENDBRANCH  19  23
ENDBRANCH   1  19
TORSDOF 8
ENDMDL
MODEL 3
REMARK VINA RESULT:      -8.0      3.733      7.396
REMARK  Name = 
REMARK  10 active torsions:
REMARK  status: ('A' for Active; 'I' for Inactive)
REMARK    1  A    between atoms: C_1  and  O_2
REMARK    2  A    between atoms: O_2  and  C_3
REMARK    3  A    between atoms: C_6  and  C_7
REMARK    4  A    between atoms: C_10  and  C_11
REMARK    5  A    between atoms: C_11  and  S_12
REMARK    6  A    between atoms: S_12  and  C_13
REMARK    7  A    between atoms: C_16  and  C_17
REMARK    8  A    between atoms: N_23  and  C_24
REMARK    9  A    between atoms: C_32  and  O_33
REMARK   10  A    between atoms: O_33  and  C_34
REMARK                            x       y       z     vdW  Elec       q    Type
REMARK                         _______ _______ _______ _____ _____    ______ ____
ROOT
ATOM      1  S   UNL     1       1.691   8.837  20.937  0.00  0.00    +0.000 S 
ENDROOT
BRANCH   1   2
ATOM      2  C   UNL     1       0.674   9.954  21.793  0.00  0.00    +0.000 A 
ATOM      3  N   UNL     1       0.565   9.995  23.100  0.00  0.00    +0.000 NA
ATOM      4  N   UNL     1      -0.478  10.830  23.414  0.00  0.00    +0.000 NA
ATOM      5  C   UNL     1      -1.031  11.264  22.293  0.00  0.00    +0.000 A 
ATOM      6  N   UNL     1      -0.201  10.867  21.226  0.00  0.00    +0.000 N 
BRANCH   5   7
ATOM      7  C   UNL     1      -2.284  12.054  22.238  0.00  0.00    +0.000 A 
ATOM      8  C   UNL     1      -3.008  12.310  23.406  0.00  0.00    +0.000 A 
ATOM      9  C   UNL     1      -4.175  13.069  23.326  0.00  0.00    +0.000 A 
ATOM     10  N   UNL     1      -4.655  13.591  22.183  0.00  0.00    +0.000 NA
ATOM     11  C   UNL     1      -3.973  13.306  21.061  0.00  0.00    +0.000 A 
ATOM     12  C   UNL     1      -2.821  12.530  21.035  0.00  0.00    +0.000 A 
ENDBRANCH   5   7
BRANCH   6  13
ATOM     13  C   UNL     1      -0.354  11.369  19.858  0.00  0.00    +0.000 C 
ATOM     14  C   UNL     1       0.494  12.628  19.563  0.00  0.00    +0.000 C 
ATOM     15  C   UNL     1       1.939  12.302  19.215  0.00  0.00    +0.000 C 
ATOM     16  C   UNL     1       2.044  11.339  18.040  0.00  0.00    +0.000 C 
ATOM     17  C   UNL     1       1.152  10.113  18.172  0.00  0.00    +0.000 C 
ATOM     18  C   UNL     1      -0.265  10.420  18.652  0.00  0.00    +0.000 C 
ENDBRANCH   6  13
ENDBRANCH   1   2
BRANCH   1  19
ATOM     19  C   UNL     1       0.890   7.214  21.090  0.00  0.00    +0.000 C 
BRANCH  19  23
ATOM     20  C   UNL     1       3.334   5.207  19.391  0.00  0.00    +0.000 A 
ATOM     21  N   UNL     1       2.701   4.238  20.037  0.00  0.00    +0.000 NA
ATOM     22  N   UNL     1       1.708   4.829  20.782  0.00  0.00    +0.000 NA
ATOM     23  C   UNL     1       1.775   6.122  20.556  0.00  0.00    +0.000 A 
ATOM     24  O   UNL     1       2.792   6.447  19.671  0.00  0.00    +0.000 OA
BRANCH  20  28
ATOM     25  C   UNL     1       6.512   4.846  16.484  0.00  0.00    +0.000 A 
ATOM     26  C   UNL     1       5.342   4.083  16.401  0.00  0.00    +0.000 A 
ATOM     27  C   UNL     1       4.325   4.216  17.353  0.00  0.00    +0.000 A 
ATOM     28  C   UNL     1       4.449   5.090  18.445  0.00  0.00    +0.000 A 
ATOM     29  C   UNL     1       5.654   5.793  18.566  0.00  0.00    +0.000 A 
ATOM     30  C   UNL     1       6.694   5.674  17.609  0.00  0.00    +0.000 A 
BRANCH  25  32
ATOM     31  C   UNL     1       7.048   4.894  14.169  0.00  0.00    +0.000 C 
ATOM     32  O   UNL     1       7.480   4.768  15.526  0.00  0.00    +0.000 OA
ENDBRANCH  25  32
BRANCH  30  33
ATOM     33  O   UNL     1       7.786   6.442  17.926  0.00  0.00    +0.000 OA
ATOM     34  C   UNL     1       7.767   7.833  17.633  0.00  0.00    +0.000 C 
ENDBRANCH  30  33
ENDBRANCH  20  28
ENDBRANCH  19  23
ENDBRANCH   1  19
TORSDOF 8
ENDMDL
MODEL 4
REMARK VINA RESULT:      -7.9      5.164      9.260
REMARK  Name = 
REMARK  10 active torsions:
REMARK  status: ('A' for Active; 'I' for Inactive)
REMARK    1  A    between atoms: C_1  and  O_2
REMARK    2  A    between atoms: O_2  and  C_3
REMARK    3  A    between atoms: C_6  and  C_7
REMARK    4  A    between atoms: C_10  and  C_11
REMARK    5  A    between atoms: C_11  and  S_12
REMARK    6  A    between atoms: S_12  and  C_13
REMARK    7  A    between atoms: C_16  and  C_17
REMARK    8  A    between atoms: N_23  and  C_24
REMARK    9  A    between atoms: C_32  and  O_33
REMARK   10  A    between atoms: O_33  and  C_34
REMARK                            x       y       z     vdW  Elec       q    Type
REMARK                         _______ _______ _______ _____ _____    ______ ____
ROOT
ATOM      1  S   UNL     1       0.140  11.858  19.066  0.00  0.00    +0.000 S 
ENDROOT
BRANCH   1   2
ATOM      2  C   UNL     1      -1.502  11.372  18.786  0.00  0.00    +0.000 A 
ATOM      3  N   UNL     1      -1.851  10.372  18.011  0.00  0.00    +0.000 NA
ATOM      4  N   UNL     1      -3.212  10.416  17.845  0.00  0.00    +0.000 NA
ATOM      5  C   UNL     1      -3.688  11.471  18.486  0.00  0.00    +0.000 A 
ATOM      6  N   UNL     1      -2.639  12.009  19.258  0.00  0.00    +0.000 N 
BRANCH   5   7
ATOM      7  C   UNL     1      -5.093  11.933  18.396  0.00  0.00    +0.000 A 
ATOM      8  C   UNL     1      -5.975  11.719  19.460  0.00  0.00    +0.000 A 
ATOM      9  C   UNL     1      -7.287  12.178  19.353  0.00  0.00    +0.000 A 
ATOM     10  N   UNL     1      -7.769  12.833  18.282  0.00  0.00    +0.000 NA
ATOM     11  C   UNL     1      -6.925  12.998  17.250  0.00  0.00    +0.000 A 
ATOM     12  C   UNL     1      -5.612  12.546  17.249  0.00  0.00    +0.000 A 
ENDBRANCH   5   7
BRANCH   6  13
ATOM     13  C   UNL     1      -2.841  13.033  20.286  0.00  0.00    +0.000 C 
ATOM     14  C   UNL     1      -3.150  12.452  21.686  0.00  0.00    +0.000 C 
ATOM     15  C   UNL     1      -1.899  12.028  22.442  0.00  0.00    +0.000 C 
ATOM     16  C   UNL     1      -0.898  13.168  22.580  0.00  0.00    +0.000 C 
ATOM     17  C   UNL     1      -0.611  13.893  21.275  0.00  0.00    +0.000 C 
ATOM     18  C   UNL     1      -1.855  14.202  20.444  0.00  0.00    +0.000 C 
ENDBRANCH   6  13
ENDBRANCH   1   2
BRANCH   1  19
ATOM     19  C   UNL     1       1.177  10.588  18.286  0.00  0.00    +0.000 C 
BRANCH  19  23
ATOM     20  C   UNL     1       2.035   7.471  19.850  0.00  0.00    +0.000 A 
ATOM     21  N   UNL     1       1.400   8.033  20.869  0.00  0.00    +0.000 NA
ATOM     22  N   UNL     1       0.997   9.282  20.457  0.00  0.00    +0.000 NA
ATOM     23  C   UNL     1       1.398   9.425  19.214  0.00  0.00    +0.000 A 
ATOM     24  O   UNL     1       2.070   8.305  18.748  0.00  0.00    +0.000 OA
BRANCH  20  28
ATOM     25  C   UNL     1       3.629   3.459  19.658  0.00  0.00    +0.000 A 
ATOM     26  C   UNL     1       2.634   3.819  20.575  0.00  0.00    +0.000 A 
ATOM     27  C   UNL     1       2.132   5.123  20.620  0.00  0.00    +0.000 A 
ATOM     28  C   UNL     1       2.626   6.131  19.776  0.00  0.00    +0.000 A 
ATOM     29  C   UNL     1       3.675   5.786  18.915  0.00  0.00    +0.000 A 
ATOM     30  C   UNL     1       4.193   4.467  18.853  0.00  0.00    +0.000 A 
BRANCH  25  32
ATOM     31  C   UNL     1       3.560   1.391  18.488  0.00  0.00    +0.000 C 
ATOM     32  O   UNL     1       4.078   2.174  19.566  0.00  0.00    +0.000 OA
ENDBRANCH  25  32
BRANCH  30  33
ATOM     33  O   UNL     1       5.221   4.352  17.950  0.00  0.00    +0.000 OA
ATOM     34  C   UNL     1       6.530   4.755  18.333  0.00  0.00    +0.000 C 
ENDBRANCH  30  33
ENDBRANCH  20  28
ENDBRANCH  19  23
ENDBRANCH   1  19
TORSDOF 8
ENDMDL
MODEL 5
REMARK VINA RESULT:      -7.9      1.100      1.791
REMARK  Name = 
REMARK  10 active torsions:
REMARK  status: ('A' for Active; 'I' for Inactive)
REMARK    1  A    between atoms: C_1  and  O_2
REMARK    2  A    between atoms: O_2  and  C_3
REMARK    3  A    between atoms: C_6  and  C_7
REMARK    4  A    between atoms: C_10  and  C_11
REMARK    5  A    between atoms: C_11  and  S_12
REMARK    6  A    between atoms: S_12  and  C_13
REMARK    7  A    between atoms: C_16  and  C_17
REMARK    8  A    between atoms: N_23  and  C_24
REMARK    9  A    between atoms: C_32  and  O_33
REMARK   10  A    between atoms: O_33  and  C_34
REMARK                            x       y       z     vdW  Elec       q    Type
REMARK                         _______ _______ _______ _____ _____    ______ ____
ROOT
ATOM      1  S   UNL     1       5.526   4.723  17.503  0.00  0.00    +0.000 S 
ENDROOT
BRANCH   1   2
ATOM      2  C   UNL     1       4.355   6.005  17.501  0.00  0.00    +0.000 A 
ATOM      3  N   UNL     1       4.423   7.061  16.725  0.00  0.00    +0.000 NA
ATOM      4  N   UNL     1       3.474   7.958  17.144  0.00  0.00    +0.000 NA
ATOM      5  C   UNL     1       2.854   7.464  18.204  0.00  0.00    +0.000 A 
ATOM      6  N   UNL     1       3.269   6.126  18.354  0.00  0.00    +0.000 N 
BRANCH   5   7
ATOM      7  C   UNL     1       1.881   8.222  19.025  0.00  0.00    +0.000 A 
ATOM      8  C   UNL     1       1.684   7.890  20.369  0.00  0.00    +0.000 A 
ATOM      9  C   UNL     1       0.773   8.630  21.122  0.00  0.00    +0.000 A 
ATOM     10  N   UNL     1       0.066   9.668  20.638  0.00  0.00    +0.000 NA
ATOM     11  C   UNL     1       0.234   9.952  19.336  0.00  0.00    +0.000 A 
ATOM     12  C   UNL     1       1.091   9.251  18.498  0.00  0.00    +0.000 A 
ENDBRANCH   5   7
BRANCH   6  13
ATOM     13  C   UNL     1       2.621   5.181  19.266  0.00  0.00    +0.000 C 
ATOM     14  C   UNL     1       1.579   4.270  18.576  0.00  0.00    +0.000 C 
ATOM     15  C   UNL     1       2.209   3.071  17.880  0.00  0.00    +0.000 C 
ATOM     16  C   UNL     1       3.056   2.235  18.831  0.00  0.00    +0.000 C 
ATOM     17  C   UNL     1       4.039   3.053  19.654  0.00  0.00    +0.000 C 
ATOM     18  C   UNL     1       3.448   4.332  20.245  0.00  0.00    +0.000 C 
ENDBRANCH   6  13
ENDBRANCH   1   2
BRANCH   1  19
ATOM     19  C   UNL     1       6.902   5.307  18.535  0.00  0.00    +0.000 C 
BRANCH  19  23
ATOM     20  C   UNL     1       8.280   8.583  18.024  0.00  0.00    +0.000 A 
ATOM     21  N   UNL     1       8.168   8.218  16.754  0.00  0.00    +0.000 NA
ATOM     22  N   UNL     1       7.657   6.941  16.743  0.00  0.00    +0.000 NA
ATOM     23  C   UNL     1       7.477   6.588  17.995  0.00  0.00    +0.000 A 
ATOM     24  O   UNL     1       7.850   7.588  18.881  0.00  0.00    +0.000 OA
BRANCH  20  28
ATOM     25  C   UNL     1       9.777  12.285  19.674  0.00  0.00    +0.000 A 
ATOM     26  C   UNL     1       9.835  11.081  20.384  0.00  0.00    +0.000 A 
ATOM     27  C   UNL     1       9.345   9.893  19.830  0.00  0.00    +0.000 A 
ATOM     28  C   UNL     1       8.745   9.865  18.561  0.00  0.00    +0.000 A 
ATOM     29  C   UNL     1       8.619  11.087  17.888  0.00  0.00    +0.000 A 
ATOM     30  C   UNL     1       9.115  12.300  18.431  0.00  0.00    +0.000 A 
BRANCH  25  32
ATOM     31  C   UNL     1       9.859  13.832  21.478  0.00  0.00    +0.000 C 
ATOM     32  O   UNL     1      10.311  13.434  20.181  0.00  0.00    +0.000 OA
ENDBRANCH  25  32
BRANCH  30  33
ATOM     33  O   UNL     1       8.877  13.375  17.611  0.00  0.00    +0.000 OA
ATOM     34  C   UNL     1       7.728  14.181  17.837  0.00  0.00    +0.000 C 
ENDBRANCH  30  33
ENDBRANCH  20  28
ENDBRANCH  19  23
ENDBRANCH   1  19
TORSDOF 8
ENDMDL
MODEL 6
REMARK VINA RESULT:      -7.8      5.358      9.259
REMARK  Name = 
REMARK  10 active torsions:
REMARK  status: ('A' for Active; 'I' for Inactive)
REMARK    1  A    between atoms: C_1  and  O_2
REMARK    2  A    between atoms: O_2  and  C_3
REMARK    3  A    between atoms: C_6  and  C_7
REMARK    4  A    between atoms: C_10  and  C_11
REMARK    5  A    between atoms: C_11  and  S_12
REMARK    6  A    between atoms: S_12  and  C_13
REMARK    7  A    between atoms: C_16  and  C_17
REMARK    8  A    between atoms: N_23  and  C_24
REMARK    9  A    between atoms: C_32  and  O_33
REMARK   10  A    between atoms: O_33  and  C_34
REMARK                            x       y       z     vdW  Elec       q    Type
REMARK                         _______ _______ _______ _____ _____    ______ ____
ROOT
ATOM      1  S   UNL     1      -0.856  11.309  18.046  0.00  0.00    +0.000 S 
ENDROOT
BRANCH   1   2
ATOM      2  C   UNL     1      -2.040  12.179  18.971  0.00  0.00    +0.000 A 
ATOM      3  N   UNL     1      -1.757  13.179  19.772  0.00  0.00    +0.000 NA
ATOM      4  N   UNL     1      -2.882  13.472  20.501  0.00  0.00    +0.000 NA
ATOM      5  C   UNL     1      -3.840  12.620  20.172  0.00  0.00    +0.000 A 
ATOM      6  N   UNL     1      -3.393  11.887  19.055  0.00  0.00    +0.000 N 
BRANCH   5   7
ATOM      7  C   UNL     1      -5.144  12.527  20.870  0.00  0.00    +0.000 A 
ATOM      8  C   UNL     1      -5.247  12.875  22.220  0.00  0.00    +0.000 A 
ATOM      9  C   UNL     1      -6.489  12.793  22.847  0.00  0.00    +0.000 A 
ATOM     10  N   UNL     1      -7.619  12.403  22.228  0.00  0.00    +0.000 NA
ATOM     11  C   UNL     1      -7.500  12.033  20.942  0.00  0.00    +0.000 A 
ATOM     12  C   UNL     1      -6.301  12.048  20.243  0.00  0.00    +0.000 A 
ENDBRANCH   5   7
BRANCH   6  13
ATOM     13  C   UNL     1      -4.266  11.022  18.259  0.00  0.00    +0.000 C 
ATOM     14  C   UNL     1      -4.766  11.682  16.953  0.00  0.00    +0.000 C 
ATOM     15  C   UNL     1      -3.754  11.598  15.819  0.00  0.00    +0.000 C 
ATOM     16  C   UNL     1      -3.336  10.163  15.529  0.00  0.00    +0.000 C 
ATOM     17  C   UNL     1      -2.936   9.378  16.769  0.00  0.00    +0.000 C 
ATOM     18  C   UNL     1      -3.877   9.565  17.958  0.00  0.00    +0.000 C 
ENDBRANCH   6  13
ENDBRANCH   1   2
BRANCH   1  19
ATOM     19  C   UNL     1       0.455  10.852  19.217  0.00  0.00    +0.000 C 
BRANCH  19  23
ATOM     20  C   UNL     1       2.346   7.897  18.452  0.00  0.00    +0.000 A 
ATOM     21  N   UNL     1       2.815   8.682  17.493  0.00  0.00    +0.000 NA
ATOM     22  N   UNL     1       2.176   9.894  17.613  0.00  0.00    +0.000 NA
ATOM     23  C   UNL     1       1.356   9.797  18.634  0.00  0.00    +0.000 A 
ATOM     24  O   UNL     1       1.407   8.546  19.230  0.00  0.00    +0.000 OA
BRANCH  20  28
ATOM     25  C   UNL     1       3.627   3.858  19.301  0.00  0.00    +0.000 A 
ATOM     26  C   UNL     1       3.914   4.486  18.083  0.00  0.00    +0.000 A 
ATOM     27  C   UNL     1       3.490   5.794  17.830  0.00  0.00    +0.000 A 
ATOM     28  C   UNL     1       2.733   6.517  18.765  0.00  0.00    +0.000 A 
ATOM     29  C   UNL     1       2.382   5.857  19.949  0.00  0.00    +0.000 A 
ATOM     30  C   UNL     1       2.807   4.532  20.226  0.00  0.00    +0.000 A 
BRANCH  25  32
ATOM     31  C   UNL     1       3.655   1.554  18.716  0.00  0.00    +0.000 C 
ATOM     32  O   UNL     1       4.091   2.606  19.580  0.00  0.00    +0.000 OA
ENDBRANCH  25  32
BRANCH  30  33
ATOM     33  O   UNL     1       2.343   4.077  21.435  0.00  0.00    +0.000 OA
ATOM     34  C   UNL     1       1.320   3.089  21.460  0.00  0.00    +0.000 C 
ENDBRANCH  30  33
ENDBRANCH  20  28
ENDBRANCH  19  23
ENDBRANCH   1  19
TORSDOF 8
ENDMDL
MODEL 7
REMARK VINA RESULT:      -7.8      4.522      7.684
REMARK  Name = 
REMARK  10 active torsions:
REMARK  status: ('A' for Active; 'I' for Inactive)
REMARK    1  A    between atoms: C_1  and  O_2
REMARK    2  A    between atoms: O_2  and  C_3
REMARK    3  A    between atoms: C_6  and  C_7
REMARK    4  A    between atoms: C_10  and  C_11
REMARK    5  A    between atoms: C_11  and  S_12
REMARK    6  A    between atoms: S_12  and  C_13
REMARK    7  A    between atoms: C_16  and  C_17
REMARK    8  A    between atoms: N_23  and  C_24
REMARK    9  A    between atoms: C_32  and  O_33
REMARK   10  A    between atoms: O_33  and  C_34
REMARK                            x       y       z     vdW  Elec       q    Type
REMARK                         _______ _______ _______ _____ _____    ______ ____
ROOT
ATOM      1  S   UNL     1       1.011   8.790  20.439  0.00  0.00    +0.000 S 
ENDROOT
BRANCH   1   2
ATOM      2  C   UNL     1       0.369   9.964  21.545  0.00  0.00    +0.000 A 
ATOM      3  N   UNL     1       0.311   9.794  22.845  0.00  0.00    +0.000 NA
ATOM      4  N   UNL     1      -0.449  10.806  23.373  0.00  0.00    +0.000 NA
ATOM      5  C   UNL     1      -0.890  11.570  22.388  0.00  0.00    +0.000 A 
ATOM      6  N   UNL     1      -0.233  11.166  21.209  0.00  0.00    +0.000 N 
BRANCH   5   7
ATOM      7  C   UNL     1      -1.874  12.665  22.562  0.00  0.00    +0.000 A 
ATOM      8  C   UNL     1      -3.148  12.564  21.995  0.00  0.00    +0.000 A 
ATOM      9  C   UNL     1      -4.059  13.601  22.188  0.00  0.00    +0.000 A 
ATOM     10  N   UNL     1      -3.795  14.709  22.904  0.00  0.00    +0.000 NA
ATOM     11  C   UNL     1      -2.555  14.814  23.410  0.00  0.00    +0.000 A 
ATOM     12  C   UNL     1      -1.570  13.850  23.243  0.00  0.00    +0.000 A 
ENDBRANCH   5   7
BRANCH   6  13
ATOM     13  C   UNL     1      -0.278  11.932  19.960  0.00  0.00    +0.000 C 
ATOM     14  C   UNL     1       0.222  13.387  20.109  0.00  0.00    +0.000 C 
ATOM     15  C   UNL     1       1.739  13.503  20.052  0.00  0.00    +0.000 C 
ATOM     16  C   UNL     1       2.313  12.901  18.776  0.00  0.00    +0.000 C 
ATOM     17  C   UNL     1       1.791  11.507  18.467  0.00  0.00    +0.000 C 
ATOM     18  C   UNL     1       0.283  11.348  18.653  0.00  0.00    +0.000 C 
ENDBRANCH   6  13
ENDBRANCH   1   2
BRANCH   1  19
ATOM     19  C   UNL     1       0.801   7.177  21.246  0.00  0.00    +0.000 C 
BRANCH  19  23
ATOM     20  C   UNL     1       3.292   5.355  19.409  0.00  0.00    +0.000 A 
ATOM     21  N   UNL     1       2.709   4.331  20.016  0.00  0.00    +0.000 NA
ATOM     22  N   UNL     1       1.707   4.845  20.805  0.00  0.00    +0.000 NA
ATOM     23  C   UNL     1       1.719   6.148  20.644  0.00  0.00    +0.000 A 
ATOM     24  O   UNL     1       2.706   6.557  19.760  0.00  0.00    +0.000 OA
BRANCH  20  28
ATOM     25  C   UNL     1       6.471   5.405  16.482  0.00  0.00    +0.000 A 
ATOM     26  C   UNL     1       5.138   5.653  16.133  0.00  0.00    +0.000 A 
ATOM     27  C   UNL     1       4.125   5.633  17.098  0.00  0.00    +0.000 A 
ATOM     28  C   UNL     1       4.394   5.329  18.442  0.00  0.00    +0.000 A 
ATOM     29  C   UNL     1       5.716   5.005  18.771  0.00  0.00    +0.000 A 
ATOM     30  C   UNL     1       6.757   5.026  17.808  0.00  0.00    +0.000 A 
BRANCH  25  32
ATOM     31  C   UNL     1       7.190   4.962  14.260  0.00  0.00    +0.000 C 
ATOM     32  O   UNL     1       7.473   5.486  15.560  0.00  0.00    +0.000 OA
ENDBRANCH  25  32
BRANCH  30  33
ATOM     33  O   UNL     1       7.969   4.667  18.342  0.00  0.00    +0.000 OA
ATOM     34  C   UNL     1       8.389   5.252  19.568  0.00  0.00    +0.000 C 
ENDBRANCH  30  33
ENDBRANCH  20  28
ENDBRANCH  19  23
ENDBRANCH   1  19
TORSDOF 8
ENDMDL
MODEL 8
REMARK VINA RESULT:      -7.8      5.730      9.234
REMARK  Name = 
REMARK  10 active torsions:
REMARK  status: ('A' for Active; 'I' for Inactive)
REMARK    1  A    between atoms: C_1  and  O_2
REMARK    2  A    between atoms: O_2  and  C_3
REMARK    3  A    between atoms: C_6  and  C_7
REMARK    4  A    between atoms: C_10  and  C_11
REMARK    5  A    between atoms: C_11  and  S_12
REMARK    6  A    between atoms: S_12  and  C_13
REMARK    7  A    between atoms: C_16  and  C_17
REMARK    8  A    between atoms: N_23  and  C_24
REMARK    9  A    between atoms: C_32  and  O_33
REMARK   10  A    between atoms: O_33  and  C_34
REMARK                            x       y       z     vdW  Elec       q    Type
REMARK                         _______ _______ _______ _____ _____    ______ ____
ROOT
ATOM      1  S   UNL     1      -1.580  11.692  21.527  0.00  0.00    +0.000 S 
ENDROOT
BRANCH   1   2
ATOM      2  C   UNL     1      -0.271  12.829  21.431  0.00  0.00    +0.000 A 
ATOM      3  N   UNL     1       0.295  13.388  22.475  0.00  0.00    +0.000 NA
ATOM      4  N   UNL     1       1.123  14.385  22.027  0.00  0.00    +0.000 NA
ATOM      5  C   UNL     1       1.027  14.462  20.709  0.00  0.00    +0.000 A 
ATOM      6  N   UNL     1       0.277  13.353  20.271  0.00  0.00    +0.000 N 
BRANCH   5   7
ATOM      7  C   UNL     1       1.651  15.530  19.893  0.00  0.00    +0.000 A 
ATOM      8  C   UNL     1       3.019  15.490  19.606  0.00  0.00    +0.000 A 
ATOM      9  C   UNL     1       3.576  16.500  18.823  0.00  0.00    +0.000 A 
ATOM     10  N   UNL     1       2.873  17.524  18.305  0.00  0.00    +0.000 NA
ATOM     11  C   UNL     1       1.568  17.574  18.620  0.00  0.00    +0.000 A 
ATOM     12  C   UNL     1       0.932  16.635  19.420  0.00  0.00    +0.000 A 
ENDBRANCH   5   7
BRANCH   6  13
ATOM     13  C   UNL     1       0.165  12.964  18.863  0.00  0.00    +0.000 C 
ATOM     14  C   UNL     1       1.388  12.176  18.340  0.00  0.00    +0.000 C 
ATOM     15  C   UNL     1       1.334  10.695  18.689  0.00  0.00    +0.000 C 
ATOM     16  C   UNL     1       0.058  10.033  18.187  0.00  0.00    +0.000 C 
ATOM     17  C   UNL     1      -1.209  10.796  18.545  0.00  0.00    +0.000 C 
ATOM     18  C   UNL     1      -1.115  12.304  18.324  0.00  0.00    +0.000 C 
ENDBRANCH   6  13
ENDBRANCH   1   2
BRANCH   1  19
ATOM     19  C   UNL     1      -1.136  10.532  22.853  0.00  0.00    +0.000 C 
BRANCH  19  23
ATOM     20  C   UNL     1       1.261   8.241  21.474  0.00  0.00    +0.000 A 
ATOM     21  N   UNL     1       2.042   8.825  22.371  0.00  0.00    +0.000 NA
ATOM     22  N   UNL     1       1.284   9.777  23.011  0.00  0.00    +0.000 NA
ATOM     23  C   UNL     1       0.082   9.730  22.484  0.00  0.00    +0.000 A 
ATOM     24  O   UNL     1      -0.017   8.767  21.491  0.00  0.00    +0.000 OA
BRANCH  20  28
ATOM     25  C   UNL     1       2.372   5.080  18.746  0.00  0.00    +0.000 A 
ATOM     26  C   UNL     1       2.615   6.427  18.457  0.00  0.00    +0.000 A 
ATOM     27  C   UNL     1       2.247   7.435  19.355  0.00  0.00    +0.000 A 
ATOM     28  C   UNL     1       1.591   7.143  20.561  0.00  0.00    +0.000 A 
ATOM     29  C   UNL     1       1.281   5.799  20.810  0.00  0.00    +0.000 A 
ATOM     30  C   UNL     1       1.650   4.764  19.913  0.00  0.00    +0.000 A 
BRANCH  25  32
ATOM     31  C   UNL     1       4.056   3.497  18.186  0.00  0.00    +0.000 C 
ATOM     32  O   UNL     1       2.785   4.088  17.905  0.00  0.00    +0.000 OA
ENDBRANCH  25  32
BRANCH  30  33
ATOM     33  O   UNL     1       1.241   3.528  20.346  0.00  0.00    +0.000 OA
ATOM     34  C   UNL     1       1.809   2.982  21.530  0.00  0.00    +0.000 C 
ENDBRANCH  30  33
ENDBRANCH  20  28
ENDBRANCH  19  23
ENDBRANCH   1  19
TORSDOF 8
ENDMDL
MODEL 9
REMARK VINA RESULT:      -7.8      5.608      9.430
REMARK  Name = 
REMARK  10 active torsions:
REMARK  status: ('A' for Active; 'I' for Inactive)
REMARK    1  A    between atoms: C_1  and  O_2
REMARK    2  A    between atoms: O_2  and  C_3
REMARK    3  A    between atoms: C_6  and  C_7
REMARK    4  A    between atoms: C_10  and  C_11
REMARK    5  A    between atoms: C_11  and  S_12
REMARK    6  A    between atoms: S_12  and  C_13
REMARK    7  A    between atoms: C_16  and  C_17
REMARK    8  A    between atoms: N_23  and  C_24
REMARK    9  A    between atoms: C_32  and  O_33
REMARK   10  A    between atoms: O_33  and  C_34
REMARK                            x       y       z     vdW  Elec       q    Type
REMARK                         _______ _______ _______ _____ _____    ______ ____
ROOT
ATOM      1  S   UNL     1      -0.697  10.934  18.281  0.00  0.00    +0.000 S 
ENDROOT
BRANCH   1   2
ATOM      2  C   UNL     1      -1.912  11.962  18.974  0.00  0.00    +0.000 A 
ATOM      3  N   UNL     1      -1.652  12.986  19.753  0.00  0.00    +0.000 NA
ATOM      4  N   UNL     1      -2.836  13.422  20.291  0.00  0.00    +0.000 NA
ATOM      5  C   UNL     1      -3.813  12.636  19.872  0.00  0.00    +0.000 A 
ATOM      6  N   UNL     1      -3.284  11.793  18.874  0.00  0.00    +0.000 N 
BRANCH   5   7
ATOM      7  C   UNL     1      -5.206  12.702  20.375  0.00  0.00    +0.000 A 
ATOM      8  C   UNL     1      -5.467  12.585  21.743  0.00  0.00    +0.000 A 
ATOM      9  C   UNL     1      -6.785  12.666  22.190  0.00  0.00    +0.000 A 
ATOM     10  N   UNL     1      -7.842  12.863  21.381  0.00  0.00    +0.000 NA
ATOM     11  C   UNL     1      -7.583  12.934  20.064  0.00  0.00    +0.000 A 
ATOM     12  C   UNL     1      -6.309  12.829  19.522  0.00  0.00    +0.000 A 
ENDBRANCH   5   7
BRANCH   6  13
ATOM     13  C   UNL     1      -4.115  10.955  18.006  0.00  0.00    +0.000 C 
ATOM     14  C   UNL     1      -4.468  11.622  16.656  0.00  0.00    +0.000 C 
ATOM     15  C   UNL     1      -3.360  11.489  15.621  0.00  0.00    +0.000 C 
ATOM     16  C   UNL     1      -2.973  10.036  15.378  0.00  0.00    +0.000 C 
ATOM     17  C   UNL     1      -2.719   9.248  16.654  0.00  0.00    +0.000 C 
ATOM     18  C   UNL     1      -3.756   9.482  17.750  0.00  0.00    +0.000 C 
ENDBRANCH   6  13
ENDBRANCH   1   2
BRANCH   1  19
ATOM     19  C   UNL     1       0.774  11.122  19.331  0.00  0.00    +0.000 C 
BRANCH  19  23
ATOM     20  C   UNL     1       1.686   7.798  20.337  0.00  0.00    +0.000 A 
ATOM     21  N   UNL     1       1.300   8.260  21.517  0.00  0.00    +0.000 NA
ATOM     22  N   UNL     1       0.918   9.569  21.335  0.00  0.00    +0.000 NA
ATOM     23  C   UNL     1       1.082   9.844  20.062  0.00  0.00    +0.000 A 
ATOM     24  O   UNL     1       1.570   8.758  19.350  0.00  0.00    +0.000 OA
BRANCH  20  28
ATOM     25  C   UNL     1       3.213   3.879  19.346  0.00  0.00    +0.000 A 
ATOM     26  C   UNL     1       3.778   5.048  18.824  0.00  0.00    +0.000 A 
ATOM     27  C   UNL     1       3.268   6.307  19.158  0.00  0.00    +0.000 A 
ATOM     28  C   UNL     1       2.153   6.450  19.999  0.00  0.00    +0.000 A 
ATOM     29  C   UNL     1       1.543   5.274  20.456  0.00  0.00    +0.000 A 
ATOM     30  C   UNL     1       2.049   3.989  20.131  0.00  0.00    +0.000 A 
BRANCH  25  32
ATOM     31  C   UNL     1       3.363   2.049  17.836  0.00  0.00    +0.000 C 
ATOM     32  O   UNL     1       3.744   2.651  19.075  0.00  0.00    +0.000 OA
ENDBRANCH  25  32
BRANCH  30  33
ATOM     33  O   UNL     1       1.296   2.979  20.675  0.00  0.00    +0.000 OA
ATOM     34  C   UNL     1       1.642   2.466  21.955  0.00  0.00    +0.000 C 
ENDBRANCH  30  33
ENDBRANCH  20  28
ENDBRANCH  19  23
ENDBRANCH   1  19
TORSDOF 8
ENDMDL
