MODEL 1
REMARK VINA RESULT:      -6.5      0.000      0.000
REMARK  Name = 
REMARK  3 active torsions:
REMARK  status: ('A' for Active; 'I' for Inactive)
REMARK    1  A    between atoms: C_2  and  C_3
REMARK    2  A    between atoms: C_7  and  O_8
REMARK    3  A    between atoms: O_8  and  C_9
REMARK                            x       y       z     vdW  Elec       q    Type
REMARK                         _______ _______ _______ _____ _____    ______ ____
ROOT
ATOM      1  O   UNL     1       3.208   2.640  17.265  0.00  0.00    +0.000 OA
ATOM      2  C   UNL     1       3.476   3.399  18.189  0.00  0.00    +0.000 C 
ATOM      3  N   UNL     1       4.300   4.534  17.980  0.00  0.00    +0.000 N 
ATOM      4  C   UNL     1       4.672   5.487  19.034  0.00  0.00    +0.000 C 
ATOM      5  C   UNL     1       6.169   5.334  19.330  0.00  0.00    +0.000 C 
ATOM      6  O   UNL     1       6.932   5.671  18.163  0.00  0.00    +0.000 OA
ATOM      7  C   UNL     1       6.603   4.813  17.048  0.00  0.00    +0.000 C 
ATOM      8  C   UNL     1       7.438   5.317  15.867  0.00  0.00    +0.000 C 
ATOM      9  C   UNL     1       7.116   4.564  14.586  0.00  0.00    +0.000 C 
ATOM     10  C   UNL     1       5.625   4.637  14.272  0.00  0.00    +0.000 C 
ATOM     11  C   UNL     1       4.768   4.093  15.430  0.00  0.00    +0.000 C 
ATOM     12  C   UNL     1       5.073   4.841  16.735  0.00  0.00    +0.000 C 
ENDROOT
BRANCH   2  13
ATOM     13  C   UNL     1       2.920   3.151  19.539  0.00  0.00    +0.000 A 
ATOM     14  S   UNL     1       1.368   3.791  19.974  0.00  0.00    +0.000 S 
ATOM     15  C   UNL     1       1.297   2.848  21.390  0.00  0.00    +0.000 A 
ATOM     16  C   UNL     1       2.550   2.399  21.733  0.00  0.00    +0.000 A 
ATOM     17  C   UNL     1       3.499   2.578  20.671  0.00  0.00    +0.000 A 
BRANCH  17  18
ATOM     18  O   UNL     1       4.815   2.219  20.694  0.00  0.00    +0.000 OA
BRANCH  18  19
ATOM     19  C   UNL     1       5.055   0.882  21.112  0.00  0.00    +0.000 C 
ATOM     20  F   UNL     1       5.531   0.180  20.053  0.00  0.00    +0.000 F 
ATOM     21  F   UNL     1       6.042   0.902  22.042  0.00  0.00    +0.000 F 
ENDBRANCH  18  19
ENDBRANCH  17  18
ENDBRANCH   2  13
TORSDOF 3
ENDMDL
MODEL 2
REMARK VINA RESULT:      -6.4      2.856      5.812
REMARK  Name = 
REMARK  3 active torsions:
REMARK  status: ('A' for Active; 'I' for Inactive)
REMARK    1  A    between atoms: C_2  and  C_3
REMARK    2  A    between atoms: C_7  and  O_8
REMARK    3  A    between atoms: O_8  and  C_9
REMARK                            x       y       z     vdW  Elec       q    Type
REMARK                         _______ _______ _______ _____ _____    ______ ____
ROOT
ATOM      1  O   UNL     1       4.820   2.380  17.917  0.00  0.00    +0.000 OA
ATOM      2  C   UNL     1       4.969   3.590  17.793  0.00  0.00    +0.000 C 
ATOM      3  N   UNL     1       4.347   4.493  18.692  0.00  0.00    +0.000 N 
ATOM      4  C   UNL     1       4.472   5.955  18.608  0.00  0.00    +0.000 C 
ATOM      5  C   UNL     1       3.117   6.540  18.193  0.00  0.00    +0.000 C 
ATOM      6  O   UNL     1       2.134   6.254  19.198  0.00  0.00    +0.000 OA
ATOM      7  C   UNL     1       1.970   4.832  19.389  0.00  0.00    +0.000 C 
ATOM      8  C   UNL     1       0.949   4.672  20.518  0.00  0.00    +0.000 C 
ATOM      9  C   UNL     1       0.751   3.214  20.900  0.00  0.00    +0.000 C 
ATOM     10  C   UNL     1       2.081   2.564  21.271  0.00  0.00    +0.000 C 
ATOM     11  C   UNL     1       3.109   2.674  20.131  0.00  0.00    +0.000 C 
ATOM     12  C   UNL     1       3.329   4.138  19.729  0.00  0.00    +0.000 C 
ENDROOT
BRANCH   2  13
ATOM     13  C   UNL     1       5.824   4.125  16.708  0.00  0.00    +0.000 A 
ATOM     14  S   UNL     1       5.273   4.083  15.064  0.00  0.00    +0.000 S 
ATOM     15  C   UNL     1       6.526   5.113  14.544  0.00  0.00    +0.000 A 
ATOM     16  C   UNL     1       7.540   5.143  15.470  0.00  0.00    +0.000 A 
ATOM     17  C   UNL     1       7.147   4.566  16.724  0.00  0.00    +0.000 A 
BRANCH  17  18
ATOM     18  O   UNL     1       7.918   4.463  17.844  0.00  0.00    +0.000 OA
BRANCH  18  19
ATOM     19  C   UNL     1       7.773   5.539  18.761  0.00  0.00    +0.000 C 
ATOM     20  F   UNL     1       8.648   5.357  19.781  0.00  0.00    +0.000 F 
ATOM     21  F   UNL     1       8.144   6.682  18.130  0.00  0.00    +0.000 F 
ENDBRANCH  18  19
ENDBRANCH  17  18
ENDBRANCH   2  13
TORSDOF 3
ENDMDL
MODEL 3
REMARK VINA RESULT:      -6.4      3.663      5.951
REMARK  Name = 
REMARK  3 active torsions:
REMARK  status: ('A' for Active; 'I' for Inactive)
REMARK    1  A    between atoms: C_2  and  C_3
REMARK    2  A    between atoms: C_7  and  O_8
REMARK    3  A    between atoms: O_8  and  C_9
REMARK                            x       y       z     vdW  Elec       q    Type
REMARK                         _______ _______ _______ _____ _____    ______ ____
ROOT
ATOM      1  O   UNL     1       4.657   7.902  17.090  0.00  0.00    +0.000 OA
ATOM      2  C   UNL     1       4.492   6.712  17.330  0.00  0.00    +0.000 C 
ATOM      3  N   UNL     1       3.325   6.263  18.000  0.00  0.00    +0.000 N 
ATOM      4  C   UNL     1       3.054   4.858  18.330  0.00  0.00    +0.000 C 
ATOM      5  C   UNL     1       3.137   4.686  19.852  0.00  0.00    +0.000 C 
ATOM      6  O   UNL     1       2.122   5.475  20.487  0.00  0.00    +0.000 OA
ATOM      7  C   UNL     1       2.275   6.879  20.184  0.00  0.00    +0.000 C 
ATOM      8  C   UNL     1       1.104   7.589  20.869  0.00  0.00    +0.000 C 
ATOM      9  C   UNL     1       1.079   9.076  20.549  0.00  0.00    +0.000 C 
ATOM     10  C   UNL     1       1.052   9.306  19.041  0.00  0.00    +0.000 C 
ATOM     11  C   UNL     1       2.246   8.638  18.337  0.00  0.00    +0.000 C 
ATOM     12  C   UNL     1       2.291   7.135  18.642  0.00  0.00    +0.000 C 
ENDROOT
BRANCH   2  13
ATOM     13  C   UNL     1       5.505   5.719  16.904  0.00  0.00    +0.000 A 
ATOM     14  S   UNL     1       5.461   5.066  15.297  0.00  0.00    +0.000 S 
ATOM     15  C   UNL     1       7.006   4.368  15.464  0.00  0.00    +0.000 A 
ATOM     16  C   UNL     1       7.350   4.272  16.791  0.00  0.00    +0.000 A 
ATOM     17  C   UNL     1       6.482   5.043  17.633  0.00  0.00    +0.000 A 
BRANCH  17  18
ATOM     18  O   UNL     1       6.572   5.168  18.989  0.00  0.00    +0.000 OA
BRANCH  18  19
ATOM     19  C   UNL     1       7.672   5.947  19.438  0.00  0.00    +0.000 C 
ATOM     20  F   UNL     1       8.729   5.121  19.644  0.00  0.00    +0.000 F 
ATOM     21  F   UNL     1       8.027   6.790  18.435  0.00  0.00    +0.000 F 
ENDBRANCH  18  19
ENDBRANCH  17  18
ENDBRANCH   2  13
TORSDOF 3
ENDMDL
MODEL 4
REMARK VINA RESULT:      -6.3      2.744      5.933
REMARK  Name = 
REMARK  3 active torsions:
REMARK  status: ('A' for Active; 'I' for Inactive)
REMARK    1  A    between atoms: C_2  and  C_3
REMARK    2  A    between atoms: C_7  and  O_8
REMARK    3  A    between atoms: O_8  and  C_9
REMARK                            x       y       z     vdW  Elec       q    Type
REMARK                         _______ _______ _______ _____ _____    ______ ____
ROOT
ATOM      1  O   UNL     1       4.370   6.065  18.291  0.00  0.00    +0.000 OA
ATOM      2  C   UNL     1       4.497   5.046  17.622  0.00  0.00    +0.000 C 
ATOM      3  N   UNL     1       3.587   3.968  17.763  0.00  0.00    +0.000 N 
ATOM      4  C   UNL     1       3.674   2.713  17.004  0.00  0.00    +0.000 C 
ATOM      5  C   UNL     1       4.064   1.583  17.965  0.00  0.00    +0.000 C 
ATOM      6  O   UNL     1       3.040   1.412  18.955  0.00  0.00    +0.000 OA
ATOM      7  C   UNL     1       2.845   2.615  19.730  0.00  0.00    +0.000 C 
ATOM      8  C   UNL     1       1.697   2.313  20.697  0.00  0.00    +0.000 C 
ATOM      9  C   UNL     1       1.311   3.536  21.515  0.00  0.00    +0.000 C 
ATOM     10  C   UNL     1       0.966   4.711  20.606  0.00  0.00    +0.000 C 
ATOM     11  C   UNL     1       2.124   5.060  19.655  0.00  0.00    +0.000 C 
ATOM     12  C   UNL     1       2.530   3.842  18.815  0.00  0.00    +0.000 C 
ENDROOT
BRANCH   2  13
ATOM     13  C   UNL     1       5.598   4.937  16.637  0.00  0.00    +0.000 A 
ATOM     14  S   UNL     1       5.247   4.907  14.938  0.00  0.00    +0.000 S 
ATOM     15  C   UNL     1       6.885   5.125  14.525  0.00  0.00    +0.000 A 
ATOM     16  C   UNL     1       7.696   4.813  15.589  0.00  0.00    +0.000 A 
ATOM     17  C   UNL     1       6.959   4.693  16.815  0.00  0.00    +0.000 A 
BRANCH  17  18
ATOM     18  O   UNL     1       7.477   4.411  18.045  0.00  0.00    +0.000 OA
BRANCH  18  19
ATOM     19  C   UNL     1       7.889   5.551  18.787  0.00  0.00    +0.000 C 
ATOM     20  F   UNL     1       7.743   6.650  18.005  0.00  0.00    +0.000 F 
ATOM     21  F   UNL     1       7.038   5.702  19.833  0.00  0.00    +0.000 F 
ENDBRANCH  18  19
ENDBRANCH  17  18
ENDBRANCH   2  13
TORSDOF 3
ENDMDL
MODEL 5
REMARK VINA RESULT:      -6.3      4.624      6.333
REMARK  Name = 
REMARK  3 active torsions:
REMARK  status: ('A' for Active; 'I' for Inactive)
REMARK    1  A    between atoms: C_2  and  C_3
REMARK    2  A    between atoms: C_7  and  O_8
REMARK    3  A    between atoms: O_8  and  C_9
REMARK                            x       y       z     vdW  Elec       q    Type
REMARK                         _______ _______ _______ _____ _____    ______ ____
ROOT
ATOM      1  O   UNL     1       1.495   5.707  20.965  0.00  0.00    +0.000 OA
ATOM      2  C   UNL     1       2.065   6.072  19.944  0.00  0.00    +0.000 C 
ATOM      3  N   UNL     1       2.220   7.452  19.654  0.00  0.00    +0.000 N 
ATOM      4  C   UNL     1       2.885   7.971  18.451  0.00  0.00    +0.000 C 
ATOM      5  C   UNL     1       1.829   8.625  17.550  0.00  0.00    +0.000 C 
ATOM      6  O   UNL     1       1.238   9.743  18.226  0.00  0.00    +0.000 OA
ATOM      7  C   UNL     1       0.594   9.341  19.455  0.00  0.00    +0.000 C 
ATOM      8  C   UNL     1       0.064  10.626  20.095  0.00  0.00    +0.000 C 
ATOM      9  C   UNL     1      -0.556  10.365  21.459  0.00  0.00    +0.000 C 
ATOM     10  C   UNL     1       0.437   9.664  22.381  0.00  0.00    +0.000 C 
ATOM     11  C   UNL     1       0.948   8.344  21.776  0.00  0.00    +0.000 C 
ATOM     12  C   UNL     1       1.582   8.583  20.399  0.00  0.00    +0.000 C 
ENDROOT
BRANCH   2  13
ATOM     13  C   UNL     1       2.621   5.071  19.004  0.00  0.00    +0.000 A 
ATOM     14  S   UNL     1       1.557   4.056  18.083  0.00  0.00    +0.000 S 
ATOM     15  C   UNL     1       2.826   3.515  17.084  0.00  0.00    +0.000 A 
ATOM     16  C   UNL     1       4.042   3.755  17.677  0.00  0.00    +0.000 A 
ATOM     17  C   UNL     1       3.933   4.648  18.794  0.00  0.00    +0.000 A 
BRANCH  17  18
ATOM     18  O   UNL     1       4.958   5.094  19.576  0.00  0.00    +0.000 OA
BRANCH  18  19
ATOM     19  C   UNL     1       6.180   5.303  18.882  0.00  0.00    +0.000 C 
ATOM     20  F   UNL     1       6.059   6.422  18.123  0.00  0.00    +0.000 F 
ATOM     21  F   UNL     1       7.147   5.559  19.800  0.00  0.00    +0.000 F 
ENDBRANCH  18  19
ENDBRANCH  17  18
ENDBRANCH   2  13
TORSDOF 3
ENDMDL
MODEL 6
REMARK VINA RESULT:      -6.2      3.175      6.339
REMARK  Name = 
REMARK  3 active torsions:
REMARK  status: ('A' for Active; 'I' for Inactive)
REMARK    1  A    between atoms: C_2  and  C_3
REMARK    2  A    between atoms: C_7  and  O_8
REMARK    3  A    between atoms: O_8  and  C_9
REMARK                            x       y       z     vdW  Elec       q    Type
REMARK                         _______ _______ _______ _____ _____    ______ ____
ROOT
ATOM      1  O   UNL     1       5.826   3.878  19.353  0.00  0.00    +0.000 OA
ATOM      2  C   UNL     1       5.237   4.221  18.335  0.00  0.00    +0.000 C 
ATOM      3  N   UNL     1       3.840   4.465  18.354  0.00  0.00    +0.000 N 
ATOM      4  C   UNL     1       3.059   4.873  17.179  0.00  0.00    +0.000 C 
ATOM      5  C   UNL     1       2.137   3.716  16.775  0.00  0.00    +0.000 C 
ATOM      6  O   UNL     1       1.205   3.445  17.831  0.00  0.00    +0.000 OA
ATOM      7  C   UNL     1       1.882   3.076  19.054  0.00  0.00    +0.000 C 
ATOM      8  C   UNL     1       0.783   2.875  20.100  0.00  0.00    +0.000 C 
ATOM      9  C   UNL     1       1.360   2.579  21.476  0.00  0.00    +0.000 C 
ATOM     10  C   UNL     1       2.330   3.675  21.905  0.00  0.00    +0.000 C 
ATOM     11  C   UNL     1       3.469   3.863  20.888  0.00  0.00    +0.000 C 
ATOM     12  C   UNL     1       2.912   4.166  19.491  0.00  0.00    +0.000 C 
ENDROOT
BRANCH   2  13
ATOM     13  C   UNL     1       5.984   4.408  17.070  0.00  0.00    +0.000 A 
ATOM     14  S   UNL     1       5.663   3.382  15.709  0.00  0.00    +0.000 S 
ATOM     15  C   UNL     1       6.559   4.378  14.658  0.00  0.00    +0.000 A 
ATOM     16  C   UNL     1       7.399   5.199  15.371  0.00  0.00    +0.000 A 
ATOM     17  C   UNL     1       7.080   5.217  16.770  0.00  0.00    +0.000 A 
BRANCH  17  18
ATOM     18  O   UNL     1       7.714   5.943  17.735  0.00  0.00    +0.000 OA
BRANCH  18  19
ATOM     19  C   UNL     1       7.710   7.347  17.513  0.00  0.00    +0.000 C 
ATOM     20  F   UNL     1       6.427   7.787  17.556  0.00  0.00    +0.000 F 
ATOM     21  F   UNL     1       8.359   7.938  18.548  0.00  0.00    +0.000 F 
ENDBRANCH  18  19
ENDBRANCH  17  18
ENDBRANCH   2  13
TORSDOF 3
ENDMDL
MODEL 7
REMARK VINA RESULT:      -6.2      4.097      6.308
REMARK  Name = 
REMARK  3 active torsions:
REMARK  status: ('A' for Active; 'I' for Inactive)
REMARK    1  A    between atoms: C_2  and  C_3
REMARK    2  A    between atoms: C_7  and  O_8
REMARK    3  A    between atoms: O_8  and  C_9
REMARK                            x       y       z     vdW  Elec       q    Type
REMARK                         _______ _______ _______ _____ _____    ______ ____
ROOT
ATOM      1  O   UNL     1       4.402   7.872  16.855  0.00  0.00    +0.000 OA
ATOM      2  C   UNL     1       4.300   6.710  17.232  0.00  0.00    +0.000 C 
ATOM      3  N   UNL     1       3.184   6.293  18.000  0.00  0.00    +0.000 N 
ATOM      4  C   UNL     1       2.990   4.923  18.494  0.00  0.00    +0.000 C 
ATOM      5  C   UNL     1       3.145   4.924  20.020  0.00  0.00    +0.000 C 
ATOM      6  O   UNL     1       2.124   5.738  20.613  0.00  0.00    +0.000 OA
ATOM      7  C   UNL     1       2.201   7.105  20.151  0.00  0.00    +0.000 C 
ATOM      8  C   UNL     1       1.030   7.840  20.809  0.00  0.00    +0.000 C 
ATOM      9  C   UNL     1       0.925   9.279  20.331  0.00  0.00    +0.000 C 
ATOM     10  C   UNL     1       0.824   9.340  18.810  0.00  0.00    +0.000 C 
ATOM     11  C   UNL     1       2.016   8.645  18.127  0.00  0.00    +0.000 C 
ATOM     12  C   UNL     1       2.140   7.188  18.592  0.00  0.00    +0.000 C 
ENDROOT
BRANCH   2  13
ATOM     13  C   UNL     1       5.337   5.717  16.868  0.00  0.00    +0.000 A 
ATOM     14  S   UNL     1       4.927   4.352  15.879  0.00  0.00    +0.000 S 
ATOM     15  C   UNL     1       6.564   3.949  15.635  0.00  0.00    +0.000 A 
ATOM     16  C   UNL     1       7.355   4.550  16.585  0.00  0.00    +0.000 A 
ATOM     17  C   UNL     1       6.651   5.569  17.310  0.00  0.00    +0.000 A 
BRANCH  17  18
ATOM     18  O   UNL     1       7.162   6.356  18.301  0.00  0.00    +0.000 OA
BRANCH  18  19
ATOM     19  C   UNL     1       8.061   7.361  17.851  0.00  0.00    +0.000 C 
ATOM     20  F   UNL     1       7.337   8.379  17.322  0.00  0.00    +0.000 F 
ATOM     21  F   UNL     1       8.706   7.863  18.934  0.00  0.00    +0.000 F 
ENDBRANCH  18  19
ENDBRANCH  17  18
ENDBRANCH   2  13
TORSDOF 3
ENDMDL
MODEL 8
REMARK VINA RESULT:      -6.2      4.841      6.709
REMARK  Name = 
REMARK  3 active torsions:
REMARK  status: ('A' for Active; 'I' for Inactive)
REMARK    1  A    between atoms: C_2  and  C_3
REMARK    2  A    between atoms: C_7  and  O_8
REMARK    3  A    between atoms: O_8  and  C_9
REMARK                            x       y       z     vdW  Elec       q    Type
REMARK                         _______ _______ _______ _____ _____    ______ ____
ROOT
ATOM      1  O   UNL     1       1.993   5.902  20.744  0.00  0.00    +0.000 OA
ATOM      2  C   UNL     1       2.324   6.409  19.679  0.00  0.00    +0.000 C 
ATOM      3  N   UNL     1       2.202   7.806  19.472  0.00  0.00    +0.000 N 
ATOM      4  C   UNL     1       2.571   8.489  18.224  0.00  0.00    +0.000 C 
ATOM      5  C   UNL     1       1.293   8.990  17.542  0.00  0.00    +0.000 C 
ATOM      6  O   UNL     1       0.640   9.956  18.378  0.00  0.00    +0.000 OA
ATOM      7  C   UNL     1       0.276   9.390  19.656  0.00  0.00    +0.000 C 
ATOM      8  C   UNL     1      -0.350  10.532  20.461  0.00  0.00    +0.000 C 
ATOM      9  C   UNL     1      -0.693  10.103  21.879  0.00  0.00    +0.000 C 
ATOM     10  C   UNL     1       0.536   9.543  22.589  0.00  0.00    +0.000 C 
ATOM     11  C   UNL     1       1.155   8.363  21.819  0.00  0.00    +0.000 C 
ATOM     12  C   UNL     1       1.513   8.772  20.384  0.00  0.00    +0.000 C 
ENDROOT
BRANCH   2  13
ATOM     13  C   UNL     1       2.881   5.565  18.596  0.00  0.00    +0.000 A 
ATOM     14  S   UNL     1       4.334   6.044  17.779  0.00  0.00    +0.000 S 
ATOM     15  C   UNL     1       4.493   4.525  17.025  0.00  0.00    +0.000 A 
ATOM     16  C   UNL     1       3.299   3.846  17.053  0.00  0.00    +0.000 A 
ATOM     17  C   UNL     1       2.356   4.445  17.953  0.00  0.00    +0.000 A 
BRANCH  17  18
ATOM     18  O   UNL     1       1.094   3.999  18.216  0.00  0.00    +0.000 OA
BRANCH  18  19
ATOM     19  C   UNL     1       1.033   2.898  19.112  0.00  0.00    +0.000 C 
ATOM     20  F   UNL     1       0.387   3.294  20.238  0.00  0.00    +0.000 F 
ATOM     21  F   UNL     1       0.265   1.934  18.543  0.00  0.00    +0.000 F 
ENDBRANCH  18  19
ENDBRANCH  17  18
ENDBRANCH   2  13
TORSDOF 3
ENDMDL
MODEL 9
REMARK VINA RESULT:      -6.1      4.100      6.399
REMARK  Name = 
REMARK  3 active torsions:
REMARK  status: ('A' for Active; 'I' for Inactive)
REMARK    1  A    between atoms: C_2  and  C_3
REMARK    2  A    between atoms: C_7  and  O_8
REMARK    3  A    between atoms: O_8  and  C_9
REMARK                            x       y       z     vdW  Elec       q    Type
REMARK                         _______ _______ _______ _____ _____    ______ ____
ROOT
ATOM      1  O   UNL     1       4.912   8.064  16.968  0.00  0.00    +0.000 OA
ATOM      2  C   UNL     1       4.789   6.909  17.357  0.00  0.00    +0.000 C 
ATOM      3  N   UNL     1       3.579   6.470  17.954  0.00  0.00    +0.000 N 
ATOM      4  C   UNL     1       3.354   5.106  18.451  0.00  0.00    +0.000 C 
ATOM      5  C   UNL     1       3.268   5.148  19.981  0.00  0.00    +0.000 C 
ATOM      6  O   UNL     1       2.142   5.939  20.384  0.00  0.00    +0.000 OA
ATOM      7  C   UNL     1       2.247   7.296  19.901  0.00  0.00    +0.000 C 
ATOM      8  C   UNL     1       0.965   8.004  20.348  0.00  0.00    +0.000 C 
ATOM      9  C   UNL     1       0.891   9.428  19.818  0.00  0.00    +0.000 C 
ATOM     10  C   UNL     1       1.027   9.450  18.299  0.00  0.00    +0.000 C 
ATOM     11  C   UNL     1       2.333   8.782  17.830  0.00  0.00    +0.000 C 
ATOM     12  C   UNL     1       2.429   7.342  18.350  0.00  0.00    +0.000 C 
ENDROOT
BRANCH   2  13
ATOM     13  C   UNL     1       5.900   5.945  17.188  0.00  0.00    +0.000 A 
ATOM     14  S   UNL     1       7.152   5.840  18.385  0.00  0.00    +0.000 S 
ATOM     15  C   UNL     1       7.769   4.401  17.715  0.00  0.00    +0.000 A 
ATOM     16  C   UNL     1       7.325   4.241  16.425  0.00  0.00    +0.000 A 
ATOM     17  C   UNL     1       6.249   5.136  16.107  0.00  0.00    +0.000 A 
BRANCH  17  18
ATOM     18  O   UNL     1       5.584   5.211  14.918  0.00  0.00    +0.000 OA
BRANCH  18  19
ATOM     19  C   UNL     1       5.856   4.143  14.022  0.00  0.00    +0.000 C 
ATOM     20  F   UNL     1       4.759   3.938  13.250  0.00  0.00    +0.000 F 
ATOM     21  F   UNL     1       6.851   4.537  13.188  0.00  0.00    +0.000 F 
ENDBRANCH  18  19
ENDBRANCH  17  18
ENDBRANCH   2  13
TORSDOF 3
ENDMDL
