MODEL 1
REMARK VINA RESULT:      -7.3      0.000      0.000
REMARK  Name = 
REMARK  6 active torsions:
REMARK  status: ('A' for Active; 'I' for Inactive)
REMARK    1  A    between atoms: C_2  and  C_3
REMARK    2  A    between atoms: C_6  and  C_7
REMARK    3  A    between atoms: N_9  and  C_10
REMARK    4  A    between atoms: C_10  and  C_11
REMARK    5  A    between atoms: C_11  and  C_12
REMARK    6  A    between atoms: N_16  and  C_17
REMARK                            x       y       z     vdW  Elec       q    Type
REMARK                         _______ _______ _______ _____ _____    ______ ____
ROOT
ATOM      1  C   UNL     1       5.253   3.792  18.576  0.00  0.00    +0.000 C 
ATOM      2  O   UNL     1       5.310   3.189  19.636  0.00  0.00    +0.000 OA
ATOM      3  N   UNL     1       4.475   3.354  17.517  0.00  0.00    +0.000 N 
ATOM      4  H   UNL     1       4.388   3.881  16.662  0.00  0.00    +0.000 HD
ENDROOT
BRANCH   1   8
ATOM      5  C   UNL     1       7.470   7.409  17.885  0.00  0.00    +0.000 A 
ATOM      6  C   UNL     1       6.320   7.107  17.143  0.00  0.00    +0.000 A 
ATOM      7  C   UNL     1       5.599   5.943  17.405  0.00  0.00    +0.000 A 
ATOM      8  C   UNL     1       6.024   5.048  18.395  0.00  0.00    +0.000 A 
ATOM      9  C   UNL     1       7.160   5.360  19.152  0.00  0.00    +0.000 A 
ATOM     10  C   UNL     1       7.875   6.523  18.889  0.00  0.00    +0.000 A 
BRANCH   5  12
ATOM     11  C   UNL     1       8.694   9.445  18.538  0.00  0.00    +0.000 C 
ATOM     12  C   UNL     1       8.235   8.619  17.583  0.00  0.00    +0.000 C 
ENDBRANCH   5  12
ENDBRANCH   1   8
BRANCH   3  13
ATOM     13  C   UNL     1       3.699   2.145  17.646  0.00  0.00    +0.000 C 
BRANCH  13  14
ATOM     14  C   UNL     1       2.189   2.402  17.621  0.00  0.00    +0.000 C 
BRANCH  14  15
ATOM     15  C   UNL     1       1.628   2.890  18.977  0.00  0.00    +0.000 C 
ATOM     16  C   UNL     1       2.200   2.099  20.162  0.00  0.00    +0.000 C 
ATOM     17  C   UNL     1       1.703   2.648  21.491  0.00  0.00    +0.000 C 
ATOM     18  C   UNL     1       1.999   4.141  21.587  0.00  0.00    +0.000 C 
ATOM     19  N   UNL     1       1.375   4.870  20.475  0.00  0.00    +0.000 NA
ATOM     20  C   UNL     1       1.608   6.306  20.625  0.00  0.00    +0.000 C 
ATOM     21  C   UNL     1       1.874   4.399  19.170  0.00  0.00    +0.000 C 
ENDBRANCH  14  15
ENDBRANCH  13  14
ENDBRANCH   3  13
TORSDOF 5
ENDMDL
MODEL 2
REMARK VINA RESULT:      -6.9      3.742      5.646
REMARK  Name = 
REMARK  6 active torsions:
REMARK  status: ('A' for Active; 'I' for Inactive)
REMARK    1  A    between atoms: C_2  and  C_3
REMARK    2  A    between atoms: C_6  and  C_7
REMARK    3  A    between atoms: N_9  and  C_10
REMARK    4  A    between atoms: C_10  and  C_11
REMARK    5  A    between atoms: C_11  and  C_12
REMARK    6  A    between atoms: N_16  and  C_17
REMARK                            x       y       z     vdW  Elec       q    Type
REMARK                         _______ _______ _______ _____ _____    ______ ____
ROOT
ATOM      1  C   UNL     1       7.173   5.103  15.857  0.00  0.00    +0.000 C 
ATOM      2  O   UNL     1       7.716   6.196  15.884  0.00  0.00    +0.000 OA
ATOM      3  N   UNL     1       7.065   4.303  16.982  0.00  0.00    +0.000 N 
ATOM      4  H   UNL     1       6.570   3.425  16.970  0.00  0.00    +0.000 HD
ENDROOT
BRANCH   1   8
ATOM      5  C   UNL     1       5.406   3.513  12.274  0.00  0.00    +0.000 A 
ATOM      6  C   UNL     1       4.670   3.624  13.461  0.00  0.00    +0.000 A 
ATOM      7  C   UNL     1       5.254   4.172  14.603  0.00  0.00    +0.000 A 
ATOM      8  C   UNL     1       6.589   4.595  14.589  0.00  0.00    +0.000 A 
ATOM      9  C   UNL     1       7.318   4.506  13.396  0.00  0.00    +0.000 A 
ATOM     10  C   UNL     1       6.732   3.961  12.260  0.00  0.00    +0.000 A 
BRANCH   5  12
ATOM     11  C   UNL     1       3.540   3.197  10.697  0.00  0.00    +0.000 C 
ATOM     12  C   UNL     1       4.793   2.912  11.090  0.00  0.00    +0.000 C 
ENDBRANCH   5  12
ENDBRANCH   1   8
BRANCH   3  13
ATOM     13  C   UNL     1       7.606   4.754  18.240  0.00  0.00    +0.000 C 
BRANCH  13  14
ATOM     14  C   UNL     1       6.705   5.773  18.946  0.00  0.00    +0.000 C 
BRANCH  14  15
ATOM     15  C   UNL     1       5.224   5.332  19.020  0.00  0.00    +0.000 C 
ATOM     16  C   UNL     1       4.364   6.001  17.939  0.00  0.00    +0.000 C 
ATOM     17  C   UNL     1       2.929   5.492  17.974  0.00  0.00    +0.000 C 
ATOM     18  C   UNL     1       2.910   3.970  17.879  0.00  0.00    +0.000 C 
ATOM     19  N   UNL     1       3.685   3.369  18.971  0.00  0.00    +0.000 NA
ATOM     20  C   UNL     1       3.592   1.910  18.906  0.00  0.00    +0.000 C 
ATOM     21  C   UNL     1       5.095   3.799  18.937  0.00  0.00    +0.000 C 
ENDBRANCH  14  15
ENDBRANCH  13  14
ENDBRANCH   3  13
TORSDOF 5
ENDMDL
MODEL 3
REMARK VINA RESULT:      -6.8      3.347      8.184
REMARK  Name = 
REMARK  6 active torsions:
REMARK  status: ('A' for Active; 'I' for Inactive)
REMARK    1  A    between atoms: C_2  and  C_3
REMARK    2  A    between atoms: C_6  and  C_7
REMARK    3  A    between atoms: N_9  and  C_10
REMARK    4  A    between atoms: C_10  and  C_11
REMARK    5  A    between atoms: C_11  and  C_12
REMARK    6  A    between atoms: N_16  and  C_17
REMARK                            x       y       z     vdW  Elec       q    Type
REMARK                         _______ _______ _______ _____ _____    ______ ____
ROOT
ATOM      1  C   UNL     1       6.199   6.283  16.754  0.00  0.00    +0.000 C 
ATOM      2  O   UNL     1       6.861   5.936  15.789  0.00  0.00    +0.000 OA
ATOM      3  N   UNL     1       6.591   7.316  17.588  0.00  0.00    +0.000 N 
ATOM      4  H   UNL     1       6.017   7.636  18.353  0.00  0.00    +0.000 HD
ENDROOT
BRANCH   1   8
ATOM      5  C   UNL     1       2.488   4.373  17.788  0.00  0.00    +0.000 A 
ATOM      6  C   UNL     1       2.721   5.722  18.088  0.00  0.00    +0.000 A 
ATOM      7  C   UNL     1       3.920   6.329  17.716  0.00  0.00    +0.000 A 
ATOM      8  C   UNL     1       4.917   5.597  17.060  0.00  0.00    +0.000 A 
ATOM      9  C   UNL     1       4.676   4.255  16.738  0.00  0.00    +0.000 A 
ATOM     10  C   UNL     1       3.479   3.654  17.110  0.00  0.00    +0.000 A 
BRANCH   5  12
ATOM     11  C   UNL     1       1.197   2.522  18.777  0.00  0.00    +0.000 C 
ATOM     12  C   UNL     1       1.239   3.738  18.207  0.00  0.00    +0.000 C 
ENDBRANCH   5  12
ENDBRANCH   1   8
BRANCH   3  13
ATOM     13  C   UNL     1       7.822   8.022  17.329  0.00  0.00    +0.000 C 
BRANCH  13  14
ATOM     14  C   UNL     1       8.421   8.656  18.589  0.00  0.00    +0.000 C 
BRANCH  14  15
ATOM     15  C   UNL     1       9.054  10.044  18.335  0.00  0.00    +0.000 C 
ATOM     16  C   UNL     1       8.048  11.042  17.744  0.00  0.00    +0.000 C 
ATOM     17  C   UNL     1       8.665  12.424  17.579  0.00  0.00    +0.000 C 
ATOM     18  C   UNL     1       9.250  12.899  18.905  0.00  0.00    +0.000 C 
ATOM     19  N   UNL     1      10.258  11.952  19.399  0.00  0.00    +0.000 NA
ATOM     20  C   UNL     1      10.860  12.462  20.631  0.00  0.00    +0.000 C 
ATOM     21  C   UNL     1       9.683  10.613  19.621  0.00  0.00    +0.000 C 
ENDBRANCH  14  15
ENDBRANCH  13  14
ENDBRANCH   3  13
TORSDOF 5
ENDMDL
MODEL 4
REMARK VINA RESULT:      -6.8      0.623      1.257
REMARK  Name = 
REMARK  6 active torsions:
REMARK  status: ('A' for Active; 'I' for Inactive)
REMARK    1  A    between atoms: C_2  and  C_3
REMARK    2  A    between atoms: C_6  and  C_7
REMARK    3  A    between atoms: N_9  and  C_10
REMARK    4  A    between atoms: C_10  and  C_11
REMARK    5  A    between atoms: C_11  and  C_12
REMARK    6  A    between atoms: N_16  and  C_17
REMARK                            x       y       z     vdW  Elec       q    Type
REMARK                         _______ _______ _______ _____ _____    ______ ____
ROOT
ATOM      1  C   UNL     1       5.475   4.330  18.334  0.00  0.00    +0.000 C 
ATOM      2  O   UNL     1       5.429   3.704  19.381  0.00  0.00    +0.000 OA
ATOM      3  N   UNL     1       4.742   3.961  17.219  0.00  0.00    +0.000 N 
ATOM      4  H   UNL     1       4.740   4.509  16.373  0.00  0.00    +0.000 HD
ENDROOT
BRANCH   1   8
ATOM      5  C   UNL     1       7.959   7.837  18.200  0.00  0.00    +0.000 A 
ATOM      6  C   UNL     1       8.245   6.774  19.069  0.00  0.00    +0.000 A 
ATOM      7  C   UNL     1       7.443   5.633  19.073  0.00  0.00    +0.000 A 
ATOM      8  C   UNL     1       6.329   5.541  18.230  0.00  0.00    +0.000 A 
ATOM      9  C   UNL     1       6.055   6.592  17.346  0.00  0.00    +0.000 A 
ATOM     10  C   UNL     1       6.858   7.727  17.343  0.00  0.00    +0.000 A 
BRANCH   5  12
ATOM     11  C   UNL     1       8.330  10.248  17.854  0.00  0.00    +0.000 C 
ATOM     12  C   UNL     1       8.790   9.040  18.223  0.00  0.00    +0.000 C 
ENDBRANCH   5  12
ENDBRANCH   1   8
BRANCH   3  13
ATOM     13  C   UNL     1       3.889   2.799  17.271  0.00  0.00    +0.000 C 
BRANCH  13  14
ATOM     14  C   UNL     1       2.398   3.152  17.229  0.00  0.00    +0.000 C 
BRANCH  14  15
ATOM     15  C   UNL     1       1.781   3.370  18.630  0.00  0.00    +0.000 C 
ATOM     16  C   UNL     1       2.335   2.385  19.669  0.00  0.00    +0.000 C 
ATOM     17  C   UNL     1       1.779   2.670  21.058  0.00  0.00    +0.000 C 
ATOM     18  C   UNL     1       2.034   4.125  21.437  0.00  0.00    +0.000 C 
ATOM     19  N   UNL     1       1.428   5.034  20.456  0.00  0.00    +0.000 NA
ATOM     20  C   UNL     1       1.619   6.422  20.876  0.00  0.00    +0.000 C 
ATOM     21  C   UNL     1       1.981   4.822  19.106  0.00  0.00    +0.000 C 
ENDBRANCH  14  15
ENDBRANCH  13  14
ENDBRANCH   3  13
TORSDOF 5
ENDMDL
MODEL 5
REMARK VINA RESULT:      -6.8      3.703      6.522
REMARK  Name = 
REMARK  6 active torsions:
REMARK  status: ('A' for Active; 'I' for Inactive)
REMARK    1  A    between atoms: C_2  and  C_3
REMARK    2  A    between atoms: C_6  and  C_7
REMARK    3  A    between atoms: N_9  and  C_10
REMARK    4  A    between atoms: C_10  and  C_11
REMARK    5  A    between atoms: C_11  and  C_12
REMARK    6  A    between atoms: N_16  and  C_17
REMARK                            x       y       z     vdW  Elec       q    Type
REMARK                         _______ _______ _______ _____ _____    ______ ____
ROOT
ATOM      1  C   UNL     1       1.860   8.783  18.501  0.00  0.00    +0.000 C 
ATOM      2  O   UNL     1       1.756   9.379  17.441  0.00  0.00    +0.000 OA
ATOM      3  N   UNL     1       2.701   7.695  18.659  0.00  0.00    +0.000 N 
ATOM      4  H   UNL     1       2.826   7.236  19.548  0.00  0.00    +0.000 HD
ENDROOT
BRANCH   1   8
ATOM      5  C   UNL     1      -0.372  10.227  21.881  0.00  0.00    +0.000 A 
ATOM      6  C   UNL     1      -0.447  10.862  20.633  0.00  0.00    +0.000 A 
ATOM      7  C   UNL     1       0.261  10.357  19.543  0.00  0.00    +0.000 A 
ATOM      8  C   UNL     1       1.076   9.227  19.682  0.00  0.00    +0.000 A 
ATOM      9  C   UNL     1       1.133   8.578  20.922  0.00  0.00    +0.000 A 
ATOM     10  C   UNL     1       0.424   9.083  22.006  0.00  0.00    +0.000 A 
BRANCH   5  12
ATOM     11  C   UNL     1      -1.591  12.029  23.036  0.00  0.00    +0.000 C 
ATOM     12  C   UNL     1      -1.097  10.779  23.024  0.00  0.00    +0.000 C 
ENDBRANCH   5  12
ENDBRANCH   1   8
BRANCH   3  13
ATOM     13  C   UNL     1       3.492   7.229  17.546  0.00  0.00    +0.000 C 
BRANCH  13  14
ATOM     14  C   UNL     1       4.178   5.887  17.822  0.00  0.00    +0.000 C 
BRANCH  14  15
ATOM     15  C   UNL     1       3.185   4.749  18.154  0.00  0.00    +0.000 C 
ATOM     16  C   UNL     1       3.379   3.525  17.248  0.00  0.00    +0.000 C 
ATOM     17  C   UNL     1       2.450   2.386  17.644  0.00  0.00    +0.000 C 
ATOM     18  C   UNL     1       2.627   2.054  19.122  0.00  0.00    +0.000 C 
ATOM     19  N   UNL     1       2.364   3.232  19.957  0.00  0.00    +0.000 NA
ATOM     20  C   UNL     1       2.466   2.875  21.372  0.00  0.00    +0.000 C 
ATOM     21  C   UNL     1       3.281   4.341  19.637  0.00  0.00    +0.000 C 
ENDBRANCH  14  15
ENDBRANCH  13  14
ENDBRANCH   3  13
TORSDOF 5
ENDMDL
MODEL 6
REMARK VINA RESULT:      -6.7      3.804      8.753
REMARK  Name = 
REMARK  6 active torsions:
REMARK  status: ('A' for Active; 'I' for Inactive)
REMARK    1  A    between atoms: C_2  and  C_3
REMARK    2  A    between atoms: C_6  and  C_7
REMARK    3  A    between atoms: N_9  and  C_10
REMARK    4  A    between atoms: C_10  and  C_11
REMARK    5  A    between atoms: C_11  and  C_12
REMARK    6  A    between atoms: N_16  and  C_17
REMARK                            x       y       z     vdW  Elec       q    Type
REMARK                         _______ _______ _______ _____ _____    ______ ____
ROOT
ATOM      1  C   UNL     1       7.018   7.076  17.227  0.00  0.00    +0.000 C 
ATOM      2  O   UNL     1       7.811   6.738  16.363  0.00  0.00    +0.000 OA
ATOM      3  N   UNL     1       7.150   8.263  17.927  0.00  0.00    +0.000 N 
ATOM      4  H   UNL     1       6.466   8.567  18.603  0.00  0.00    +0.000 HD
ENDROOT
BRANCH   1   8
ATOM      5  C   UNL     1       3.736   4.437  18.091  0.00  0.00    +0.000 A 
ATOM      6  C   UNL     1       5.064   4.040  18.300  0.00  0.00    +0.000 A 
ATOM      7  C   UNL     1       6.112   4.924  18.042  0.00  0.00    +0.000 A 
ATOM      8  C   UNL     1       5.856   6.209  17.549  0.00  0.00    +0.000 A 
ATOM      9  C   UNL     1       4.528   6.615  17.361  0.00  0.00    +0.000 A 
ATOM     10  C   UNL     1       3.486   5.732  17.621  0.00  0.00    +0.000 A 
BRANCH   5  12
ATOM     11  C   UNL     1       1.362   3.779  18.066  0.00  0.00    +0.000 C 
ATOM     12  C   UNL     1       2.646   3.494  18.339  0.00  0.00    +0.000 C 
ENDBRANCH   5  12
ENDBRANCH   1   8
BRANCH   3  13
ATOM     13  C   UNL     1       8.255   9.146  17.646  0.00  0.00    +0.000 C 
BRANCH  13  14
ATOM     14  C   UNL     1       9.055   9.518  18.900  0.00  0.00    +0.000 C 
BRANCH  14  15
ATOM     15  C   UNL     1       9.376  11.027  18.996  0.00  0.00    +0.000 C 
ATOM     16  C   UNL     1       9.935  11.416  20.372  0.00  0.00    +0.000 C 
ATOM     17  C   UNL     1      10.323  12.888  20.420  0.00  0.00    +0.000 C 
ATOM     18  C   UNL     1      11.286  13.214  19.283  0.00  0.00    +0.000 C 
ATOM     19  N   UNL     1      10.685  12.894  17.982  0.00  0.00    +0.000 NA
ATOM     20  C   UNL     1      11.594  13.282  16.903  0.00  0.00    +0.000 C 
ATOM     21  C   UNL     1      10.344  11.463  17.879  0.00  0.00    +0.000 C 
ENDBRANCH  14  15
ENDBRANCH  13  14
ENDBRANCH   3  13
TORSDOF 5
ENDMDL
MODEL 7
REMARK VINA RESULT:      -6.7      3.770      8.656
REMARK  Name = 
REMARK  6 active torsions:
REMARK  status: ('A' for Active; 'I' for Inactive)
REMARK    1  A    between atoms: C_2  and  C_3
REMARK    2  A    between atoms: C_6  and  C_7
REMARK    3  A    between atoms: N_9  and  C_10
REMARK    4  A    between atoms: C_10  and  C_11
REMARK    5  A    between atoms: C_11  and  C_12
REMARK    6  A    between atoms: N_16  and  C_17
REMARK                            x       y       z     vdW  Elec       q    Type
REMARK                         _______ _______ _______ _____ _____    ______ ____
ROOT
ATOM      1  C   UNL     1       7.006   7.050  17.259  0.00  0.00    +0.000 C 
ATOM      2  O   UNL     1       7.789   6.747  16.374  0.00  0.00    +0.000 OA
ATOM      3  N   UNL     1       7.129   8.221  17.987  0.00  0.00    +0.000 N 
ATOM      4  H   UNL     1       6.452   8.495  18.682  0.00  0.00    +0.000 HD
ENDROOT
BRANCH   1   8
ATOM      5  C   UNL     1       3.622   4.589  18.251  0.00  0.00    +0.000 A 
ATOM      6  C   UNL     1       3.456   5.873  17.713  0.00  0.00    +0.000 A 
ATOM      7  C   UNL     1       4.568   6.642  17.370  0.00  0.00    +0.000 A 
ATOM      8  C   UNL     1       5.864   6.154  17.579  0.00  0.00    +0.000 A 
ATOM      9  C   UNL     1       6.031   4.862  18.094  0.00  0.00    +0.000 A 
ATOM     10  C   UNL     1       4.920   4.099  18.433  0.00  0.00    +0.000 A 
BRANCH   5  12
ATOM     11  C   UNL     1       1.574   4.209  19.566  0.00  0.00    +0.000 C 
ATOM     12  C   UNL     1       2.450   3.802  18.632  0.00  0.00    +0.000 C 
ENDBRANCH   5  12
ENDBRANCH   1   8
BRANCH   3  13
ATOM     13  C   UNL     1       8.214   9.130  17.710  0.00  0.00    +0.000 C 
BRANCH  13  14
ATOM     14  C   UNL     1       9.021   9.495  18.960  0.00  0.00    +0.000 C 
BRANCH  14  15
ATOM     15  C   UNL     1       9.363  11.000  19.051  0.00  0.00    +0.000 C 
ATOM     16  C   UNL     1      10.038  11.364  20.381  0.00  0.00    +0.000 C 
ATOM     17  C   UNL     1      10.443  12.831  20.417  0.00  0.00    +0.000 C 
ATOM     18  C   UNL     1      11.312  13.166  19.209  0.00  0.00    +0.000 C 
ATOM     19  N   UNL     1      10.602  12.870  17.958  0.00  0.00    +0.000 NA
ATOM     20  C   UNL     1      11.422  13.267  16.813  0.00  0.00    +0.000 C 
ATOM     21  C   UNL     1      10.240  11.444  17.864  0.00  0.00    +0.000 C 
ENDBRANCH  14  15
ENDBRANCH  13  14
ENDBRANCH   3  13
TORSDOF 5
ENDMDL
MODEL 8
REMARK VINA RESULT:      -6.6      3.895      5.541
REMARK  Name = 
REMARK  6 active torsions:
REMARK  status: ('A' for Active; 'I' for Inactive)
REMARK    1  A    between atoms: C_2  and  C_3
REMARK    2  A    between atoms: C_6  and  C_7
REMARK    3  A    between atoms: N_9  and  C_10
REMARK    4  A    between atoms: C_10  and  C_11
REMARK    5  A    between atoms: C_11  and  C_12
REMARK    6  A    between atoms: N_16  and  C_17
REMARK                            x       y       z     vdW  Elec       q    Type
REMARK                         _______ _______ _______ _____ _____    ______ ____
ROOT
ATOM      1  C   UNL     1       6.129   5.804  15.641  0.00  0.00    +0.000 C 
ATOM      2  O   UNL     1       5.435   6.807  15.595  0.00  0.00    +0.000 OA
ATOM      3  N   UNL     1       6.725   5.370  16.813  0.00  0.00    +0.000 N 
ATOM      4  H   UNL     1       7.253   4.513  16.861  0.00  0.00    +0.000 HD
ENDROOT
BRANCH   1   8
ATOM      5  C   UNL     1       6.716   3.327  12.176  0.00  0.00    +0.000 A 
ATOM      6  C   UNL     1       5.612   3.148  13.020  0.00  0.00    +0.000 A 
ATOM      7  C   UNL     1       5.425   3.983  14.121  0.00  0.00    +0.000 A 
ATOM      8  C   UNL     1       6.347   4.995  14.414  0.00  0.00    +0.000 A 
ATOM      9  C   UNL     1       7.439   5.190  13.558  0.00  0.00    +0.000 A 
ATOM     10  C   UNL     1       7.621   4.357  12.460  0.00  0.00    +0.000 A 
BRANCH   5  12
ATOM     11  C   UNL     1       6.502   1.151  11.041  0.00  0.00    +0.000 C 
ATOM     12  C   UNL     1       6.918   2.429  11.039  0.00  0.00    +0.000 C 
ENDBRANCH   5  12
ENDBRANCH   1   8
BRANCH   3  13
ATOM     13  C   UNL     1       6.536   6.113  18.034  0.00  0.00    +0.000 C 
BRANCH  13  14
ATOM     14  C   UNL     1       6.068   5.235  19.200  0.00  0.00    +0.000 C 
BRANCH  14  15
ATOM     15  C   UNL     1       4.542   4.986  19.203  0.00  0.00    +0.000 C 
ATOM     16  C   UNL     1       3.765   6.124  18.525  0.00  0.00    +0.000 C 
ATOM     17  C   UNL     1       2.274   5.821  18.464  0.00  0.00    +0.000 C 
ATOM     18  C   UNL     1       2.039   4.471  17.794  0.00  0.00    +0.000 C 
ATOM     19  N   UNL     1       2.741   3.402  18.515  0.00  0.00    +0.000 NA
ATOM     20  C   UNL     1       2.443   2.107  17.902  0.00  0.00    +0.000 C 
ATOM     21  C   UNL     1       4.196   3.634  18.549  0.00  0.00    +0.000 C 
ENDBRANCH  14  15
ENDBRANCH  13  14
ENDBRANCH   3  13
TORSDOF 5
ENDMDL
MODEL 9
REMARK VINA RESULT:      -6.6      3.086      4.616
REMARK  Name = 
REMARK  6 active torsions:
REMARK  status: ('A' for Active; 'I' for Inactive)
REMARK    1  A    between atoms: C_2  and  C_3
REMARK    2  A    between atoms: C_6  and  C_7
REMARK    3  A    between atoms: N_9  and  C_10
REMARK    4  A    between atoms: C_10  and  C_11
REMARK    5  A    between atoms: C_11  and  C_12
REMARK    6  A    between atoms: N_16  and  C_17
REMARK                            x       y       z     vdW  Elec       q    Type
REMARK                         _______ _______ _______ _____ _____    ______ ____
ROOT
ATOM      1  C   UNL     1       5.226   4.755  18.539  0.00  0.00    +0.000 C 
ATOM      2  O   UNL     1       6.049   4.909  19.427  0.00  0.00    +0.000 OA
ATOM      3  N   UNL     1       3.867   4.689  18.794  0.00  0.00    +0.000 N 
ATOM      4  H   UNL     1       3.185   4.615  18.055  0.00  0.00    +0.000 HD
ENDROOT
BRANCH   1   8
ATOM      5  C   UNL     1       6.426   4.290  14.437  0.00  0.00    +0.000 A 
ATOM      6  C   UNL     1       5.110   4.031  14.844  0.00  0.00    +0.000 A 
ATOM      7  C   UNL     1       4.735   4.218  16.175  0.00  0.00    +0.000 A 
ATOM      8  C   UNL     1       5.671   4.644  17.126  0.00  0.00    +0.000 A 
ATOM      9  C   UNL     1       6.980   4.925  16.715  0.00  0.00    +0.000 A 
ATOM     10  C   UNL     1       7.349   4.739  15.388  0.00  0.00    +0.000 A 
BRANCH   5  12
ATOM     11  C   UNL     1       6.066   3.352  12.187  0.00  0.00    +0.000 C 
ATOM     12  C   UNL     1       6.815   4.064  13.045  0.00  0.00    +0.000 C 
ENDBRANCH   5  12
ENDBRANCH   1   8
BRANCH   3  13
ATOM     13  C   UNL     1       3.382   4.802  20.148  0.00  0.00    +0.000 C 
BRANCH  13  14
ATOM     14  C   UNL     1       2.098   5.632  20.253  0.00  0.00    +0.000 C 
BRANCH  14  15
ATOM     15  C   UNL     1       2.277   7.098  19.795  0.00  0.00    +0.000 C 
ATOM     16  C   UNL     1       2.138   7.253  18.273  0.00  0.00    +0.000 C 
ATOM     17  C   UNL     1       2.234   8.712  17.851  0.00  0.00    +0.000 C 
ATOM     18  C   UNL     1       1.217   9.550  18.620  0.00  0.00    +0.000 C 
ATOM     19  N   UNL     1       1.430   9.429  20.068  0.00  0.00    +0.000 NA
ATOM     20  C   UNL     1       0.495  10.296  20.784  0.00  0.00    +0.000 C 
ATOM     21  C   UNL     1       1.293   8.034  20.523  0.00  0.00    +0.000 C 
ENDBRANCH  14  15
ENDBRANCH  13  14
ENDBRANCH   3  13
TORSDOF 5
ENDMDL
