MODEL 1
REMARK VINA RESULT:      -7.3      0.000      0.000
REMARK  Name = 
REMARK  9 active torsions:
REMARK  status: ('A' for Active; 'I' for Inactive)
REMARK    1  A    between atoms: C_2  and  C_3
REMARK    2  A    between atoms: C_3  and  C_4
REMARK    3  A    between atoms: C_7  and  O_8
REMARK    4  A    between atoms: O_8  and  C_9
REMARK    5  A    between atoms: C_9  and  C_10
REMARK    6  A    between atoms: C_13  and  C_14
REMARK    7  A    between atoms: C_14  and  O_16
REMARK    8  A    between atoms: C_18  and  O_19
REMARK    9  A    between atoms: O_19  and  C_20
REMARK                            x       y       z     vdW  Elec       q    Type
REMARK                         _______ _______ _______ _____ _____    ______ ____
ROOT
ATOM      1  C   UNL     1       3.613   4.960  19.111  0.00  0.00    +0.000 A 
ATOM      2  C   UNL     1       3.267   4.459  17.856  0.00  0.00    +0.000 A 
ATOM      3  C   UNL     1       4.258   4.125  16.931  0.00  0.00    +0.000 A 
ATOM      4  C   UNL     1       5.615   4.311  17.225  0.00  0.00    +0.000 A 
ATOM      5  C   UNL     1       5.977   4.752  18.512  0.00  0.00    +0.000 A 
ATOM      6  C   UNL     1       4.972   5.107  19.428  0.00  0.00    +0.000 A 
ENDROOT
BRANCH   5   7
ATOM      7  O   UNL     1       7.317   4.849  18.805  0.00  0.00    +0.000 OA
ATOM      8  C   UNL     1       7.834   6.178  18.875  0.00  0.00    +0.000 C 
ENDBRANCH   5   7
BRANCH   1   9
ATOM      9  C   UNL     1       2.538   5.326  20.105  0.00  0.00    +0.000 C 
BRANCH   9  11
ATOM     10  C   UNL     1       0.810   3.512  20.286  0.00  0.00    +0.000 C 
ATOM     11  C   UNL     1       1.899   4.133  20.756  0.00  0.00    +0.000 C 
ENDBRANCH   9  11
ENDBRANCH   1   9
BRANCH   4  12
ATOM     12  O   UNL     1       6.620   4.077  16.306  0.00  0.00    +0.000 OA
BRANCH  12  13
ATOM     13  C   UNL     1       6.874   5.164  15.408  0.00  0.00    +0.000 C 
BRANCH  13  14
ATOM     14  C   UNL     1       6.963   4.652  14.015  0.00  0.00    +0.000 A 
ATOM     15  C   UNL     1       7.708   5.038  12.922  0.00  0.00    +0.000 A 
ATOM     16  C   UNL     1       7.231   4.290  11.821  0.00  0.00    +0.000 A 
ATOM     17  C   UNL     1       6.222   3.478  12.298  0.00  0.00    +0.000 A 
ATOM     18  O   UNL     1       6.054   3.697  13.645  0.00  0.00    +0.000 OA
BRANCH  17  19
ATOM     19  C   UNL     1       5.371   2.527  11.623  0.00  0.00    +0.000 C 
ATOM     20  O   UNL     1       4.243   2.738  11.199  0.00  0.00    +0.000 OA
BRANCH  19  21
ATOM     21  O   UNL     1       5.976   1.312  11.513  0.00  0.00    +0.000 OA
ATOM     22  H   UNL     1       5.467   0.645  12.020  0.00  0.00    +0.000 HD
ENDBRANCH  19  21
ENDBRANCH  17  19
ENDBRANCH  13  14
ENDBRANCH  12  13
ENDBRANCH   4  12
TORSDOF 8
ENDMDL
MODEL 2
REMARK VINA RESULT:      -7.0      2.044      3.221
REMARK  Name = 
REMARK  9 active torsions:
REMARK  status: ('A' for Active; 'I' for Inactive)
REMARK    1  A    between atoms: C_2  and  C_3
REMARK    2  A    between atoms: C_3  and  C_4
REMARK    3  A    between atoms: C_7  and  O_8
REMARK    4  A    between atoms: O_8  and  C_9
REMARK    5  A    between atoms: C_9  and  C_10
REMARK    6  A    between atoms: C_13  and  C_14
REMARK    7  A    between atoms: C_14  and  O_16
REMARK    8  A    between atoms: C_18  and  O_19
REMARK    9  A    between atoms: O_19  and  C_20
REMARK                            x       y       z     vdW  Elec       q    Type
REMARK                         _______ _______ _______ _____ _____    ______ ____
ROOT
ATOM      1  C   UNL     1       2.312   4.793  19.687  0.00  0.00    +0.000 A 
ATOM      2  C   UNL     1       3.534   4.192  19.992  0.00  0.00    +0.000 A 
ATOM      3  C   UNL     1       4.720   4.694  19.453  0.00  0.00    +0.000 A 
ATOM      4  C   UNL     1       4.713   5.786  18.576  0.00  0.00    +0.000 A 
ATOM      5  C   UNL     1       3.493   6.440  18.315  0.00  0.00    +0.000 A 
ATOM      6  C   UNL     1       2.302   5.914  18.843  0.00  0.00    +0.000 A 
ENDROOT
BRANCH   5   7
ATOM      7  O   UNL     1       3.521   7.558  17.515  0.00  0.00    +0.000 OA
ATOM      8  C   UNL     1       2.544   8.553  17.819  0.00  0.00    +0.000 C 
ENDBRANCH   5   7
BRANCH   1   9
ATOM      9  C   UNL     1       1.031   4.243  20.266  0.00  0.00    +0.000 C 
BRANCH   9  11
ATOM     10  C   UNL     1       0.734   2.281  18.727  0.00  0.00    +0.000 C 
ATOM     11  C   UNL     1       0.818   2.788  19.963  0.00  0.00    +0.000 C 
ENDBRANCH   9  11
ENDBRANCH   1   9
BRANCH   4  12
ATOM     12  O   UNL     1       5.854   6.255  17.953  0.00  0.00    +0.000 OA
BRANCH  12  13
ATOM     13  C   UNL     1       6.798   5.239  17.592  0.00  0.00    +0.000 C 
BRANCH  13  14
ATOM     14  C   UNL     1       6.600   4.856  16.169  0.00  0.00    +0.000 A 
ATOM     15  C   UNL     1       5.817   3.901  15.557  0.00  0.00    +0.000 A 
ATOM     16  C   UNL     1       6.186   3.888  14.193  0.00  0.00    +0.000 A 
ATOM     17  C   UNL     1       7.171   4.842  14.036  0.00  0.00    +0.000 A 
ATOM     18  O   UNL     1       7.429   5.439  15.247  0.00  0.00    +0.000 OA
BRANCH  17  19
ATOM     19  C   UNL     1       7.925   5.245  12.873  0.00  0.00    +0.000 C 
ATOM     20  O   UNL     1       8.827   6.070  12.845  0.00  0.00    +0.000 OA
BRANCH  19  21
ATOM     21  O   UNL     1       7.499   4.593  11.756  0.00  0.00    +0.000 OA
ATOM     22  H   UNL     1       8.157   4.707  11.039  0.00  0.00    +0.000 HD
ENDBRANCH  19  21
ENDBRANCH  17  19
ENDBRANCH  13  14
ENDBRANCH  12  13
ENDBRANCH   4  12
TORSDOF 8
ENDMDL
MODEL 3
REMARK VINA RESULT:      -7.0      2.999      7.018
REMARK  Name = 
REMARK  9 active torsions:
REMARK  status: ('A' for Active; 'I' for Inactive)
REMARK    1  A    between atoms: C_2  and  C_3
REMARK    2  A    between atoms: C_3  and  C_4
REMARK    3  A    between atoms: C_7  and  O_8
REMARK    4  A    between atoms: O_8  and  C_9
REMARK    5  A    between atoms: C_9  and  C_10
REMARK    6  A    between atoms: C_13  and  C_14
REMARK    7  A    between atoms: C_14  and  O_16
REMARK    8  A    between atoms: C_18  and  O_19
REMARK    9  A    between atoms: O_19  and  C_20
REMARK                            x       y       z     vdW  Elec       q    Type
REMARK                         _______ _______ _______ _____ _____    ______ ____
ROOT
ATOM      1  C   UNL     1       6.369   5.038  15.035  0.00  0.00    +0.000 A 
ATOM      2  C   UNL     1       5.261   5.881  15.120  0.00  0.00    +0.000 A 
ATOM      3  C   UNL     1       4.764   6.270  16.366  0.00  0.00    +0.000 A 
ATOM      4  C   UNL     1       5.341   5.802  17.554  0.00  0.00    +0.000 A 
ATOM      5  C   UNL     1       6.499   5.005  17.479  0.00  0.00    +0.000 A 
ATOM      6  C   UNL     1       6.979   4.601  16.222  0.00  0.00    +0.000 A 
ENDROOT
BRANCH   5   7
ATOM      7  O   UNL     1       7.095   4.625  18.659  0.00  0.00    +0.000 OA
ATOM      8  C   UNL     1       7.928   5.610  19.270  0.00  0.00    +0.000 C 
ENDBRANCH   5   7
BRANCH   1   9
ATOM      9  C   UNL     1       6.900   4.616  13.687  0.00  0.00    +0.000 C 
BRANCH   9  11
ATOM     10  C   UNL     1       5.451   3.417  12.021  0.00  0.00    +0.000 C 
ATOM     11  C   UNL     1       6.206   3.407  13.127  0.00  0.00    +0.000 C 
ENDBRANCH   9  11
ENDBRANCH   1   9
BRANCH   4  12
ATOM     12  O   UNL     1       4.824   6.092  18.803  0.00  0.00    +0.000 OA
BRANCH  12  13
ATOM     13  C   UNL     1       3.413   6.342  18.822  0.00  0.00    +0.000 C 
BRANCH  13  14
ATOM     14  C   UNL     1       2.685   5.077  19.106  0.00  0.00    +0.000 A 
ATOM     15  C   UNL     1       1.701   4.391  18.427  0.00  0.00    +0.000 A 
ATOM     16  C   UNL     1       1.274   3.346  19.278  0.00  0.00    +0.000 A 
ATOM     17  C   UNL     1       2.024   3.441  20.433  0.00  0.00    +0.000 A 
ATOM     18  O   UNL     1       2.891   4.502  20.332  0.00  0.00    +0.000 OA
BRANCH  17  19
ATOM     19  C   UNL     1       2.002   2.656  21.645  0.00  0.00    +0.000 C 
ATOM     20  O   UNL     1       1.021   2.421  22.337  0.00  0.00    +0.000 OA
BRANCH  19  21
ATOM     21  O   UNL     1       3.244   2.195  21.959  0.00  0.00    +0.000 OA
ATOM     22  H   UNL     1       3.705   1.913  21.142  0.00  0.00    +0.000 HD
ENDBRANCH  19  21
ENDBRANCH  17  19
ENDBRANCH  13  14
ENDBRANCH  12  13
ENDBRANCH   4  12
TORSDOF 8
ENDMDL
MODEL 4
REMARK VINA RESULT:      -7.0      2.812      7.059
REMARK  Name = 
REMARK  9 active torsions:
REMARK  status: ('A' for Active; 'I' for Inactive)
REMARK    1  A    between atoms: C_2  and  C_3
REMARK    2  A    between atoms: C_3  and  C_4
REMARK    3  A    between atoms: C_7  and  O_8
REMARK    4  A    between atoms: O_8  and  C_9
REMARK    5  A    between atoms: C_9  and  C_10
REMARK    6  A    between atoms: C_13  and  C_14
REMARK    7  A    between atoms: C_14  and  O_16
REMARK    8  A    between atoms: C_18  and  O_19
REMARK    9  A    between atoms: O_19  and  C_20
REMARK                            x       y       z     vdW  Elec       q    Type
REMARK                         _______ _______ _______ _____ _____    ______ ____
ROOT
ATOM      1  C   UNL     1       7.263   6.350  18.083  0.00  0.00    +0.000 A 
ATOM      2  C   UNL     1       6.728   5.563  19.103  0.00  0.00    +0.000 A 
ATOM      3  C   UNL     1       5.778   4.582  18.812  0.00  0.00    +0.000 A 
ATOM      4  C   UNL     1       5.319   4.384  17.504  0.00  0.00    +0.000 A 
ATOM      5  C   UNL     1       5.901   5.127  16.459  0.00  0.00    +0.000 A 
ATOM      6  C   UNL     1       6.839   6.127  16.764  0.00  0.00    +0.000 A 
ENDROOT
BRANCH   5   7
ATOM      7  O   UNL     1       5.492   4.859  15.173  0.00  0.00    +0.000 OA
ATOM      8  C   UNL     1       6.486   4.293  14.320  0.00  0.00    +0.000 C 
ENDBRANCH   5   7
BRANCH   1   9
ATOM      9  C   UNL     1       8.285   7.414  18.403  0.00  0.00    +0.000 C 
BRANCH   9  11
ATOM     10  C   UNL     1       8.608   9.886  18.099  0.00  0.00    +0.000 C 
ATOM     11  C   UNL     1       7.954   8.753  17.811  0.00  0.00    +0.000 C 
ENDBRANCH   9  11
ENDBRANCH   1   9
BRANCH   4  12
ATOM     12  O   UNL     1       4.316   3.485  17.189  0.00  0.00    +0.000 OA
BRANCH  12  13
ATOM     13  C   UNL     1       3.002   4.054  17.129  0.00  0.00    +0.000 C 
BRANCH  13  14
ATOM     14  C   UNL     1       2.494   4.281  18.508  0.00  0.00    +0.000 A 
ATOM     15  C   UNL     1       2.143   5.421  19.200  0.00  0.00    +0.000 A 
ATOM     16  C   UNL     1       1.904   5.027  20.536  0.00  0.00    +0.000 A 
ATOM     17  C   UNL     1       2.114   3.663  20.594  0.00  0.00    +0.000 A 
ATOM     18  O   UNL     1       2.477   3.202  19.351  0.00  0.00    +0.000 OA
BRANCH  17  19
ATOM     19  C   UNL     1       2.037   2.738  21.699  0.00  0.00    +0.000 C 
ATOM     20  O   UNL     1       1.042   2.488  22.365  0.00  0.00    +0.000 OA
BRANCH  19  21
ATOM     21  O   UNL     1       3.244   2.156  21.943  0.00  0.00    +0.000 OA
ATOM     22  H   UNL     1       3.348   1.366  21.373  0.00  0.00    +0.000 HD
ENDBRANCH  19  21
ENDBRANCH  17  19
ENDBRANCH  13  14
ENDBRANCH  12  13
ENDBRANCH   4  12
TORSDOF 8
ENDMDL
MODEL 5
REMARK VINA RESULT:      -6.9      3.180      6.708
REMARK  Name = 
REMARK  9 active torsions:
REMARK  status: ('A' for Active; 'I' for Inactive)
REMARK    1  A    between atoms: C_2  and  C_3
REMARK    2  A    between atoms: C_3  and  C_4
REMARK    3  A    between atoms: C_7  and  O_8
REMARK    4  A    between atoms: O_8  and  C_9
REMARK    5  A    between atoms: C_9  and  C_10
REMARK    6  A    between atoms: C_13  and  C_14
REMARK    7  A    between atoms: C_14  and  O_16
REMARK    8  A    between atoms: C_18  and  O_19
REMARK    9  A    between atoms: O_19  and  C_20
REMARK                            x       y       z     vdW  Elec       q    Type
REMARK                         _______ _______ _______ _____ _____    ______ ____
ROOT
ATOM      1  C   UNL     1       8.018   8.090  17.925  0.00  0.00    +0.000 A 
ATOM      2  C   UNL     1       8.295   7.286  19.031  0.00  0.00    +0.000 A 
ATOM      3  C   UNL     1       7.802   5.981  19.097  0.00  0.00    +0.000 A 
ATOM      4  C   UNL     1       6.997   5.459  18.076  0.00  0.00    +0.000 A 
ATOM      5  C   UNL     1       6.767   6.238  16.926  0.00  0.00    +0.000 A 
ATOM      6  C   UNL     1       7.248   7.558  16.879  0.00  0.00    +0.000 A 
ENDROOT
BRANCH   5   7
ATOM      7  O   UNL     1       6.042   5.676  15.902  0.00  0.00    +0.000 OA
ATOM      8  C   UNL     1       6.809   4.996  14.909  0.00  0.00    +0.000 C 
ENDBRANCH   5   7
BRANCH   1   9
ATOM      9  C   UNL     1       8.548   9.502  17.862  0.00  0.00    +0.000 C 
BRANCH   9  11
ATOM     10  C   UNL     1      10.019  10.984  19.256  0.00  0.00    +0.000 C 
ATOM     11  C   UNL     1       9.154   9.968  19.154  0.00  0.00    +0.000 C 
ENDBRANCH   9  11
ENDBRANCH   1   9
BRANCH   4  12
ATOM     12  O   UNL     1       6.417   4.206  18.145  0.00  0.00    +0.000 OA
BRANCH  12  13
ATOM     13  C   UNL     1       5.473   4.043  19.210  0.00  0.00    +0.000 C 
BRANCH  13  14
ATOM     14  C   UNL     1       4.092   4.044  18.658  0.00  0.00    +0.000 A 
ATOM     15  C   UNL     1       3.460   4.833  17.722  0.00  0.00    +0.000 A 
ATOM     16  C   UNL     1       2.093   4.471  17.743  0.00  0.00    +0.000 A 
ATOM     17  C   UNL     1       1.960   3.473  18.688  0.00  0.00    +0.000 A 
ATOM     18  O   UNL     1       3.185   3.208  19.252  0.00  0.00    +0.000 OA
BRANCH  17  19
ATOM     19  C   UNL     1       0.797   2.750  19.145  0.00  0.00    +0.000 C 
ATOM     20  O   UNL     1       0.123   1.973  18.483  0.00  0.00    +0.000 OA
BRANCH  19  21
ATOM     21  O   UNL     1       0.508   3.044  20.443  0.00  0.00    +0.000 OA
ATOM     22  H   UNL     1       1.263   3.521  20.846  0.00  0.00    +0.000 HD
ENDBRANCH  19  21
ENDBRANCH  17  19
ENDBRANCH  13  14
ENDBRANCH  12  13
ENDBRANCH   4  12
TORSDOF 8
ENDMDL
MODEL 6
REMARK VINA RESULT:      -6.8      2.108      3.230
REMARK  Name = 
REMARK  9 active torsions:
REMARK  status: ('A' for Active; 'I' for Inactive)
REMARK    1  A    between atoms: C_2  and  C_3
REMARK    2  A    between atoms: C_3  and  C_4
REMARK    3  A    between atoms: C_7  and  O_8
REMARK    4  A    between atoms: O_8  and  C_9
REMARK    5  A    between atoms: C_9  and  C_10
REMARK    6  A    between atoms: C_13  and  C_14
REMARK    7  A    between atoms: C_14  and  O_16
REMARK    8  A    between atoms: C_18  and  O_19
REMARK    9  A    between atoms: O_19  and  C_20
REMARK                            x       y       z     vdW  Elec       q    Type
REMARK                         _______ _______ _______ _____ _____    ______ ____
ROOT
ATOM      1  C   UNL     1       2.395   4.601  19.195  0.00  0.00    +0.000 A 
ATOM      2  C   UNL     1       3.654   4.161  19.605  0.00  0.00    +0.000 A 
ATOM      3  C   UNL     1       4.804   4.848  19.212  0.00  0.00    +0.000 A 
ATOM      4  C   UNL     1       4.727   5.970  18.377  0.00  0.00    +0.000 A 
ATOM      5  C   UNL     1       3.459   6.461  18.013  0.00  0.00    +0.000 A 
ATOM      6  C   UNL     1       2.309   5.750  18.394  0.00  0.00    +0.000 A 
ENDROOT
BRANCH   5   7
ATOM      7  O   UNL     1       3.406   7.610  17.259  0.00  0.00    +0.000 OA
ATOM      8  C   UNL     1       2.494   8.605  17.724  0.00  0.00    +0.000 C 
ENDBRANCH   5   7
BRANCH   1   9
ATOM      9  C   UNL     1       1.155   3.851  19.617  0.00  0.00    +0.000 C 
BRANCH   9  11
ATOM     10  C   UNL     1       1.723   2.404  21.591  0.00  0.00    +0.000 C 
ATOM     11  C   UNL     1       1.143   3.496  21.076  0.00  0.00    +0.000 C 
ENDBRANCH   9  11
ENDBRANCH   1   9
BRANCH   4  12
ATOM     12  O   UNL     1       5.846   6.623  17.893  0.00  0.00    +0.000 OA
BRANCH  12  13
ATOM     13  C   UNL     1       6.946   5.764  17.570  0.00  0.00    +0.000 C 
BRANCH  13  14
ATOM     14  C   UNL     1       6.714   5.134  16.243  0.00  0.00    +0.000 A 
ATOM     15  C   UNL     1       6.029   4.004  15.850  0.00  0.00    +0.000 A 
ATOM     16  C   UNL     1       6.312   3.815  14.478  0.00  0.00    +0.000 A 
ATOM     17  C   UNL     1       7.150   4.844  14.097  0.00  0.00    +0.000 A 
ATOM     18  O   UNL     1       7.399   5.656  15.178  0.00  0.00    +0.000 OA
BRANCH  17  19
ATOM     19  C   UNL     1       7.770   5.142  12.828  0.00  0.00    +0.000 C 
ATOM     20  O   UNL     1       7.435   4.701  11.738  0.00  0.00    +0.000 OA
BRANCH  19  21
ATOM     21  O   UNL     1       8.822   5.994  12.978  0.00  0.00    +0.000 OA
ATOM     22  H   UNL     1       9.138   6.282  12.097  0.00  0.00    +0.000 HD
ENDBRANCH  19  21
ENDBRANCH  17  19
ENDBRANCH  13  14
ENDBRANCH  12  13
ENDBRANCH   4  12
TORSDOF 8
ENDMDL
MODEL 7
REMARK VINA RESULT:      -6.8      1.576      2.007
REMARK  Name = 
REMARK  9 active torsions:
REMARK  status: ('A' for Active; 'I' for Inactive)
REMARK    1  A    between atoms: C_2  and  C_3
REMARK    2  A    between atoms: C_3  and  C_4
REMARK    3  A    between atoms: C_7  and  O_8
REMARK    4  A    between atoms: O_8  and  C_9
REMARK    5  A    between atoms: C_9  and  C_10
REMARK    6  A    between atoms: C_13  and  C_14
REMARK    7  A    between atoms: C_14  and  O_16
REMARK    8  A    between atoms: C_18  and  O_19
REMARK    9  A    between atoms: O_19  and  C_20
REMARK                            x       y       z     vdW  Elec       q    Type
REMARK                         _______ _______ _______ _____ _____    ______ ____
ROOT
ATOM      1  C   UNL     1       3.209   4.672  19.701  0.00  0.00    +0.000 A 
ATOM      2  C   UNL     1       4.266   3.839  19.336  0.00  0.00    +0.000 A 
ATOM      3  C   UNL     1       5.096   4.179  18.266  0.00  0.00    +0.000 A 
ATOM      4  C   UNL     1       4.871   5.342  17.517  0.00  0.00    +0.000 A 
ATOM      5  C   UNL     1       3.849   6.222  17.919  0.00  0.00    +0.000 A 
ATOM      6  C   UNL     1       3.005   5.860  18.983  0.00  0.00    +0.000 A 
ENDROOT
BRANCH   5   7
ATOM      7  O   UNL     1       3.699   7.396  17.218  0.00  0.00    +0.000 OA
ATOM      8  C   UNL     1       2.768   8.325  17.772  0.00  0.00    +0.000 C 
ENDBRANCH   5   7
BRANCH   1   9
ATOM      9  C   UNL     1       2.311   4.297  20.855  0.00  0.00    +0.000 C 
BRANCH   9  11
ATOM     10  C   UNL     1       0.830   2.778  19.511  0.00  0.00    +0.000 C 
ATOM     11  C   UNL     1       0.982   3.749  20.421  0.00  0.00    +0.000 C 
ENDBRANCH   9  11
ENDBRANCH   1   9
BRANCH   4  12
ATOM     12  O   UNL     1       5.614   5.667  16.397  0.00  0.00    +0.000 OA
BRANCH  12  13
ATOM     13  C   UNL     1       6.734   4.808  16.153  0.00  0.00    +0.000 C 
BRANCH  13  14
ATOM     14  C   UNL     1       6.865   4.562  14.692  0.00  0.00    +0.000 A 
ATOM     15  C   UNL     1       7.623   5.159  13.707  0.00  0.00    +0.000 A 
ATOM     16  C   UNL     1       7.189   4.615  12.476  0.00  0.00    +0.000 A 
ATOM     17  C   UNL     1       6.192   3.706  12.771  0.00  0.00    +0.000 A 
ATOM     18  O   UNL     1       5.990   3.671  14.130  0.00  0.00    +0.000 OA
BRANCH  17  19
ATOM     19  C   UNL     1       5.382   2.877  11.911  0.00  0.00    +0.000 C 
ATOM     20  O   UNL     1       4.291   3.170  11.441  0.00  0.00    +0.000 OA
BRANCH  19  21
ATOM     21  O   UNL     1       5.977   1.674  11.678  0.00  0.00    +0.000 OA
ATOM     22  H   UNL     1       6.846   1.817  11.250  0.00  0.00    +0.000 HD
ENDBRANCH  19  21
ENDBRANCH  17  19
ENDBRANCH  13  14
ENDBRANCH  12  13
ENDBRANCH   4  12
TORSDOF 8
ENDMDL
MODEL 8
REMARK VINA RESULT:      -6.8      3.497      5.626
REMARK  Name = 
REMARK  9 active torsions:
REMARK  status: ('A' for Active; 'I' for Inactive)
REMARK    1  A    between atoms: C_2  and  C_3
REMARK    2  A    between atoms: C_3  and  C_4
REMARK    3  A    between atoms: C_7  and  O_8
REMARK    4  A    between atoms: O_8  and  C_9
REMARK    5  A    between atoms: C_9  and  C_10
REMARK    6  A    between atoms: C_13  and  C_14
REMARK    7  A    between atoms: C_14  and  O_16
REMARK    8  A    between atoms: C_18  and  O_19
REMARK    9  A    between atoms: O_19  and  C_20
REMARK                            x       y       z     vdW  Elec       q    Type
REMARK                         _______ _______ _______ _____ _____    ______ ____
ROOT
ATOM      1  C   UNL     1       2.104   3.707  18.698  0.00  0.00    +0.000 A 
ATOM      2  C   UNL     1       3.113   3.215  17.871  0.00  0.00    +0.000 A 
ATOM      3  C   UNL     1       3.957   4.092  17.188  0.00  0.00    +0.000 A 
ATOM      4  C   UNL     1       3.795   5.480  17.290  0.00  0.00    +0.000 A 
ATOM      5  C   UNL     1       2.823   5.987  18.174  0.00  0.00    +0.000 A 
ATOM      6  C   UNL     1       1.964   5.097  18.839  0.00  0.00    +0.000 A 
ENDROOT
BRANCH   5   7
ATOM      7  O   UNL     1       2.735   7.352  18.320  0.00  0.00    +0.000 OA
ATOM      8  C   UNL     1       2.087   7.801  19.509  0.00  0.00    +0.000 C 
ENDBRANCH   5   7
BRANCH   1   9
ATOM      9  C   UNL     1       1.190   2.755  19.430  0.00  0.00    +0.000 C 
BRANCH   9  11
ATOM     10  C   UNL     1       2.311   2.760  21.677  0.00  0.00    +0.000 C 
ATOM     11  C   UNL     1       1.219   2.929  20.920  0.00  0.00    +0.000 C 
ENDBRANCH   9  11
ENDBRANCH   1   9
BRANCH   4  12
ATOM     12  O   UNL     1       4.551   6.379  16.562  0.00  0.00    +0.000 OA
BRANCH  12  13
ATOM     13  C   UNL     1       5.842   5.896  16.172  0.00  0.00    +0.000 C 
BRANCH  13  14
ATOM     14  C   UNL     1       6.867   6.379  17.134  0.00  0.00    +0.000 A 
ATOM     15  C   UNL     1       7.509   5.780  18.197  0.00  0.00    +0.000 A 
ATOM     16  C   UNL     1       8.247   6.794  18.849  0.00  0.00    +0.000 A 
ATOM     17  C   UNL     1       8.025   7.963  18.148  0.00  0.00    +0.000 A 
ATOM     18  O   UNL     1       7.179   7.712  17.094  0.00  0.00    +0.000 OA
BRANCH  17  19
ATOM     19  C   UNL     1       8.502   9.307  18.370  0.00  0.00    +0.000 C 
ATOM     20  O   UNL     1       9.288   9.662  19.237  0.00  0.00    +0.000 OA
BRANCH  19  21
ATOM     21  O   UNL     1       7.952  10.182  17.483  0.00  0.00    +0.000 OA
ATOM     22  H   UNL     1       8.189   9.915  16.570  0.00  0.00    +0.000 HD
ENDBRANCH  19  21
ENDBRANCH  17  19
ENDBRANCH  13  14
ENDBRANCH  12  13
ENDBRANCH   4  12
TORSDOF 8
ENDMDL
MODEL 9
REMARK VINA RESULT:      -6.7      1.535      2.090
REMARK  Name = 
REMARK  9 active torsions:
REMARK  status: ('A' for Active; 'I' for Inactive)
REMARK    1  A    between atoms: C_2  and  C_3
REMARK    2  A    between atoms: C_3  and  C_4
REMARK    3  A    between atoms: C_7  and  O_8
REMARK    4  A    between atoms: O_8  and  C_9
REMARK    5  A    between atoms: C_9  and  C_10
REMARK    6  A    between atoms: C_13  and  C_14
REMARK    7  A    between atoms: C_14  and  O_16
REMARK    8  A    between atoms: C_18  and  O_19
REMARK    9  A    between atoms: O_19  and  C_20
REMARK                            x       y       z     vdW  Elec       q    Type
REMARK                         _______ _______ _______ _____ _____    ______ ____
ROOT
ATOM      1  C   UNL     1       2.185   3.570  18.559  0.00  0.00    +0.000 A 
ATOM      2  C   UNL     1       3.101   2.760  17.888  0.00  0.00    +0.000 A 
ATOM      3  C   UNL     1       4.250   3.313  17.320  0.00  0.00    +0.000 A 
ATOM      4  C   UNL     1       4.496   4.691  17.382  0.00  0.00    +0.000 A 
ATOM      5  C   UNL     1       3.613   5.507  18.114  0.00  0.00    +0.000 A 
ATOM      6  C   UNL     1       2.448   4.945  18.662  0.00  0.00    +0.000 A 
ENDROOT
BRANCH   5   7
ATOM      7  O   UNL     1       3.918   6.843  18.229  0.00  0.00    +0.000 OA
ATOM      8  C   UNL     1       2.877   7.744  17.851  0.00  0.00    +0.000 C 
ENDBRANCH   5   7
BRANCH   1   9
ATOM      9  C   UNL     1       0.941   2.968  19.166  0.00  0.00    +0.000 C 
BRANCH   9  11
ATOM     10  C   UNL     1       1.791   2.767  21.521  0.00  0.00    +0.000 C 
ATOM     11  C   UNL     1       0.852   3.162  20.653  0.00  0.00    +0.000 C 
ENDBRANCH   9  11
ENDBRANCH   1   9
BRANCH   4  12
ATOM     12  O   UNL     1       5.574   5.288  16.756  0.00  0.00    +0.000 OA
BRANCH  12  13
ATOM     13  C   UNL     1       5.290   5.822  15.457  0.00  0.00    +0.000 C 
BRANCH  13  14
ATOM     14  C   UNL     1       5.919   4.965  14.416  0.00  0.00    +0.000 A 
ATOM     15  C   UNL     1       7.198   4.898  13.907  0.00  0.00    +0.000 A 
ATOM     16  C   UNL     1       7.151   4.009  12.809  0.00  0.00    +0.000 A 
ATOM     17  C   UNL     1       5.845   3.572  12.705  0.00  0.00    +0.000 A 
ATOM     18  O   UNL     1       5.086   4.157  13.690  0.00  0.00    +0.000 OA
BRANCH  17  19
ATOM     19  C   UNL     1       5.217   2.678  11.762  0.00  0.00    +0.000 C 
ATOM     20  O   UNL     1       4.160   2.870  11.177  0.00  0.00    +0.000 OA
BRANCH  19  21
ATOM     21  O   UNL     1       5.949   1.542  11.592  0.00  0.00    +0.000 OA
ATOM     22  H   UNL     1       6.700   1.540  12.221  0.00  0.00    +0.000 HD
ENDBRANCH  19  21
ENDBRANCH  17  19
ENDBRANCH  13  14
ENDBRANCH  12  13
ENDBRANCH   4  12
TORSDOF 8
ENDMDL
