MODEL 1
REMARK VINA RESULT:      -7.8      0.000      0.000
REMARK  Name = 
REMARK  7 active torsions:
REMARK  status: ('A' for Active; 'I' for Inactive)
REMARK    1  A    between atoms: C_1  and  N_2
REMARK    2  A    between atoms: N_2  and  C_3
REMARK    3  A    between atoms: C_7  and  C_8
REMARK    4  A    between atoms: C_11  and  C_12
REMARK    5  A    between atoms: C_12  and  N_13
REMARK    6  A    between atoms: C_14  and  C_15
REMARK    7  A    between atoms: N_25  and  C_26
REMARK                            x       y       z     vdW  Elec       q    Type
REMARK                         _______ _______ _______ _____ _____    ______ ____
ROOT
ATOM      1  C   UNL     1      -0.926  12.685  19.738  0.00  0.00    +0.000 A 
ATOM      2  N   UNL     1      -0.268  12.051  18.719  0.00  0.00    +0.000 NA
ATOM      3  C   UNL     1       0.308  10.870  19.006  0.00  0.00    +0.000 A 
ATOM      4  S   UNL     1       1.176   9.927  17.906  0.00  0.00    +0.000 S 
ATOM      5  C   UNL     1       1.552   8.792  19.180  0.00  0.00    +0.000 A 
ATOM      6  N   UNL     1       0.976   9.047  20.355  0.00  0.00    +0.000 NA
ATOM      7  C   UNL     1       0.298  10.240  20.227  0.00  0.00    +0.000 A 
ATOM      8  C   UNL     1      -0.368  10.868  21.239  0.00  0.00    +0.000 A 
ATOM      9  C   UNL     1      -0.985  12.086  21.035  0.00  0.00    +0.000 A 
ATOM     10  N   UNL     1      -1.552  12.493  22.229  0.00  0.00    +0.000 NA
ATOM     11  C   UNL     1      -1.287  11.532  23.091  0.00  0.00    +0.000 A 
ATOM     12  N   UNL     1      -0.560  10.514  22.520  0.00  0.00    +0.000 N 
ATOM     13  C   UNL     1      -0.135   9.326  23.211  0.00  0.00    +0.000 C 
ENDROOT
BRANCH   5  14
ATOM     14  C   UNL     1       2.447   7.649  18.878  0.00  0.00    +0.000 A 
ATOM     15  C   UNL     1       3.266   7.631  17.734  0.00  0.00    +0.000 A 
ATOM     16  C   UNL     1       4.106   6.549  17.449  0.00  0.00    +0.000 A 
ATOM     17  C   UNL     1       4.154   5.443  18.302  0.00  0.00    +0.000 A 
ATOM     18  C   UNL     1       3.358   5.456  19.458  0.00  0.00    +0.000 A 
ATOM     19  C   UNL     1       2.515   6.545  19.740  0.00  0.00    +0.000 A 
BRANCH  17  20
ATOM     20  C   UNL     1       5.058   4.282  17.979  0.00  0.00    +0.000 C 
BRANCH  20  21
ATOM     21  N   UNL     1       5.190   4.079  16.556  0.00  0.00    +0.000 N 
ATOM     22  C   UNL     1       6.407   4.250  15.940  0.00  0.00    +0.000 C 
ATOM     23  C   UNL     1       6.408   4.005  14.455  0.00  0.00    +0.000 C 
ATOM     24  O   UNL     1       7.426   4.578  16.541  0.00  0.00    +0.000 OA
ATOM     25  H   UNL     1       4.380   3.794  16.023  0.00  0.00    +0.000 HD
ENDBRANCH  20  21
ENDBRANCH  17  20
ENDBRANCH   5  14
BRANCH   1  27
ATOM     26  C   UNL     1      -0.861  15.103  19.898  0.00  0.00    +0.000 C 
ATOM     27  N   UNL     1      -1.494  13.909  19.380  0.00  0.00    +0.000 N 
ATOM     28  H   UNL     1      -1.641  13.894  18.376  0.00  0.00    +0.000 HD
ENDBRANCH   1  27
TORSDOF 4
ENDMDL
MODEL 2
REMARK VINA RESULT:      -7.8      3.643      9.290
REMARK  Name = 
REMARK  7 active torsions:
REMARK  status: ('A' for Active; 'I' for Inactive)
REMARK    1  A    between atoms: C_1  and  N_2
REMARK    2  A    between atoms: N_2  and  C_3
REMARK    3  A    between atoms: C_7  and  C_8
REMARK    4  A    between atoms: C_11  and  C_12
REMARK    5  A    between atoms: C_12  and  N_13
REMARK    6  A    between atoms: C_14  and  C_15
REMARK    7  A    between atoms: N_25  and  C_26
REMARK                            x       y       z     vdW  Elec       q    Type
REMARK                         _______ _______ _______ _____ _____    ______ ____
ROOT
ATOM      1  C   UNL     1       4.095   4.952  17.250  0.00  0.00    +0.000 A 
ATOM      2  N   UNL     1       3.737   6.273  17.272  0.00  0.00    +0.000 NA
ATOM      3  C   UNL     1       3.061   6.705  18.351  0.00  0.00    +0.000 A 
ATOM      4  S   UNL     1       2.515   8.286  18.577  0.00  0.00    +0.000 S 
ATOM      5  C   UNL     1       1.745   7.804  20.071  0.00  0.00    +0.000 A 
ATOM      6  N   UNL     1       1.966   6.542  20.440  0.00  0.00    +0.000 NA
ATOM      7  C   UNL     1       2.694   5.943  19.434  0.00  0.00    +0.000 A 
ATOM      8  C   UNL     1       3.062   4.630  19.416  0.00  0.00    +0.000 A 
ATOM      9  C   UNL     1       3.755   4.100  18.347  0.00  0.00    +0.000 A 
ATOM     10  N   UNL     1       3.967   2.755  18.587  0.00  0.00    +0.000 NA
ATOM     11  C   UNL     1       3.429   2.518  19.768  0.00  0.00    +0.000 A 
ATOM     12  N   UNL     1       2.862   3.647  20.310  0.00  0.00    +0.000 N 
ATOM     13  C   UNL     1       2.214   3.700  21.593  0.00  0.00    +0.000 C 
ENDROOT
BRANCH   5  14
ATOM     14  C   UNL     1       0.936   8.800  20.812  0.00  0.00    +0.000 A 
ATOM     15  C   UNL     1       0.866   8.801  22.218  0.00  0.00    +0.000 A 
ATOM     16  C   UNL     1       0.098   9.740  22.914  0.00  0.00    +0.000 A 
ATOM     17  C   UNL     1      -0.631  10.713  22.226  0.00  0.00    +0.000 A 
ATOM     18  C   UNL     1      -0.555  10.737  20.824  0.00  0.00    +0.000 A 
ATOM     19  C   UNL     1       0.218   9.791  20.128  0.00  0.00    +0.000 A 
BRANCH  17  20
ATOM     20  C   UNL     1      -1.460  11.713  22.988  0.00  0.00    +0.000 C 
BRANCH  20  21
ATOM     21  N   UNL     1      -2.459  12.336  22.154  0.00  0.00    +0.000 N 
ATOM     22  C   UNL     1      -3.742  12.509  22.616  0.00  0.00    +0.000 C 
ATOM     23  C   UNL     1      -4.683  13.174  21.647  0.00  0.00    +0.000 C 
ATOM     24  O   UNL     1      -4.109  12.153  23.732  0.00  0.00    +0.000 OA
ATOM     25  H   UNL     1      -2.198  12.659  21.231  0.00  0.00    +0.000 HD
ENDBRANCH  20  21
ENDBRANCH  17  20
ENDBRANCH   5  14
BRANCH   1  27
ATOM     26  C   UNL     1       6.201   4.295  16.244  0.00  0.00    +0.000 C 
ATOM     27  N   UNL     1       4.786   4.563  16.101  0.00  0.00    +0.000 N 
ATOM     28  H   UNL     1       4.245   3.827  15.657  0.00  0.00    +0.000 HD
ENDBRANCH   1  27
TORSDOF 4
ENDMDL
MODEL 3
REMARK VINA RESULT:      -7.7      3.351      9.231
REMARK  Name = 
REMARK  7 active torsions:
REMARK  status: ('A' for Active; 'I' for Inactive)
REMARK    1  A    between atoms: C_1  and  N_2
REMARK    2  A    between atoms: N_2  and  C_3
REMARK    3  A    between atoms: C_7  and  C_8
REMARK    4  A    between atoms: C_11  and  C_12
REMARK    5  A    between atoms: C_12  and  N_13
REMARK    6  A    between atoms: C_14  and  C_15
REMARK    7  A    between atoms: N_25  and  C_26
REMARK                            x       y       z     vdW  Elec       q    Type
REMARK                         _______ _______ _______ _____ _____    ______ ____
ROOT
ATOM      1  C   UNL     1       4.798   3.860  16.816  0.00  0.00    +0.000 A 
ATOM      2  N   UNL     1       4.809   5.227  16.744  0.00  0.00    +0.000 NA
ATOM      3  C   UNL     1       3.940   5.887  17.529  0.00  0.00    +0.000 A 
ATOM      4  S   UNL     1       3.779   7.566  17.590  0.00  0.00    +0.000 S 
ATOM      5  C   UNL     1       2.445   7.395  18.708  0.00  0.00    +0.000 A 
ATOM      6  N   UNL     1       2.191   6.146  19.099  0.00  0.00    +0.000 NA
ATOM      7  C   UNL     1       3.039   5.317  18.397  0.00  0.00    +0.000 A 
ATOM      8  C   UNL     1       3.037   3.955  18.475  0.00  0.00    +0.000 A 
ATOM      9  C   UNL     1       3.893   3.197  17.703  0.00  0.00    +0.000 A 
ATOM     10  N   UNL     1       3.654   1.861  17.968  0.00  0.00    +0.000 NA
ATOM     11  C   UNL     1       2.702   1.848  18.880  0.00  0.00    +0.000 A 
ATOM     12  N   UNL     1       2.295   3.117  19.218  0.00  0.00    +0.000 N 
ATOM     13  C   UNL     1       1.282   3.418  20.194  0.00  0.00    +0.000 C 
ENDROOT
BRANCH   5  14
ATOM     14  C   UNL     1       1.718   8.610  19.144  0.00  0.00    +0.000 A 
ATOM     15  C   UNL     1       1.532   9.711  18.288  0.00  0.00    +0.000 A 
ATOM     16  C   UNL     1       0.849  10.859  18.704  0.00  0.00    +0.000 A 
ATOM     17  C   UNL     1       0.326  10.945  19.998  0.00  0.00    +0.000 A 
ATOM     18  C   UNL     1       0.486   9.846  20.856  0.00  0.00    +0.000 A 
ATOM     19  C   UNL     1       1.174   8.695  20.434  0.00  0.00    +0.000 A 
BRANCH  17  20
ATOM     20  C   UNL     1      -0.401  12.189  20.434  0.00  0.00    +0.000 C 
BRANCH  20  21
ATOM     21  N   UNL     1      -0.999  12.036  21.739  0.00  0.00    +0.000 N 
ATOM     22  C   UNL     1      -2.327  12.333  21.935  0.00  0.00    +0.000 C 
ATOM     23  C   UNL     1      -2.824  12.127  23.341  0.00  0.00    +0.000 C 
ATOM     24  O   UNL     1      -3.065  12.737  21.042  0.00  0.00    +0.000 OA
ATOM     25  H   UNL     1      -0.431  11.691  22.503  0.00  0.00    +0.000 HD
ENDBRANCH  20  21
ENDBRANCH  17  20
ENDBRANCH   5  14
BRANCH   1  27
ATOM     26  C   UNL     1       6.296   4.037  14.918  0.00  0.00    +0.000 C 
ATOM     27  N   UNL     1       5.716   3.233  15.971  0.00  0.00    +0.000 N 
ATOM     28  H   UNL     1       6.380   2.738  16.559  0.00  0.00    +0.000 HD
ENDBRANCH   1  27
TORSDOF 4
ENDMDL
MODEL 4
REMARK VINA RESULT:      -7.7      3.425      9.233
REMARK  Name = 
REMARK  7 active torsions:
REMARK  status: ('A' for Active; 'I' for Inactive)
REMARK    1  A    between atoms: C_1  and  N_2
REMARK    2  A    between atoms: N_2  and  C_3
REMARK    3  A    between atoms: C_7  and  C_8
REMARK    4  A    between atoms: C_11  and  C_12
REMARK    5  A    between atoms: C_12  and  N_13
REMARK    6  A    between atoms: C_14  and  C_15
REMARK    7  A    between atoms: N_25  and  C_26
REMARK                            x       y       z     vdW  Elec       q    Type
REMARK                         _______ _______ _______ _____ _____    ______ ____
ROOT
ATOM      1  C   UNL     1       4.861   4.282  17.432  0.00  0.00    +0.000 A 
ATOM      2  N   UNL     1       4.574   5.579  17.103  0.00  0.00    +0.000 NA
ATOM      3  C   UNL     1       3.725   6.241  17.909  0.00  0.00    +0.000 A 
ATOM      4  S   UNL     1       3.229   7.838  17.684  0.00  0.00    +0.000 S 
ATOM      5  C   UNL     1       2.161   7.697  19.061  0.00  0.00    +0.000 A 
ATOM      6  N   UNL     1       2.240   6.543  19.724  0.00  0.00    +0.000 NA
ATOM      7  C   UNL     1       3.117   5.735  19.033  0.00  0.00    +0.000 A 
ATOM      8  C   UNL     1       3.412   4.445  19.366  0.00  0.00    +0.000 A 
ATOM      9  C   UNL     1       4.271   3.691  18.592  0.00  0.00    +0.000 A 
ATOM     10  N   UNL     1       4.362   2.427  19.148  0.00  0.00    +0.000 NA
ATOM     11  C   UNL     1       3.595   2.457  20.220  0.00  0.00    +0.000 A 
ATOM     12  N   UNL     1       2.993   3.681  20.388  0.00  0.00    +0.000 N 
ATOM     13  C   UNL     1       2.112   4.016  21.474  0.00  0.00    +0.000 C 
ENDROOT
BRANCH   5  14
ATOM     14  C   UNL     1       1.276   8.838  19.399  0.00  0.00    +0.000 A 
ATOM     15  C   UNL     1       0.754   9.013  20.693  0.00  0.00    +0.000 A 
ATOM     16  C   UNL     1      -0.084  10.088  21.008  0.00  0.00    +0.000 A 
ATOM     17  C   UNL     1      -0.432  11.027  20.033  0.00  0.00    +0.000 A 
ATOM     18  C   UNL     1       0.097  10.877  18.742  0.00  0.00    +0.000 A 
ATOM     19  C   UNL     1       0.939   9.794  18.430  0.00  0.00    +0.000 A 
BRANCH  17  20
ATOM     20  C   UNL     1      -1.341  12.175  20.384  0.00  0.00    +0.000 C 
BRANCH  20  21
ATOM     21  N   UNL     1      -1.711  12.165  21.779  0.00  0.00    +0.000 N 
ATOM     22  C   UNL     1      -3.006  12.433  22.157  0.00  0.00    +0.000 C 
ATOM     23  C   UNL     1      -3.258  12.387  23.641  0.00  0.00    +0.000 C 
ATOM     24  O   UNL     1      -3.900  12.694  21.358  0.00  0.00    +0.000 OA
ATOM     25  H   UNL     1      -1.010  11.941  22.473  0.00  0.00    +0.000 HD
ENDBRANCH  20  21
ENDBRANCH  17  20
ENDBRANCH   5  14
BRANCH   1  27
ATOM     26  C   UNL     1       6.620   4.494  15.776  0.00  0.00    +0.000 C 
ATOM     27  N   UNL     1       5.740   3.647  16.552  0.00  0.00    +0.000 N 
ATOM     28  H   UNL     1       6.195   2.899  17.067  0.00  0.00    +0.000 HD
ENDBRANCH   1  27
TORSDOF 4
ENDMDL
MODEL 5
REMARK VINA RESULT:      -7.6      3.618      9.148
REMARK  Name = 
REMARK  7 active torsions:
REMARK  status: ('A' for Active; 'I' for Inactive)
REMARK    1  A    between atoms: C_1  and  N_2
REMARK    2  A    between atoms: N_2  and  C_3
REMARK    3  A    between atoms: C_7  and  C_8
REMARK    4  A    between atoms: C_11  and  C_12
REMARK    5  A    between atoms: C_12  and  N_13
REMARK    6  A    between atoms: C_14  and  C_15
REMARK    7  A    between atoms: N_25  and  C_26
REMARK                            x       y       z     vdW  Elec       q    Type
REMARK                         _______ _______ _______ _____ _____    ______ ____
ROOT
ATOM      1  C   UNL     1       4.279   4.825  17.328  0.00  0.00    +0.000 A 
ATOM      2  N   UNL     1       3.931   6.148  17.293  0.00  0.00    +0.000 NA
ATOM      3  C   UNL     1       3.198   6.614  18.319  0.00  0.00    +0.000 A 
ATOM      4  S   UNL     1       2.652   8.204  18.470  0.00  0.00    +0.000 S 
ATOM      5  C   UNL     1       1.794   7.768  19.929  0.00  0.00    +0.000 A 
ATOM      6  N   UNL     1       1.983   6.516  20.345  0.00  0.00    +0.000 NA
ATOM      7  C   UNL     1       2.763   5.885  19.400  0.00  0.00    +0.000 A 
ATOM      8  C   UNL     1       3.120   4.569  19.439  0.00  0.00    +0.000 A 
ATOM      9  C   UNL     1       3.870   4.006  18.427  0.00  0.00    +0.000 A 
ATOM     10  N   UNL     1       4.057   2.666  18.716  0.00  0.00    +0.000 NA
ATOM     11  C   UNL     1       3.450   2.466  19.869  0.00  0.00    +0.000 A 
ATOM     12  N   UNL     1       2.862   3.613  20.347  0.00  0.00    +0.000 N 
ATOM     13  C   UNL     1       2.141   3.706  21.588  0.00  0.00    +0.000 C 
ENDROOT
BRANCH   5  14
ATOM     14  C   UNL     1       0.951   8.790  20.595  0.00  0.00    +0.000 A 
ATOM     15  C   UNL     1       0.225   9.746  19.861  0.00  0.00    +0.000 A 
ATOM     16  C   UNL     1      -0.566  10.711  20.492  0.00  0.00    +0.000 A 
ATOM     17  C   UNL     1      -0.657  10.755  21.886  0.00  0.00    +0.000 A 
ATOM     18  C   UNL     1       0.045   9.796  22.631  0.00  0.00    +0.000 A 
ATOM     19  C   UNL     1       0.840   8.827  21.992  0.00  0.00    +0.000 A 
BRANCH  17  20
ATOM     20  C   UNL     1      -1.507  11.804  22.552  0.00  0.00    +0.000 C 
BRANCH  20  21
ATOM     21  N   UNL     1      -2.301  12.543  21.600  0.00  0.00    +0.000 N 
ATOM     22  C   UNL     1      -3.647  12.725  21.810  0.00  0.00    +0.000 C 
ATOM     23  C   UNL     1      -4.356  13.515  20.741  0.00  0.00    +0.000 C 
ATOM     24  O   UNL     1      -4.243  12.283  22.788  0.00  0.00    +0.000 OA
ATOM     25  H   UNL     1      -1.850  12.938  20.785  0.00  0.00    +0.000 HD
ENDBRANCH  20  21
ENDBRANCH  17  20
ENDBRANCH   5  14
BRANCH   1  27
ATOM     26  C   UNL     1       5.415   5.406  15.266  0.00  0.00    +0.000 C 
ATOM     27  N   UNL     1       5.032   4.399  16.232  0.00  0.00    +0.000 N 
ATOM     28  H   UNL     1       5.790   3.826  16.589  0.00  0.00    +0.000 HD
ENDBRANCH   1  27
TORSDOF 4
ENDMDL
MODEL 6
REMARK VINA RESULT:      -7.6      1.241      1.595
REMARK  Name = 
REMARK  7 active torsions:
REMARK  status: ('A' for Active; 'I' for Inactive)
REMARK    1  A    between atoms: C_1  and  N_2
REMARK    2  A    between atoms: N_2  and  C_3
REMARK    3  A    between atoms: C_7  and  C_8
REMARK    4  A    between atoms: C_11  and  C_12
REMARK    5  A    between atoms: C_12  and  N_13
REMARK    6  A    between atoms: C_14  and  C_15
REMARK    7  A    between atoms: N_25  and  C_26
REMARK                            x       y       z     vdW  Elec       q    Type
REMARK                         _______ _______ _______ _____ _____    ______ ____
ROOT
ATOM      1  C   UNL     1      -0.621  13.079  19.454  0.00  0.00    +0.000 A 
ATOM      2  N   UNL     1       0.004  12.266  18.547  0.00  0.00    +0.000 NA
ATOM      3  C   UNL     1       0.391  11.053  18.979  0.00  0.00    +0.000 A 
ATOM      4  S   UNL     1       1.185   9.901  18.035  0.00  0.00    +0.000 S 
ATOM      5  C   UNL     1       1.320   8.855  19.429  0.00  0.00    +0.000 A 
ATOM      6  N   UNL     1       0.714   9.298  20.531  0.00  0.00    +0.000 NA
ATOM      7  C   UNL     1       0.218  10.553  20.248  0.00  0.00    +0.000 A 
ATOM      8  C   UNL     1      -0.415  11.360  21.147  0.00  0.00    +0.000 A 
ATOM      9  C   UNL     1      -0.842  12.623  20.791  0.00  0.00    +0.000 A 
ATOM     10  N   UNL     1      -1.420  13.217  21.899  0.00  0.00    +0.000 NA
ATOM     11  C   UNL     1      -1.345  12.318  22.860  0.00  0.00    +0.000 A 
ATOM     12  N   UNL     1      -0.733  11.161  22.437  0.00  0.00    +0.000 N 
ATOM     13  C   UNL     1      -0.521  10.001  23.260  0.00  0.00    +0.000 C 
ENDROOT
BRANCH   5  14
ATOM     14  C   UNL     1       2.064   7.579  19.297  0.00  0.00    +0.000 A 
ATOM     15  C   UNL     1       1.995   6.575  20.280  0.00  0.00    +0.000 A 
ATOM     16  C   UNL     1       2.702   5.375  20.154  0.00  0.00    +0.000 A 
ATOM     17  C   UNL     1       3.505   5.136  19.035  0.00  0.00    +0.000 A 
ATOM     18  C   UNL     1       3.567   6.120  18.036  0.00  0.00    +0.000 A 
ATOM     19  C   UNL     1       2.856   7.326  18.167  0.00  0.00    +0.000 A 
BRANCH  17  20
ATOM     20  C   UNL     1       4.265   3.842  18.916  0.00  0.00    +0.000 C 
BRANCH  20  21
ATOM     21  N   UNL     1       5.427   3.973  18.069  0.00  0.00    +0.000 N 
ATOM     22  C   UNL     1       6.578   4.548  18.553  0.00  0.00    +0.000 C 
ATOM     23  C   UNL     1       7.715   4.621  17.568  0.00  0.00    +0.000 C 
ATOM     24  O   UNL     1       6.688   4.977  19.698  0.00  0.00    +0.000 OA
ATOM     25  H   UNL     1       5.387   3.621  17.122  0.00  0.00    +0.000 HD
ENDBRANCH  20  21
ENDBRANCH  17  20
ENDBRANCH   5  14
BRANCH   1  27
ATOM     26  C   UNL     1      -0.095  15.433  19.212  0.00  0.00    +0.000 C 
ATOM     27  N   UNL     1      -0.990  14.327  18.948  0.00  0.00    +0.000 N 
ATOM     28  H   UNL     1      -1.247  14.196  17.975  0.00  0.00    +0.000 HD
ENDBRANCH   1  27
TORSDOF 4
ENDMDL
MODEL 7
REMARK VINA RESULT:      -7.5      3.089      8.939
REMARK  Name = 
REMARK  7 active torsions:
REMARK  status: ('A' for Active; 'I' for Inactive)
REMARK    1  A    between atoms: C_1  and  N_2
REMARK    2  A    between atoms: N_2  and  C_3
REMARK    3  A    between atoms: C_7  and  C_8
REMARK    4  A    between atoms: C_11  and  C_12
REMARK    5  A    between atoms: C_12  and  N_13
REMARK    6  A    between atoms: C_14  and  C_15
REMARK    7  A    between atoms: N_25  and  C_26
REMARK                            x       y       z     vdW  Elec       q    Type
REMARK                         _______ _______ _______ _____ _____    ______ ____
ROOT
ATOM      1  C   UNL     1       5.050   4.324  17.523  0.00  0.00    +0.000 A 
ATOM      2  N   UNL     1       4.759   5.614  17.171  0.00  0.00    +0.000 NA
ATOM      3  C   UNL     1       3.857   6.265  17.926  0.00  0.00    +0.000 A 
ATOM      4  S   UNL     1       3.346   7.853  17.664  0.00  0.00    +0.000 S 
ATOM      5  C   UNL     1       2.208   7.701  18.982  0.00  0.00    +0.000 A 
ATOM      6  N   UNL     1       2.271   6.552  19.656  0.00  0.00    +0.000 NA
ATOM      7  C   UNL     1       3.198   5.755  19.019  0.00  0.00    +0.000 A 
ATOM      8  C   UNL     1       3.496   4.473  19.375  0.00  0.00    +0.000 A 
ATOM      9  C   UNL     1       4.408   3.729  18.654  0.00  0.00    +0.000 A 
ATOM     10  N   UNL     1       4.491   2.470  19.222  0.00  0.00    +0.000 NA
ATOM     11  C   UNL     1       3.667   2.493  20.251  0.00  0.00    +0.000 A 
ATOM     12  N   UNL     1       3.035   3.707  20.379  0.00  0.00    +0.000 N 
ATOM     13  C   UNL     1       2.092   4.033  21.413  0.00  0.00    +0.000 C 
ENDROOT
BRANCH   5  14
ATOM     14  C   UNL     1       1.287   8.828  19.265  0.00  0.00    +0.000 A 
ATOM     15  C   UNL     1       0.815   9.093  20.564  0.00  0.00    +0.000 A 
ATOM     16  C   UNL     1      -0.057  10.154  20.826  0.00  0.00    +0.000 A 
ATOM     17  C   UNL     1      -0.491  10.990  19.793  0.00  0.00    +0.000 A 
ATOM     18  C   UNL     1      -0.013  10.750  18.496  0.00  0.00    +0.000 A 
ATOM     19  C   UNL     1       0.863   9.682  18.236  0.00  0.00    +0.000 A 
BRANCH  17  20
ATOM     20  C   UNL     1      -1.436  12.124  20.089  0.00  0.00    +0.000 C 
BRANCH  20  21
ATOM     21  N   UNL     1      -1.178  13.274  19.256  0.00  0.00    +0.000 N 
ATOM     22  C   UNL     1      -0.392  14.304  19.716  0.00  0.00    +0.000 C 
ATOM     23  C   UNL     1      -0.201  15.440  18.747  0.00  0.00    +0.000 C 
ATOM     24  O   UNL     1       0.121  14.314  20.831  0.00  0.00    +0.000 OA
ATOM     25  H   UNL     1      -1.569  13.303  18.323  0.00  0.00    +0.000 HD
ENDBRANCH  20  21
ENDBRANCH  17  20
ENDBRANCH   5  14
BRANCH   1  27
ATOM     26  C   UNL     1       5.946   4.034  15.289  0.00  0.00    +0.000 C 
ATOM     27  N   UNL     1       5.985   3.699  16.697  0.00  0.00    +0.000 N 
ATOM     28  H   UNL     1       6.893   3.792  17.142  0.00  0.00    +0.000 HD
ENDBRANCH   1  27
TORSDOF 4
ENDMDL
MODEL 8
REMARK VINA RESULT:      -7.5      0.998      1.082
REMARK  Name = 
REMARK  7 active torsions:
REMARK  status: ('A' for Active; 'I' for Inactive)
REMARK    1  A    between atoms: C_1  and  N_2
REMARK    2  A    between atoms: N_2  and  C_3
REMARK    3  A    between atoms: C_7  and  C_8
REMARK    4  A    between atoms: C_11  and  C_12
REMARK    5  A    between atoms: C_12  and  N_13
REMARK    6  A    between atoms: C_14  and  C_15
REMARK    7  A    between atoms: N_25  and  C_26
REMARK                            x       y       z     vdW  Elec       q    Type
REMARK                         _______ _______ _______ _____ _____    ______ ____
ROOT
ATOM      1  C   UNL     1      -1.562  11.748  19.551  0.00  0.00    +0.000 A 
ATOM      2  N   UNL     1      -0.946  11.092  18.520  0.00  0.00    +0.000 NA
ATOM      3  C   UNL     1      -0.067  10.128  18.848  0.00  0.00    +0.000 A 
ATOM      4  S   UNL     1       0.809   9.206  17.739  0.00  0.00    +0.000 S 
ATOM      5  C   UNL     1       1.647   8.422  19.058  0.00  0.00    +0.000 A 
ATOM      6  N   UNL     1       1.226   8.759  20.277  0.00  0.00    +0.000 NA
ATOM      7  C   UNL     1       0.271   9.741  20.122  0.00  0.00    +0.000 A 
ATOM      8  C   UNL     1      -0.352  10.389  21.149  0.00  0.00    +0.000 A 
ATOM      9  C   UNL     1      -1.265  11.393  20.904  0.00  0.00    +0.000 A 
ATOM     10  N   UNL     1      -1.712  11.882  22.119  0.00  0.00    +0.000 NA
ATOM     11  C   UNL     1      -1.089  11.169  23.037  0.00  0.00    +0.000 A 
ATOM     12  N   UNL     1      -0.243  10.239  22.479  0.00  0.00    +0.000 N 
ATOM     13  C   UNL     1       0.559   9.310  23.229  0.00  0.00    +0.000 C 
ENDROOT
BRANCH   5  14
ATOM     14  C   UNL     1       2.727   7.455  18.745  0.00  0.00    +0.000 A 
ATOM     15  C   UNL     1       3.571   7.622  17.631  0.00  0.00    +0.000 A 
ATOM     16  C   UNL     1       4.587   6.706  17.337  0.00  0.00    +0.000 A 
ATOM     17  C   UNL     1       4.792   5.586  18.148  0.00  0.00    +0.000 A 
ATOM     18  C   UNL     1       3.971   5.418  19.273  0.00  0.00    +0.000 A 
ATOM     19  C   UNL     1       2.951   6.341  19.566  0.00  0.00    +0.000 A 
BRANCH  17  20
ATOM     20  C   UNL     1       5.884   4.605  17.814  0.00  0.00    +0.000 C 
BRANCH  20  21
ATOM     21  N   UNL     1       5.746   4.076  16.478  0.00  0.00    +0.000 N 
ATOM     22  C   UNL     1       6.524   4.562  15.454  0.00  0.00    +0.000 C 
ATOM     23  C   UNL     1       6.282   3.923  14.113  0.00  0.00    +0.000 C 
ATOM     24  O   UNL     1       7.356   5.452  15.605  0.00  0.00    +0.000 OA
ATOM     25  H   UNL     1       5.082   3.331  16.310  0.00  0.00    +0.000 HD
ENDBRANCH  20  21
ENDBRANCH  17  20
ENDBRANCH   5  14
BRANCH   1  27
ATOM     26  C   UNL     1      -3.867  12.452  19.286  0.00  0.00    +0.000 C 
ATOM     27  N   UNL     1      -2.456  12.742  19.148  0.00  0.00    +0.000 N 
ATOM     28  H   UNL     1      -2.147  13.615  19.565  0.00  0.00    +0.000 HD
ENDBRANCH   1  27
TORSDOF 4
ENDMDL
MODEL 9
REMARK VINA RESULT:      -7.5      3.222      8.988
REMARK  Name = 
REMARK  7 active torsions:
REMARK  status: ('A' for Active; 'I' for Inactive)
REMARK    1  A    between atoms: C_1  and  N_2
REMARK    2  A    between atoms: N_2  and  C_3
REMARK    3  A    between atoms: C_7  and  C_8
REMARK    4  A    between atoms: C_11  and  C_12
REMARK    5  A    between atoms: C_12  and  N_13
REMARK    6  A    between atoms: C_14  and  C_15
REMARK    7  A    between atoms: N_25  and  C_26
REMARK                            x       y       z     vdW  Elec       q    Type
REMARK                         _______ _______ _______ _____ _____    ______ ____
ROOT
ATOM      1  C   UNL     1       4.951   4.240  17.510  0.00  0.00    +0.000 A 
ATOM      2  N   UNL     1       4.666   5.544  17.209  0.00  0.00    +0.000 NA
ATOM      3  C   UNL     1       3.806   6.184  18.021  0.00  0.00    +0.000 A 
ATOM      4  S   UNL     1       3.308   7.786  17.828  0.00  0.00    +0.000 S 
ATOM      5  C   UNL     1       2.224   7.610  19.187  0.00  0.00    +0.000 A 
ATOM      6  N   UNL     1       2.297   6.441  19.823  0.00  0.00    +0.000 NA
ATOM      7  C   UNL     1       3.185   5.650  19.124  0.00  0.00    +0.000 A 
ATOM      8  C   UNL     1       3.479   4.354  19.430  0.00  0.00    +0.000 A 
ATOM      9  C   UNL     1       4.348   3.620  18.649  0.00  0.00    +0.000 A 
ATOM     10  N   UNL     1       4.436   2.343  19.175  0.00  0.00    +0.000 NA
ATOM     11  C   UNL     1       3.655   2.346  20.238  0.00  0.00    +0.000 A 
ATOM     12  N   UNL     1       3.048   3.565  20.428  0.00  0.00    +0.000 N 
ATOM     13  C   UNL     1       2.153   3.872  21.511  0.00  0.00    +0.000 C 
ENDROOT
BRANCH   5  14
ATOM     14  C   UNL     1       1.332   8.740  19.542  0.00  0.00    +0.000 A 
ATOM     15  C   UNL     1       0.913   9.682  18.584  0.00  0.00    +0.000 A 
ATOM     16  C   UNL     1       0.075  10.750  18.923  0.00  0.00    +0.000 A 
ATOM     17  C   UNL     1      -0.373  10.914  20.236  0.00  0.00    +0.000 A 
ATOM     18  C   UNL     1       0.020   9.970  21.198  0.00  0.00    +0.000 A 
ATOM     19  C   UNL     1       0.863   8.898  20.854  0.00  0.00    +0.000 A 
BRANCH  17  20
ATOM     20  C   UNL     1      -1.269  12.072  20.587  0.00  0.00    +0.000 C 
BRANCH  20  21
ATOM     21  N   UNL     1      -0.524  13.292  20.782  0.00  0.00    +0.000 N 
ATOM     22  C   UNL     1      -0.128  13.672  22.043  0.00  0.00    +0.000 C 
ATOM     23  C   UNL     1       0.644  14.963  22.106  0.00  0.00    +0.000 C 
ATOM     24  O   UNL     1      -0.379  13.020  23.052  0.00  0.00    +0.000 OA
ATOM     25  H   UNL     1      -0.282  13.855  19.977  0.00  0.00    +0.000 HD
ENDBRANCH  20  21
ENDBRANCH  17  20
ENDBRANCH   5  14
BRANCH   1  27
ATOM     26  C   UNL     1       6.818   4.480  15.982  0.00  0.00    +0.000 C 
ATOM     27  N   UNL     1       5.842   3.628  16.627  0.00  0.00    +0.000 N 
ATOM     28  H   UNL     1       6.219   2.809  17.095  0.00  0.00    +0.000 HD
ENDBRANCH   1  27
TORSDOF 4
ENDMDL
