MODEL 1
REMARK VINA RESULT:      -6.9      0.000      0.000
REMARK  Name = 
REMARK  5 active torsions:
REMARK  status: ('A' for Active; 'I' for Inactive)
REMARK    1  A    between atoms: C_1  and  C_2
REMARK    2  A    between atoms: C_5  and  N_6
REMARK    3  A    between atoms: N_9  and  C_10
REMARK    4  A    between atoms: C_10  and  C_11
REMARK    5  A    between atoms: C_11  and  N_12
REMARK                            x       y       z     vdW  Elec       q    Type
REMARK                         _______ _______ _______ _____ _____    ______ ____
ROOT
ATOM      1  C   UNL     1       3.630   4.452  17.296  0.00  0.00    +0.000 C 
ENDROOT
BRANCH   1   7
ATOM      2  C   UNL     1       2.908   7.374  18.035  0.00  0.00    +0.000 C 
ATOM      3  C   UNL     1       2.735   6.185  18.911  0.00  0.00    +0.000 A 
ATOM      4  N   UNL     1       2.222   6.240  20.125  0.00  0.00    +0.000 NA
ATOM      5  C   UNL     1       2.224   4.962  20.604  0.00  0.00    +0.000 A 
ATOM      6  C   UNL     1       2.754   4.108  19.672  0.00  0.00    +0.000 A 
ATOM      7  N   UNL     1       3.080   4.880  18.579  0.00  0.00    +0.000 N 
BRANCH   6   8
ATOM      8  N   UNL     1       2.938   2.702  19.807  0.00  0.00    +0.000 N 
ATOM      9  O   UNL     1       3.950   2.334  20.410  0.00  0.00    +0.000 OA
ATOM     10  O   UNL     1       2.088   1.962  19.301  0.00  0.00    +0.000 OA
ENDBRANCH   6   8
ENDBRANCH   1   7
BRANCH   1  11
ATOM     11  C   UNL     1       5.105   4.050  17.390  0.00  0.00    +0.000 C 
BRANCH  11  12
ATOM     12  N   UNL     1       6.087   5.127  17.346  0.00  0.00    +0.000 N 
ATOM     13  C   UNL     1       6.412   5.984  18.370  0.00  0.00    +0.000 A 
ATOM     14  C   UNL     1       7.380   6.823  17.867  0.00  0.00    +0.000 A 
ATOM     15  N   UNL     1       7.663   6.512  16.570  0.00  0.00    +0.000 NA
ATOM     16  C   UNL     1       6.871   5.500  16.273  0.00  0.00    +0.000 A 
ATOM     17  N   UNL     1       6.855   4.877  14.971  0.00  0.00    +0.000 N 
ATOM     18  O   UNL     1       6.085   3.925  14.798  0.00  0.00    +0.000 OA
ATOM     19  O   UNL     1       7.625   5.334  14.112  0.00  0.00    +0.000 OA
ENDBRANCH  11  12
ENDBRANCH   1  11
TORSDOF 4
ENDMDL
MODEL 2
REMARK VINA RESULT:      -6.9      1.906      2.384
REMARK  Name = 
REMARK  5 active torsions:
REMARK  status: ('A' for Active; 'I' for Inactive)
REMARK    1  A    between atoms: C_1  and  C_2
REMARK    2  A    between atoms: C_5  and  N_6
REMARK    3  A    between atoms: N_9  and  C_10
REMARK    4  A    between atoms: C_10  and  C_11
REMARK    5  A    between atoms: C_11  and  N_12
REMARK                            x       y       z     vdW  Elec       q    Type
REMARK                         _______ _______ _______ _____ _____    ______ ____
ROOT
ATOM      1  C   UNL     1       3.134   4.067  17.209  0.00  0.00    +0.000 C 
ENDROOT
BRANCH   1   7
ATOM      2  C   UNL     1       3.698   7.084  17.638  0.00  0.00    +0.000 C 
ATOM      3  C   UNL     1       2.986   6.187  18.586  0.00  0.00    +0.000 A 
ATOM      4  N   UNL     1       2.484   6.591  19.737  0.00  0.00    +0.000 NA
ATOM      5  C   UNL     1       1.912   5.496  20.316  0.00  0.00    +0.000 A 
ATOM      6  C   UNL     1       2.073   4.398  19.510  0.00  0.00    +0.000 A 
ATOM      7  N   UNL     1       2.755   4.830  18.395  0.00  0.00    +0.000 N 
BRANCH   6   8
ATOM      8  N   UNL     1       1.628   3.071  19.776  0.00  0.00    +0.000 N 
ATOM      9  O   UNL     1       0.599   2.708  19.199  0.00  0.00    +0.000 OA
ATOM     10  O   UNL     1       2.290   2.393  20.569  0.00  0.00    +0.000 OA
ENDBRANCH   6   8
ENDBRANCH   1   7
BRANCH   1  11
ATOM     11  C   UNL     1       4.520   3.427  17.338  0.00  0.00    +0.000 C 
BRANCH  11  12
ATOM     12  N   UNL     1       5.610   4.060  16.605  0.00  0.00    +0.000 N 
ATOM     13  C   UNL     1       5.801   4.046  15.243  0.00  0.00    +0.000 A 
ATOM     14  C   UNL     1       6.950   4.769  15.015  0.00  0.00    +0.000 A 
ATOM     15  N   UNL     1       7.473   5.228  16.188  0.00  0.00    +0.000 NA
ATOM     16  C   UNL     1       6.662   4.784  17.129  0.00  0.00    +0.000 A 
ATOM     17  N   UNL     1       6.876   5.048  18.533  0.00  0.00    +0.000 N 
ATOM     18  O   UNL     1       6.049   4.598  19.334  0.00  0.00    +0.000 OA
ATOM     19  O   UNL     1       7.874   5.717  18.840  0.00  0.00    +0.000 OA
ENDBRANCH  11  12
ENDBRANCH   1  11
TORSDOF 4
ENDMDL
MODEL 3
REMARK VINA RESULT:      -6.9      1.518      2.027
REMARK  Name = 
REMARK  5 active torsions:
REMARK  status: ('A' for Active; 'I' for Inactive)
REMARK    1  A    between atoms: C_1  and  C_2
REMARK    2  A    between atoms: C_5  and  N_6
REMARK    3  A    between atoms: N_9  and  C_10
REMARK    4  A    between atoms: C_10  and  C_11
REMARK    5  A    between atoms: C_11  and  N_12
REMARK                            x       y       z     vdW  Elec       q    Type
REMARK                         _______ _______ _______ _____ _____    ______ ____
ROOT
ATOM      1  C   UNL     1       3.597   4.392  17.301  0.00  0.00    +0.000 C 
ENDROOT
BRANCH   1   7
ATOM      2  C   UNL     1       3.041   7.380  17.906  0.00  0.00    +0.000 C 
ATOM      3  C   UNL     1       2.784   6.242  18.827  0.00  0.00    +0.000 A 
ATOM      4  N   UNL     1       2.258   6.379  20.029  0.00  0.00    +0.000 NA
ATOM      5  C   UNL     1       2.175   5.124  20.561  0.00  0.00    +0.000 A 
ATOM      6  C   UNL     1       2.667   4.202  19.674  0.00  0.00    +0.000 A 
ATOM      7  N   UNL     1       3.055   4.906  18.555  0.00  0.00    +0.000 N 
BRANCH   6   8
ATOM      8  N   UNL     1       2.764   2.795  19.870  0.00  0.00    +0.000 N 
ATOM      9  O   UNL     1       3.852   2.366  20.264  0.00  0.00    +0.000 OA
ATOM     10  O   UNL     1       1.766   2.111  19.619  0.00  0.00    +0.000 OA
ENDBRANCH   6   8
ENDBRANCH   1   7
BRANCH   1  11
ATOM     11  C   UNL     1       5.095   4.082  17.388  0.00  0.00    +0.000 C 
BRANCH  11  12
ATOM     12  N   UNL     1       5.910   4.430  16.231  0.00  0.00    +0.000 N 
ATOM     13  C   UNL     1       5.963   3.760  15.032  0.00  0.00    +0.000 A 
ATOM     14  C   UNL     1       6.862   4.452  14.252  0.00  0.00    +0.000 A 
ATOM     15  N   UNL     1       7.363   5.525  14.928  0.00  0.00    +0.000 NA
ATOM     16  C   UNL     1       6.788   5.489  16.115  0.00  0.00    +0.000 A 
ATOM     17  N   UNL     1       7.064   6.462  17.146  0.00  0.00    +0.000 N 
ATOM     18  O   UNL     1       6.462   6.347  18.220  0.00  0.00    +0.000 OA
ATOM     19  O   UNL     1       7.883   7.355  16.881  0.00  0.00    +0.000 OA
ENDBRANCH  11  12
ENDBRANCH   1  11
TORSDOF 4
ENDMDL
MODEL 4
REMARK VINA RESULT:      -6.8      2.658      5.694
REMARK  Name = 
REMARK  5 active torsions:
REMARK  status: ('A' for Active; 'I' for Inactive)
REMARK    1  A    between atoms: C_1  and  C_2
REMARK    2  A    between atoms: C_5  and  N_6
REMARK    3  A    between atoms: N_9  and  C_10
REMARK    4  A    between atoms: C_10  and  C_11
REMARK    5  A    between atoms: C_11  and  N_12
REMARK                            x       y       z     vdW  Elec       q    Type
REMARK                         _______ _______ _______ _____ _____    ______ ____
ROOT
ATOM      1  C   UNL     1       4.063   4.433  17.066  0.00  0.00    +0.000 C 
ENDROOT
BRANCH   1   7
ATOM      2  C   UNL     1       5.727   3.982  14.491  0.00  0.00    +0.000 C 
ATOM      3  C   UNL     1       6.261   4.413  15.810  0.00  0.00    +0.000 A 
ATOM      4  N   UNL     1       7.535   4.679  16.031  0.00  0.00    +0.000 NA
ATOM      5  C   UNL     1       7.632   5.042  17.343  0.00  0.00    +0.000 A 
ATOM      6  C   UNL     1       6.399   4.990  17.940  0.00  0.00    +0.000 A 
ATOM      7  N   UNL     1       5.510   4.594  16.965  0.00  0.00    +0.000 N 
BRANCH   6   8
ATOM      8  N   UNL     1       6.095   5.282  19.301  0.00  0.00    +0.000 N 
ATOM      9  O   UNL     1       4.914   5.526  19.562  0.00  0.00    +0.000 OA
ATOM     10  O   UNL     1       7.031   5.286  20.108  0.00  0.00    +0.000 OA
ENDBRANCH   6   8
ENDBRANCH   1   7
BRANCH   1  11
ATOM     11  C   UNL     1       3.656   3.036  17.545  0.00  0.00    +0.000 C 
BRANCH  11  12
ATOM     12  N   UNL     1       2.615   2.965  18.563  0.00  0.00    +0.000 N 
ATOM     13  C   UNL     1       1.282   3.256  18.396  0.00  0.00    +0.000 A 
ATOM     14  C   UNL     1       0.693   3.045  19.622  0.00  0.00    +0.000 A 
ATOM     15  N   UNL     1       1.616   2.634  20.538  0.00  0.00    +0.000 NA
ATOM     16  C   UNL     1       2.763   2.602  19.887  0.00  0.00    +0.000 A 
ATOM     17  N   UNL     1       4.007   2.222  20.514  0.00  0.00    +0.000 N 
ATOM     18  O   UNL     1       5.025   2.211  19.812  0.00  0.00    +0.000 OA
ATOM     19  O   UNL     1       3.969   1.923  21.718  0.00  0.00    +0.000 OA
ENDBRANCH  11  12
ENDBRANCH   1  11
TORSDOF 4
ENDMDL
MODEL 5
REMARK VINA RESULT:      -6.8      1.974      2.378
REMARK  Name = 
REMARK  5 active torsions:
REMARK  status: ('A' for Active; 'I' for Inactive)
REMARK    1  A    between atoms: C_1  and  C_2
REMARK    2  A    between atoms: C_5  and  N_6
REMARK    3  A    between atoms: N_9  and  C_10
REMARK    4  A    between atoms: C_10  and  C_11
REMARK    5  A    between atoms: C_11  and  N_12
REMARK                            x       y       z     vdW  Elec       q    Type
REMARK                         _______ _______ _______ _____ _____    ______ ____
ROOT
ATOM      1  C   UNL     1       3.306   5.964  17.755  0.00  0.00    +0.000 C 
ENDROOT
BRANCH   1   7
ATOM      2  C   UNL     1       2.053   7.334  20.236  0.00  0.00    +0.000 C 
ATOM      3  C   UNL     1       2.104   5.870  19.982  0.00  0.00    +0.000 A 
ATOM      4  N   UNL     1       1.589   4.969  20.796  0.00  0.00    +0.000 NA
ATOM      5  C   UNL     1       1.828   3.752  20.226  0.00  0.00    +0.000 A 
ATOM      6  C   UNL     1       2.508   3.908  19.047  0.00  0.00    +0.000 A 
ATOM      7  N   UNL     1       2.686   5.263  18.876  0.00  0.00    +0.000 N 
BRANCH   6   8
ATOM      8  N   UNL     1       2.950   2.874  18.172  0.00  0.00    +0.000 N 
ATOM      9  O   UNL     1       4.150   2.587  18.219  0.00  0.00    +0.000 OA
ATOM     10  O   UNL     1       2.112   2.358  17.425  0.00  0.00    +0.000 OA
ENDBRANCH   6   8
ENDBRANCH   1   7
BRANCH   1  11
ATOM     11  C   UNL     1       4.827   6.079  17.900  0.00  0.00    +0.000 C 
BRANCH  11  12
ATOM     12  N   UNL     1       5.634   5.616  16.778  0.00  0.00    +0.000 N 
ATOM     13  C   UNL     1       5.330   5.737  15.443  0.00  0.00    +0.000 A 
ATOM     14  C   UNL     1       6.379   5.160  14.763  0.00  0.00    +0.000 A 
ATOM     15  N   UNL     1       7.318   4.688  15.633  0.00  0.00    +0.000 NA
ATOM     16  C   UNL     1       6.849   4.962  16.835  0.00  0.00    +0.000 A 
ATOM     17  N   UNL     1       7.551   4.610  18.046  0.00  0.00    +0.000 N 
ATOM     18  O   UNL     1       7.032   4.924  19.124  0.00  0.00    +0.000 OA
ATOM     19  O   UNL     1       8.637   4.022  17.924  0.00  0.00    +0.000 OA
ENDBRANCH  11  12
ENDBRANCH   1  11
TORSDOF 4
ENDMDL
MODEL 6
REMARK VINA RESULT:      -6.8      1.139      1.402
REMARK  Name = 
REMARK  5 active torsions:
REMARK  status: ('A' for Active; 'I' for Inactive)
REMARK    1  A    between atoms: C_1  and  C_2
REMARK    2  A    between atoms: C_5  and  N_6
REMARK    3  A    between atoms: N_9  and  C_10
REMARK    4  A    between atoms: C_10  and  C_11
REMARK    5  A    between atoms: C_11  and  N_12
REMARK                            x       y       z     vdW  Elec       q    Type
REMARK                         _______ _______ _______ _____ _____    ______ ____
ROOT
ATOM      1  C   UNL     1       3.101   4.551  17.461  0.00  0.00    +0.000 C 
ENDROOT
BRANCH   1   7
ATOM      2  C   UNL     1       2.965   7.061  19.274  0.00  0.00    +0.000 C 
ATOM      3  C   UNL     1       2.308   5.754  19.544  0.00  0.00    +0.000 A 
ATOM      4  N   UNL     1       1.558   5.518  20.602  0.00  0.00    +0.000 NA
ATOM      5  C   UNL     1       1.135   4.225  20.497  0.00  0.00    +0.000 A 
ATOM      6  C   UNL     1       1.642   3.654  19.358  0.00  0.00    +0.000 A 
ATOM      7  N   UNL     1       2.391   4.627  18.735  0.00  0.00    +0.000 N 
BRANCH   6   8
ATOM      8  N   UNL     1       1.439   2.317  18.909  0.00  0.00    +0.000 N 
ATOM      9  O   UNL     1       0.334   2.060  18.424  0.00  0.00    +0.000 OA
ATOM     10  O   UNL     1       2.370   1.518  19.052  0.00  0.00    +0.000 OA
ENDBRANCH   6   8
ENDBRANCH   1   7
BRANCH   1  11
ATOM     11  C   UNL     1       4.425   3.789  17.568  0.00  0.00    +0.000 C 
BRANCH  11  12
ATOM     12  N   UNL     1       5.618   4.575  17.859  0.00  0.00    +0.000 N 
ATOM     13  C   UNL     1       6.008   5.051  19.088  0.00  0.00    +0.000 A 
ATOM     14  C   UNL     1       7.187   5.730  18.873  0.00  0.00    +0.000 A 
ATOM     15  N   UNL     1       7.536   5.687  17.555  0.00  0.00    +0.000 NA
ATOM     16  C   UNL     1       6.578   5.000  16.963  0.00  0.00    +0.000 A 
ATOM     17  N   UNL     1       6.570   4.737  15.543  0.00  0.00    +0.000 N 
ATOM     18  O   UNL     1       5.634   4.070  15.088  0.00  0.00    +0.000 OA
ATOM     19  O   UNL     1       7.511   5.191  14.874  0.00  0.00    +0.000 OA
ENDBRANCH  11  12
ENDBRANCH   1  11
TORSDOF 4
ENDMDL
MODEL 7
REMARK VINA RESULT:      -6.8      2.088      2.868
REMARK  Name = 
REMARK  5 active torsions:
REMARK  status: ('A' for Active; 'I' for Inactive)
REMARK    1  A    between atoms: C_1  and  C_2
REMARK    2  A    between atoms: C_5  and  N_6
REMARK    3  A    between atoms: N_9  and  C_10
REMARK    4  A    between atoms: C_10  and  C_11
REMARK    5  A    between atoms: C_11  and  N_12
REMARK                            x       y       z     vdW  Elec       q    Type
REMARK                         _______ _______ _______ _____ _____    ______ ____
ROOT
ATOM      1  C   UNL     1       4.853   4.155  19.123  0.00  0.00    +0.000 C 
ENDROOT
BRANCH   1   7
ATOM      2  C   UNL     1       3.328   1.556  18.401  0.00  0.00    +0.000 C 
ATOM      3  C   UNL     1       2.820   2.942  18.227  0.00  0.00    +0.000 A 
ATOM      4  N   UNL     1       1.622   3.227  17.752  0.00  0.00    +0.000 NA
ATOM      5  C   UNL     1       1.522   4.588  17.746  0.00  0.00    +0.000 A 
ATOM      6  C   UNL     1       2.680   5.149  18.217  0.00  0.00    +0.000 A 
ATOM      7  N   UNL     1       3.518   4.103  18.535  0.00  0.00    +0.000 N 
BRANCH   6   8
ATOM      8  N   UNL     1       2.965   6.539  18.348  0.00  0.00    +0.000 N 
ATOM      9  O   UNL     1       2.455   7.118  19.310  0.00  0.00    +0.000 OA
ATOM     10  O   UNL     1       3.681   7.060  17.487  0.00  0.00    +0.000 OA
ENDBRANCH   6   8
ENDBRANCH   1   7
BRANCH   1  11
ATOM     11  C   UNL     1       5.965   4.055  18.074  0.00  0.00    +0.000 C 
BRANCH  11  12
ATOM     12  N   UNL     1       6.665   5.288  17.734  0.00  0.00    +0.000 N 
ATOM     13  C   UNL     1       6.986   6.313  18.592  0.00  0.00    +0.000 A 
ATOM     14  C   UNL     1       7.637   7.255  17.828  0.00  0.00    +0.000 A 
ATOM     15  N   UNL     1       7.730   6.845  16.530  0.00  0.00    +0.000 NA
ATOM     16  C   UNL     1       7.133   5.669  16.492  0.00  0.00    +0.000 A 
ATOM     17  N   UNL     1       7.005   4.897  15.279  0.00  0.00    +0.000 N 
ATOM     18  O   UNL     1       6.440   3.799  15.353  0.00  0.00    +0.000 OA
ATOM     19  O   UNL     1       7.481   5.383  14.242  0.00  0.00    +0.000 OA
ENDBRANCH  11  12
ENDBRANCH   1  11
TORSDOF 4
ENDMDL
MODEL 8
REMARK VINA RESULT:      -6.6      2.455      5.601
REMARK  Name = 
REMARK  5 active torsions:
REMARK  status: ('A' for Active; 'I' for Inactive)
REMARK    1  A    between atoms: C_1  and  C_2
REMARK    2  A    between atoms: C_5  and  N_6
REMARK    3  A    between atoms: N_9  and  C_10
REMARK    4  A    between atoms: C_10  and  C_11
REMARK    5  A    between atoms: C_11  and  N_12
REMARK                            x       y       z     vdW  Elec       q    Type
REMARK                         _______ _______ _______ _____ _____    ______ ____
ROOT
ATOM      1  C   UNL     1       4.116   3.900  16.581  0.00  0.00    +0.000 C 
ENDROOT
BRANCH   1   7
ATOM      2  C   UNL     1       6.112   4.037  14.215  0.00  0.00    +0.000 C 
ATOM      3  C   UNL     1       6.444   4.246  15.649  0.00  0.00    +0.000 A 
ATOM      4  N   UNL     1       7.654   4.543  16.083  0.00  0.00    +0.000 NA
ATOM      5  C   UNL     1       7.561   4.660  17.440  0.00  0.00    +0.000 A 
ATOM      6  C   UNL     1       6.273   4.423  17.847  0.00  0.00    +0.000 A 
ATOM      7  N   UNL     1       5.546   4.163  16.706  0.00  0.00    +0.000 N 
BRANCH   6   8
ATOM      8  N   UNL     1       5.784   4.438  19.184  0.00  0.00    +0.000 N 
ATOM      9  O   UNL     1       5.773   5.531  19.756  0.00  0.00    +0.000 OA
ATOM     10  O   UNL     1       5.425   3.362  19.674  0.00  0.00    +0.000 OA
ENDBRANCH   6   8
ENDBRANCH   1   7
BRANCH   1  11
ATOM     11  C   UNL     1       3.263   4.872  17.402  0.00  0.00    +0.000 C 
BRANCH  11  12
ATOM     12  N   UNL     1       2.371   4.289  18.397  0.00  0.00    +0.000 N 
ATOM     13  C   UNL     1       1.875   3.007  18.405  0.00  0.00    +0.000 A 
ATOM     14  C   UNL     1       1.085   2.914  19.529  0.00  0.00    +0.000 A 
ATOM     15  N   UNL     1       1.078   4.094  20.213  0.00  0.00    +0.000 NA
ATOM     16  C   UNL     1       1.846   4.908  19.514  0.00  0.00    +0.000 A 
ATOM     17  N   UNL     1       2.090   6.277  19.903  0.00  0.00    +0.000 N 
ATOM     18  O   UNL     1       2.837   6.953  19.186  0.00  0.00    +0.000 OA
ATOM     19  O   UNL     1       1.540   6.681  20.938  0.00  0.00    +0.000 OA
ENDBRANCH  11  12
ENDBRANCH   1  11
TORSDOF 4
ENDMDL
MODEL 9
REMARK VINA RESULT:      -6.6      2.498      3.481
REMARK  Name = 
REMARK  5 active torsions:
REMARK  status: ('A' for Active; 'I' for Inactive)
REMARK    1  A    between atoms: C_1  and  C_2
REMARK    2  A    between atoms: C_5  and  N_6
REMARK    3  A    between atoms: N_9  and  C_10
REMARK    4  A    between atoms: C_10  and  C_11
REMARK    5  A    between atoms: C_11  and  N_12
REMARK                            x       y       z     vdW  Elec       q    Type
REMARK                         _______ _______ _______ _____ _____    ______ ____
ROOT
ATOM      1  C   UNL     1       2.983   4.245  17.181  0.00  0.00    +0.000 C 
ENDROOT
BRANCH   1   7
ATOM      2  C   UNL     1       1.638   2.966  19.662  0.00  0.00    +0.000 C 
ATOM      3  C   UNL     1       2.018   4.396  19.517  0.00  0.00    +0.000 A 
ATOM      4  N   UNL     1       1.840   5.298  20.462  0.00  0.00    +0.000 NA
ATOM      5  C   UNL     1       2.311   6.478  19.964  0.00  0.00    +0.000 A 
ATOM      6  C   UNL     1       2.780   6.299  18.688  0.00  0.00    +0.000 A 
ATOM      7  N   UNL     1       2.603   4.965  18.392  0.00  0.00    +0.000 N 
BRANCH   6   8
ATOM      8  N   UNL     1       3.335   7.294  17.834  0.00  0.00    +0.000 N 
ATOM      9  O   UNL     1       4.518   7.150  17.514  0.00  0.00    +0.000 OA
ATOM     10  O   UNL     1       2.602   8.229  17.492  0.00  0.00    +0.000 OA
ENDBRANCH   6   8
ENDBRANCH   1   7
BRANCH   1  11
ATOM     11  C   UNL     1       4.299   3.478  17.339  0.00  0.00    +0.000 C 
BRANCH  11  12
ATOM     12  N   UNL     1       5.461   4.006  16.634  0.00  0.00    +0.000 N 
ATOM     13  C   UNL     1       5.650   4.040  15.273  0.00  0.00    +0.000 A 
ATOM     14  C   UNL     1       6.880   4.624  15.076  0.00  0.00    +0.000 A 
ATOM     15  N   UNL     1       7.456   4.952  16.269  0.00  0.00    +0.000 NA
ATOM     16  C   UNL     1       6.594   4.565  17.190  0.00  0.00    +0.000 A 
ATOM     17  N   UNL     1       6.838   4.726  18.604  0.00  0.00    +0.000 N 
ATOM     18  O   UNL     1       5.960   4.342  19.386  0.00  0.00    +0.000 OA
ATOM     19  O   UNL     1       7.911   5.248  18.940  0.00  0.00    +0.000 OA
ENDBRANCH  11  12
ENDBRANCH   1  11
TORSDOF 4
ENDMDL
