MODEL 1
REMARK VINA RESULT:      -7.0      0.000      0.000
REMARK  Name = 
REMARK  5 active torsions:
REMARK  status: ('A' for Active; 'I' for Inactive)
REMARK    1  A    between atoms: C_1  and  C_2
REMARK    2  A    between atoms: C_2  and  C_3
REMARK    3  A    between atoms: C_2  and  C_4
REMARK    4  A    between atoms: C_2  and  N_5
REMARK    5  A    between atoms: C_6  and  C_8
REMARK                            x       y       z     vdW  Elec       q    Type
REMARK                         _______ _______ _______ _____ _____    ______ ____
ROOT
ATOM      1  C   UNL     1       4.773   4.542  17.871  0.00  0.00    +0.000 C 
ATOM      2  C   UNL     1       4.416   3.884  16.749  0.00  0.00    +0.000 C 
ATOM      3  C   UNL     1       5.378   4.070  15.669  0.00  0.00    +0.000 A 
ATOM      4  C   UNL     1       5.319   3.584  14.371  0.00  0.00    +0.000 A 
ATOM      5  C   UNL     1       6.352   3.925  13.487  0.00  0.00    +0.000 A 
ATOM      6 BR   UNL     1       6.294   3.293  11.703  0.00  0.00    +0.000 Br
ATOM      7  C   UNL     1       7.430   4.733  13.890  0.00  0.00    +0.000 A 
ATOM      8  C   UNL     1       7.494   5.217  15.195  0.00  0.00    +0.000 A 
ATOM      9  C   UNL     1       6.460   4.865  16.042  0.00  0.00    +0.000 A 
ATOM     10  S   UNL     1       6.292   5.334  17.715  0.00  0.00    +0.000 S 
ATOM     11  O   UNL     1       6.116   6.772  17.770  0.00  0.00    +0.000 OA
ATOM     12  O   UNL     1       7.325   4.653  18.464  0.00  0.00    +0.000 OA
ENDROOT
BRANCH   1  14
ATOM     13  N   UNL     1       2.844   3.805  19.113  0.00  0.00    +0.000 N 
ATOM     14  C   UNL     1       3.971   4.594  19.099  0.00  0.00    +0.000 C 
ATOM     15  O   UNL     1       4.347   5.279  20.044  0.00  0.00    +0.000 OA
ATOM     16  H   UNL     1       2.696   3.138  18.362  0.00  0.00    +0.000 HD
BRANCH  13  18
ATOM     17  C   UNL     1       1.444   5.075  20.720  0.00  0.00    +0.000 C 
ATOM     18  C   UNL     1       1.917   3.689  20.252  0.00  0.00    +0.000 C 
ATOM     19  C   UNL     1       2.575   2.923  21.409  0.00  0.00    +0.000 C 
ATOM     20  C   UNL     1       0.679   2.897  19.787  0.00  0.00    +0.000 C 
ENDBRANCH  13  18
ENDBRANCH   1  14
TORSDOF 2
ENDMDL
MODEL 2
REMARK VINA RESULT:      -6.5      0.973      1.385
REMARK  Name = 
REMARK  5 active torsions:
REMARK  status: ('A' for Active; 'I' for Inactive)
REMARK    1  A    between atoms: C_1  and  C_2
REMARK    2  A    between atoms: C_2  and  C_3
REMARK    3  A    between atoms: C_2  and  C_4
REMARK    4  A    between atoms: C_2  and  N_5
REMARK    5  A    between atoms: C_6  and  C_8
REMARK                            x       y       z     vdW  Elec       q    Type
REMARK                         _______ _______ _______ _____ _____    ______ ____
ROOT
ATOM      1  C   UNL     1       4.580   3.828  17.928  0.00  0.00    +0.000 C 
ATOM      2  C   UNL     1       4.489   3.276  16.701  0.00  0.00    +0.000 C 
ATOM      3  C   UNL     1       5.464   3.833  15.771  0.00  0.00    +0.000 A 
ATOM      4  C   UNL     1       5.634   3.540  14.425  0.00  0.00    +0.000 A 
ATOM      5  C   UNL     1       6.624   4.233  13.715  0.00  0.00    +0.000 A 
ATOM      6 BR   UNL     1       6.871   3.871  11.873  0.00  0.00    +0.000 Br
ATOM      7  C   UNL     1       7.436   5.199  14.336  0.00  0.00    +0.000 A 
ATOM      8  C   UNL     1       7.270   5.490  15.689  0.00  0.00    +0.000 A 
ATOM      9  C   UNL     1       6.286   4.791  16.361  0.00  0.00    +0.000 A 
ATOM     10  S   UNL     1       5.869   4.961  18.047  0.00  0.00    +0.000 S 
ATOM     11  O   UNL     1       5.345   6.297  18.255  0.00  0.00    +0.000 OA
ATOM     12  O   UNL     1       6.970   4.433  18.823  0.00  0.00    +0.000 OA
ENDROOT
BRANCH   1  14
ATOM     13  N   UNL     1       2.817   4.513  19.422  0.00  0.00    +0.000 N 
ATOM     14  C   UNL     1       3.689   3.515  19.052  0.00  0.00    +0.000 C 
ATOM     15  O   UNL     1       3.727   2.403  19.569  0.00  0.00    +0.000 OA
ATOM     16  H   UNL     1       2.728   5.337  18.835  0.00  0.00    +0.000 HD
BRANCH  13  18
ATOM     17  C   UNL     1       2.438   3.737  21.747  0.00  0.00    +0.000 C 
ATOM     18  C   UNL     1       1.823   4.398  20.503  0.00  0.00    +0.000 C 
ATOM     19  C   UNL     1       0.592   3.613  20.026  0.00  0.00    +0.000 C 
ATOM     20  C   UNL     1       1.372   5.819  20.895  0.00  0.00    +0.000 C 
ENDBRANCH  13  18
ENDBRANCH   1  14
TORSDOF 2
ENDMDL
MODEL 3
REMARK VINA RESULT:      -6.5      3.224      6.497
REMARK  Name = 
REMARK  5 active torsions:
REMARK  status: ('A' for Active; 'I' for Inactive)
REMARK    1  A    between atoms: C_1  and  C_2
REMARK    2  A    between atoms: C_2  and  C_3
REMARK    3  A    between atoms: C_2  and  C_4
REMARK    4  A    between atoms: C_2  and  N_5
REMARK    5  A    between atoms: C_6  and  C_8
REMARK                            x       y       z     vdW  Elec       q    Type
REMARK                         _______ _______ _______ _____ _____    ______ ____
ROOT
ATOM      1  C   UNL     1       5.725   4.525  15.499  0.00  0.00    +0.000 C 
ATOM      2  C   UNL     1       4.502   4.092  15.868  0.00  0.00    +0.000 C 
ATOM      3  C   UNL     1       4.242   4.313  17.286  0.00  0.00    +0.000 A 
ATOM      4  C   UNL     1       3.118   3.959  18.020  0.00  0.00    +0.000 A 
ATOM      5  C   UNL     1       3.106   4.245  19.393  0.00  0.00    +0.000 A 
ATOM      6 BR   UNL     1       1.596   3.761  20.427  0.00  0.00    +0.000 Br
ATOM      7  C   UNL     1       4.192   4.877  20.024  0.00  0.00    +0.000 A 
ATOM      8  C   UNL     1       5.318   5.238  19.286  0.00  0.00    +0.000 A 
ATOM      9  C   UNL     1       5.301   4.942  17.937  0.00  0.00    +0.000 A 
ATOM     10  S   UNL     1       6.574   5.280  16.791  0.00  0.00    +0.000 S 
ATOM     11  O   UNL     1       7.736   4.493  17.155  0.00  0.00    +0.000 OA
ATOM     12  O   UNL     1       6.635   6.715  16.619  0.00  0.00    +0.000 OA
ENDROOT
BRANCH   1  14
ATOM     13  N   UNL     1       5.650   3.486  13.326  0.00  0.00    +0.000 N 
ATOM     14  C   UNL     1       6.290   4.379  14.153  0.00  0.00    +0.000 C 
ATOM     15  O   UNL     1       7.250   5.066  13.817  0.00  0.00    +0.000 OA
ATOM     16  H   UNL     1       4.763   3.087  13.619  0.00  0.00    +0.000 HD
BRANCH  13  18
ATOM     17  C   UNL     1       6.500   1.751  11.770  0.00  0.00    +0.000 C 
ATOM     18  C   UNL     1       6.036   3.208  11.932  0.00  0.00    +0.000 C 
ATOM     19  C   UNL     1       7.132   4.179  11.471  0.00  0.00    +0.000 C 
ATOM     20  C   UNL     1       4.797   3.414  11.039  0.00  0.00    +0.000 C 
ENDBRANCH  13  18
ENDBRANCH   1  14
TORSDOF 2
ENDMDL
MODEL 4
REMARK VINA RESULT:      -6.4      7.177      8.919
REMARK  Name = 
REMARK  5 active torsions:
REMARK  status: ('A' for Active; 'I' for Inactive)
REMARK    1  A    between atoms: C_1  and  C_2
REMARK    2  A    between atoms: C_2  and  C_3
REMARK    3  A    between atoms: C_2  and  C_4
REMARK    4  A    between atoms: C_2  and  N_5
REMARK    5  A    between atoms: C_6  and  C_8
REMARK                            x       y       z     vdW  Elec       q    Type
REMARK                         _______ _______ _______ _____ _____    ______ ____
ROOT
ATOM      1  C   UNL     1       0.027  10.459  21.320  0.00  0.00    +0.000 C 
ATOM      2  C   UNL     1       0.650   9.281  21.526  0.00  0.00    +0.000 C 
ATOM      3  C   UNL     1       1.276   8.767  20.313  0.00  0.00    +0.000 A 
ATOM      4  C   UNL     1       1.961   7.573  20.138  0.00  0.00    +0.000 A 
ATOM      5  C   UNL     1       2.450   7.271  18.860  0.00  0.00    +0.000 A 
ATOM      6 BR   UNL     1       3.374   5.642  18.581  0.00  0.00    +0.000 Br
ATOM      7  C   UNL     1       2.266   8.145  17.774  0.00  0.00    +0.000 A 
ATOM      8  C   UNL     1       1.584   9.348  17.950  0.00  0.00    +0.000 A 
ATOM      9  C   UNL     1       1.112   9.617  19.221  0.00  0.00    +0.000 A 
ATOM     10  S   UNL     1       0.228  11.039  19.713  0.00  0.00    +0.000 S 
ATOM     11  O   UNL     1      -1.046  11.047  19.019  0.00  0.00    +0.000 OA
ATOM     12  O   UNL     1       1.142  12.159  19.662  0.00  0.00    +0.000 OA
ENDROOT
BRANCH   1  14
ATOM     13  N   UNL     1      -1.410  12.306  21.899  0.00  0.00    +0.000 N 
ATOM     14  C   UNL     1      -0.744  11.184  22.337  0.00  0.00    +0.000 C 
ATOM     15  O   UNL     1      -0.797  10.753  23.484  0.00  0.00    +0.000 OA
ATOM     16  H   UNL     1      -1.456  12.497  20.903  0.00  0.00    +0.000 HD
BRANCH  13  18
ATOM     17  C   UNL     1      -1.405  14.003  23.708  0.00  0.00    +0.000 C 
ATOM     18  C   UNL     1      -2.259  13.161  22.746  0.00  0.00    +0.000 C 
ATOM     19  C   UNL     1      -3.274  12.312  23.525  0.00  0.00    +0.000 C 
ATOM     20  C   UNL     1      -3.035  14.127  21.830  0.00  0.00    +0.000 C 
ENDBRANCH  13  18
ENDBRANCH   1  14
TORSDOF 2
ENDMDL
MODEL 5
REMARK VINA RESULT:      -6.4      3.622      4.673
REMARK  Name = 
REMARK  5 active torsions:
REMARK  status: ('A' for Active; 'I' for Inactive)
REMARK    1  A    between atoms: C_1  and  C_2
REMARK    2  A    between atoms: C_2  and  C_3
REMARK    3  A    between atoms: C_2  and  C_4
REMARK    4  A    between atoms: C_2  and  N_5
REMARK    5  A    between atoms: C_6  and  C_8
REMARK                            x       y       z     vdW  Elec       q    Type
REMARK                         _______ _______ _______ _____ _____    ______ ____
ROOT
ATOM      1  C   UNL     1       2.737   7.087  18.545  0.00  0.00    +0.000 C 
ATOM      2  C   UNL     1       3.556   7.416  17.525  0.00  0.00    +0.000 C 
ATOM      3  C   UNL     1       4.253   6.258  16.979  0.00  0.00    +0.000 A 
ATOM      4  C   UNL     1       5.198   6.223  15.963  0.00  0.00    +0.000 A 
ATOM      5  C   UNL     1       5.765   4.985  15.627  0.00  0.00    +0.000 A 
ATOM      6 BR   UNL     1       7.069   4.903  14.258  0.00  0.00    +0.000 Br
ATOM      7  C   UNL     1       5.394   3.801  16.289  0.00  0.00    +0.000 A 
ATOM      8  C   UNL     1       4.441   3.834  17.305  0.00  0.00    +0.000 A 
ATOM      9  C   UNL     1       3.901   5.068  17.614  0.00  0.00    +0.000 A 
ATOM     10  S   UNL     1       2.700   5.392  18.838  0.00  0.00    +0.000 S 
ATOM     11  O   UNL     1       3.278   5.094  20.135  0.00  0.00    +0.000 OA
ATOM     12  O   UNL     1       1.456   4.802  18.394  0.00  0.00    +0.000 OA
ENDROOT
BRANCH   1  14
ATOM     13  N   UNL     1       1.285   9.009  18.611  0.00  0.00    +0.000 N 
ATOM     14  C   UNL     1       1.955   8.048  19.332  0.00  0.00    +0.000 C 
ATOM     15  O   UNL     1       1.899   7.933  20.552  0.00  0.00    +0.000 OA
ATOM     16  H   UNL     1       1.242   8.931  17.599  0.00  0.00    +0.000 HD
BRANCH  13  18
ATOM     17  C   UNL     1       1.201  11.364  19.386  0.00  0.00    +0.000 C 
ATOM     18  C   UNL     1       0.425  10.050  19.200  0.00  0.00    +0.000 C 
ATOM     19  C   UNL     1      -0.161   9.574  20.537  0.00  0.00    +0.000 C 
ATOM     20  C   UNL     1      -0.739  10.320  18.228  0.00  0.00    +0.000 C 
ENDBRANCH  13  18
ENDBRANCH   1  14
TORSDOF 2
ENDMDL
MODEL 6
REMARK VINA RESULT:      -6.4      6.964      8.754
REMARK  Name = 
REMARK  5 active torsions:
REMARK  status: ('A' for Active; 'I' for Inactive)
REMARK    1  A    between atoms: C_1  and  C_2
REMARK    2  A    between atoms: C_2  and  C_3
REMARK    3  A    between atoms: C_2  and  C_4
REMARK    4  A    between atoms: C_2  and  N_5
REMARK    5  A    between atoms: C_6  and  C_8
REMARK                            x       y       z     vdW  Elec       q    Type
REMARK                         _______ _______ _______ _____ _____    ______ ____
ROOT
ATOM      1  C   UNL     1       0.178  10.287  21.260  0.00  0.00    +0.000 C 
ATOM      2  C   UNL     1       0.790   9.113  21.517  0.00  0.00    +0.000 C 
ATOM      3  C   UNL     1       1.400   8.534  20.326  0.00  0.00    +0.000 A 
ATOM      4  C   UNL     1       2.070   7.325  20.203  0.00  0.00    +0.000 A 
ATOM      5  C   UNL     1       2.545   6.955  18.937  0.00  0.00    +0.000 A 
ATOM      6 BR   UNL     1       3.449   5.305  18.730  0.00  0.00    +0.000 Br
ATOM      7  C   UNL     1       2.360   7.778  17.812  0.00  0.00    +0.000 A 
ATOM      8  C   UNL     1       1.693   8.995  17.935  0.00  0.00    +0.000 A 
ATOM      9  C   UNL     1       1.235   9.331  19.195  0.00  0.00    +0.000 A 
ATOM     10  S   UNL     1       0.371  10.785  19.625  0.00  0.00    +0.000 S 
ATOM     11  O   UNL     1      -0.908  10.774  18.942  0.00  0.00    +0.000 OA
ATOM     12  O   UNL     1       1.297  11.891  19.512  0.00  0.00    +0.000 OA
ENDROOT
BRANCH   1  14
ATOM     13  N   UNL     1      -1.320  12.112  21.744  0.00  0.00    +0.000 N 
ATOM     14  C   UNL     1      -0.576  11.069  22.246  0.00  0.00    +0.000 C 
ATOM     15  O   UNL     1      -0.547  10.747  23.430  0.00  0.00    +0.000 OA
ATOM     16  H   UNL     1      -1.427  12.205  20.739  0.00  0.00    +0.000 HD
BRANCH  13  18
ATOM     17  C   UNL     1      -3.099  12.192  23.470  0.00  0.00    +0.000 C 
ATOM     18  C   UNL     1      -2.167  13.003  22.554  0.00  0.00    +0.000 C 
ATOM     19  C   UNL     1      -2.980  13.944  21.653  0.00  0.00    +0.000 C 
ATOM     20  C   UNL     1      -1.250  13.858  23.449  0.00  0.00    +0.000 C 
ENDBRANCH  13  18
ENDBRANCH   1  14
TORSDOF 2
ENDMDL
MODEL 7
REMARK VINA RESULT:      -6.3      3.238      6.473
REMARK  Name = 
REMARK  5 active torsions:
REMARK  status: ('A' for Active; 'I' for Inactive)
REMARK    1  A    between atoms: C_1  and  C_2
REMARK    2  A    between atoms: C_2  and  C_3
REMARK    3  A    between atoms: C_2  and  C_4
REMARK    4  A    between atoms: C_2  and  N_5
REMARK    5  A    between atoms: C_6  and  C_8
REMARK                            x       y       z     vdW  Elec       q    Type
REMARK                         _______ _______ _______ _____ _____    ______ ____
ROOT
ATOM      1  C   UNL     1       5.480   4.455  15.563  0.00  0.00    +0.000 C 
ATOM      2  C   UNL     1       4.243   4.048  15.914  0.00  0.00    +0.000 C 
ATOM      3  C   UNL     1       3.939   4.343  17.310  0.00  0.00    +0.000 A 
ATOM      4  C   UNL     1       2.791   4.033  18.024  0.00  0.00    +0.000 A 
ATOM      5  C   UNL     1       2.737   4.389  19.380  0.00  0.00    +0.000 A 
ATOM      6 BR   UNL     1       1.192   3.967  20.389  0.00  0.00    +0.000 Br
ATOM      7  C   UNL     1       3.807   5.046  20.013  0.00  0.00    +0.000 A 
ATOM      8  C   UNL     1       4.958   5.362  19.294  0.00  0.00    +0.000 A 
ATOM      9  C   UNL     1       4.983   4.998  17.961  0.00  0.00    +0.000 A 
ATOM     10  S   UNL     1       6.293   5.270  16.841  0.00  0.00    +0.000 S 
ATOM     11  O   UNL     1       7.438   4.496  17.282  0.00  0.00    +0.000 OA
ATOM     12  O   UNL     1       6.371   6.694  16.599  0.00  0.00    +0.000 OA
ENDROOT
BRANCH   1  14
ATOM     13  N   UNL     1       5.299   3.591  13.320  0.00  0.00    +0.000 N 
ATOM     14  C   UNL     1       6.087   4.237  14.245  0.00  0.00    +0.000 C 
ATOM     15  O   UNL     1       7.215   4.662  14.016  0.00  0.00    +0.000 OA
ATOM     16  H   UNL     1       4.319   3.428  13.532  0.00  0.00    +0.000 HD
BRANCH  13  18
ATOM     17  C   UNL     1       6.910   4.154  11.520  0.00  0.00    +0.000 C 
ATOM     18  C   UNL     1       5.702   3.297  11.935  0.00  0.00    +0.000 C 
ATOM     19  C   UNL     1       4.527   3.517  10.971  0.00  0.00    +0.000 C 
ATOM     20  C   UNL     1       6.123   1.817  11.859  0.00  0.00    +0.000 C 
ENDBRANCH  13  18
ENDBRANCH   1  14
TORSDOF 2
ENDMDL
MODEL 8
REMARK VINA RESULT:      -6.3      0.720      1.140
REMARK  Name = 
REMARK  5 active torsions:
REMARK  status: ('A' for Active; 'I' for Inactive)
REMARK    1  A    between atoms: C_1  and  C_2
REMARK    2  A    between atoms: C_2  and  C_3
REMARK    3  A    between atoms: C_2  and  C_4
REMARK    4  A    between atoms: C_2  and  N_5
REMARK    5  A    between atoms: C_6  and  C_8
REMARK                            x       y       z     vdW  Elec       q    Type
REMARK                         _______ _______ _______ _____ _____    ______ ____
ROOT
ATOM      1  C   UNL     1       4.192   4.724  17.576  0.00  0.00    +0.000 C 
ATOM      2  C   UNL     1       4.011   4.090  16.400  0.00  0.00    +0.000 C 
ATOM      3  C   UNL     1       5.162   4.228  15.514  0.00  0.00    +0.000 A 
ATOM      4  C   UNL     1       5.313   3.750  14.221  0.00  0.00    +0.000 A 
ATOM      5  C   UNL     1       6.507   4.038  13.543  0.00  0.00    +0.000 A 
ATOM      6 BR   UNL     1       6.741   3.416  11.771  0.00  0.00    +0.000 Br
ATOM      7  C   UNL     1       7.535   4.785  14.146  0.00  0.00    +0.000 A 
ATOM      8  C   UNL     1       7.385   5.260  15.448  0.00  0.00    +0.000 A 
ATOM      9  C   UNL     1       6.198   4.962  16.089  0.00  0.00    +0.000 A 
ATOM     10  S   UNL     1       5.754   5.433  17.709  0.00  0.00    +0.000 S 
ATOM     11  O   UNL     1       5.647   6.879  17.750  0.00  0.00    +0.000 OA
ATOM     12  O   UNL     1       6.597   4.694  18.624  0.00  0.00    +0.000 OA
ENDROOT
BRANCH   1  14
ATOM     13  N   UNL     1       3.042   3.697  19.429  0.00  0.00    +0.000 N 
ATOM     14  C   UNL     1       3.184   4.815  18.639  0.00  0.00    +0.000 C 
ATOM     15  O   UNL     1       2.562   5.860  18.802  0.00  0.00    +0.000 OA
ATOM     16  H   UNL     1       3.713   2.940  19.341  0.00  0.00    +0.000 HD
BRANCH  13  18
ATOM     17  C   UNL     1       0.715   3.148  20.089  0.00  0.00    +0.000 C 
ATOM     18  C   UNL     1       2.111   3.586  20.564  0.00  0.00    +0.000 C 
ATOM     19  C   UNL     1       2.028   4.915  21.329  0.00  0.00    +0.000 C 
ATOM     20  C   UNL     1       2.646   2.506  21.523  0.00  0.00    +0.000 C 
ENDBRANCH  13  18
ENDBRANCH   1  14
TORSDOF 2
ENDMDL
MODEL 9
REMARK VINA RESULT:      -6.3      3.260      6.473
REMARK  Name = 
REMARK  5 active torsions:
REMARK  status: ('A' for Active; 'I' for Inactive)
REMARK    1  A    between atoms: C_1  and  C_2
REMARK    2  A    between atoms: C_2  and  C_3
REMARK    3  A    between atoms: C_2  and  C_4
REMARK    4  A    between atoms: C_2  and  N_5
REMARK    5  A    between atoms: C_6  and  C_8
REMARK                            x       y       z     vdW  Elec       q    Type
REMARK                         _______ _______ _______ _____ _____    ______ ____
ROOT
ATOM      1  C   UNL     1       5.575   4.462  15.474  0.00  0.00    +0.000 C 
ATOM      2  C   UNL     1       4.347   4.074  15.873  0.00  0.00    +0.000 C 
ATOM      3  C   UNL     1       4.104   4.367  17.281  0.00  0.00    +0.000 A 
ATOM      4  C   UNL     1       2.979   4.073  18.039  0.00  0.00    +0.000 A 
ATOM      5  C   UNL     1       2.985   4.423  19.397  0.00  0.00    +0.000 A 
ATOM      6 BR   UNL     1       1.475   4.022  20.465  0.00  0.00    +0.000 Br
ATOM      7  C   UNL     1       4.090   5.060  19.989  0.00  0.00    +0.000 A 
ATOM      8  C   UNL     1       5.218   5.361  19.227  0.00  0.00    +0.000 A 
ATOM      9  C   UNL     1       5.183   5.002  17.893  0.00  0.00    +0.000 A 
ATOM     10  S   UNL     1       6.452   5.257  16.722  0.00  0.00    +0.000 S 
ATOM     11  O   UNL     1       7.600   4.463  17.114  0.00  0.00    +0.000 OA
ATOM     12  O   UNL     1       6.544   6.681  16.483  0.00  0.00    +0.000 OA
ENDROOT
BRANCH   1  14
ATOM     13  N   UNL     1       5.332   3.521  13.269  0.00  0.00    +0.000 N 
ATOM     14  C   UNL     1       6.126   4.240  14.132  0.00  0.00    +0.000 C 
ATOM     15  O   UNL     1       7.212   4.723  13.832  0.00  0.00    +0.000 OA
ATOM     16  H   UNL     1       4.376   3.306  13.537  0.00  0.00    +0.000 HD
BRANCH  13  18
ATOM     17  C   UNL     1       4.513   3.538  10.928  0.00  0.00    +0.000 C 
ATOM     18  C   UNL     1       5.680   3.209  11.873  0.00  0.00    +0.000 C 
ATOM     19  C   UNL     1       6.090   1.735  11.733  0.00  0.00    +0.000 C 
ATOM     20  C   UNL     1       6.880   4.087  11.467  0.00  0.00    +0.000 C 
ENDBRANCH  13  18
ENDBRANCH   1  14
TORSDOF 2
ENDMDL
