MODEL 1
REMARK VINA RESULT:      -7.8      0.000      0.000
REMARK  Name = 
REMARK  5 active torsions:
REMARK  status: ('A' for Active; 'I' for Inactive)
REMARK    1  A    between atoms: C_1  and  C_2
REMARK    2  A    between atoms: C_6  and  N_7
REMARK    3  A    between atoms: C_8  and  S_9
REMARK    4  A    between atoms: N_10  and  C_11
REMARK    5  A    between atoms: C_21  and  C_22
REMARK                            x       y       z     vdW  Elec       q    Type
REMARK                         _______ _______ _______ _____ _____    ______ ____
ROOT
ATOM      1  N   UNL     1       2.734   7.125  19.274  0.00  0.00    +0.000 NA
ATOM      2  C   UNL     1       2.709   5.843  19.403  0.00  0.00    +0.000 C 
ATOM      3  N   UNL     1       3.553   4.960  18.788  0.00  0.00    +0.000 N 
ATOM      4  H   UNL     1       3.482   4.024  19.171  0.00  0.00    +0.000 HD
ENDROOT
BRANCH   3   5
ATOM      5  C   UNL     1       4.819   5.262  18.136  0.00  0.00    +0.000 C 
ATOM      6  C   UNL     1       5.970   5.520  19.131  0.00  0.00    +0.000 C 
ATOM      7  N   UNL     1       7.234   5.759  18.402  0.00  0.00    +0.000 NA
ATOM      8  C   UNL     1       7.584   4.592  17.595  0.00  0.00    +0.000 C 
ATOM      9  N   UNL     1       6.548   4.317  16.599  0.00  0.00    +0.000 NA
ATOM     10  C   UNL     1       6.414   5.487  15.732  0.00  0.00    +0.000 C 
ATOM     11  N   UNL     1       6.048   6.670  16.508  0.00  0.00    +0.000 NA
ATOM     12  C   UNL     1       7.082   6.913  17.515  0.00  0.00    +0.000 C 
ATOM     13  C   UNL     1       4.743   6.465  17.172  0.00  0.00    +0.000 C 
ATOM     14  C   UNL     1       5.265   4.048  17.274  0.00  0.00    +0.000 C 
ENDBRANCH   3   5
BRANCH   1  20
ATOM     15  C   UNL     1      -0.479  10.989  19.028  0.00  0.00    +0.000 C 
ATOM     16  C   UNL     1       0.327   9.976  19.798  0.00  0.00    +0.000 A 
ATOM     17  C   UNL     1       0.096   9.866  21.173  0.00  0.00    +0.000 A 
ATOM     18  C   UNL     1       0.645   8.817  21.889  0.00  0.00    +0.000 A 
ATOM     19  C   UNL     1       1.455   7.886  21.237  0.00  0.00    +0.000 A 
ATOM     20  C   UNL     1       1.856   8.046  19.901  0.00  0.00    +0.000 A 
ATOM     21  C   UNL     1       1.243   9.090  19.161  0.00  0.00    +0.000 A 
ATOM     22  C   UNL     1       1.482   9.242  17.675  0.00  0.00    +0.000 C 
ENDBRANCH   1  20
BRANCH   2  23
ATOM     23  S   UNL     1       1.583   4.914  20.394  0.00  0.00    +0.000 S 
ATOM     24  H   UNL     1       1.978   3.721  19.926  0.00  0.00    +0.000 HD
ENDBRANCH   2  23
TORSDOF 3
ENDMDL
MODEL 2
REMARK VINA RESULT:      -7.7      0.094      1.551
REMARK  Name = 
REMARK  5 active torsions:
REMARK  status: ('A' for Active; 'I' for Inactive)
REMARK    1  A    between atoms: C_1  and  C_2
REMARK    2  A    between atoms: C_6  and  N_7
REMARK    3  A    between atoms: C_8  and  S_9
REMARK    4  A    between atoms: N_10  and  C_11
REMARK    5  A    between atoms: C_21  and  C_22
REMARK                            x       y       z     vdW  Elec       q    Type
REMARK                         _______ _______ _______ _____ _____    ______ ____
ROOT
ATOM      1  N   UNL     1       2.721   7.069  19.224  0.00  0.00    +0.000 NA
ATOM      2  C   UNL     1       2.689   5.789  19.375  0.00  0.00    +0.000 C 
ATOM      3  N   UNL     1       3.495   4.888  18.739  0.00  0.00    +0.000 N 
ATOM      4  H   UNL     1       3.432   3.958  19.140  0.00  0.00    +0.000 HD
ENDROOT
BRANCH   3   5
ATOM      5  C   UNL     1       4.735   5.165  18.026  0.00  0.00    +0.000 C 
ATOM      6  C   UNL     1       4.649   6.411  17.120  0.00  0.00    +0.000 C 
ATOM      7  N   UNL     1       5.956   6.668  16.479  0.00  0.00    +0.000 NA
ATOM      8  C   UNL     1       6.982   6.912  17.491  0.00  0.00    +0.000 C 
ATOM      9  N   UNL     1       7.141   5.747  18.362  0.00  0.00    +0.000 NA
ATOM     10  C   UNL     1       7.530   4.602  17.539  0.00  0.00    +0.000 C 
ATOM     11  N   UNL     1       6.517   4.321  16.526  0.00  0.00    +0.000 NA
ATOM     12  C   UNL     1       6.352   5.506  15.681  0.00  0.00    +0.000 C 
ATOM     13  C   UNL     1       5.228   3.983  17.166  0.00  0.00    +0.000 C 
ATOM     14  C   UNL     1       5.869   5.458  19.047  0.00  0.00    +0.000 C 
ENDBRANCH   3   5
BRANCH   1  20
ATOM     15  C   UNL     1      -0.411  11.003  19.059  0.00  0.00    +0.000 C 
ATOM     16  C   UNL     1       0.393   9.973  19.809  0.00  0.00    +0.000 A 
ATOM     17  C   UNL     1       0.197   9.869  21.190  0.00  0.00    +0.000 A 
ATOM     18  C   UNL     1       0.741   8.809  21.892  0.00  0.00    +0.000 A 
ATOM     19  C   UNL     1       1.513   7.860  21.219  0.00  0.00    +0.000 A 
ATOM     20  C   UNL     1       1.880   8.009  19.873  0.00  0.00    +0.000 A 
ATOM     21  C   UNL     1       1.271   9.066  19.148  0.00  0.00    +0.000 A 
ATOM     22  C   UNL     1       1.473   9.212  17.656  0.00  0.00    +0.000 C 
ENDBRANCH   1  20
BRANCH   2  23
ATOM     23  S   UNL     1       1.597   4.889  20.429  0.00  0.00    +0.000 S 
ATOM     24  H   UNL     1       1.768   5.698  21.485  0.00  0.00    +0.000 HD
ENDBRANCH   2  23
TORSDOF 3
ENDMDL
MODEL 3
REMARK VINA RESULT:      -7.6      0.147      1.556
REMARK  Name = 
REMARK  5 active torsions:
REMARK  status: ('A' for Active; 'I' for Inactive)
REMARK    1  A    between atoms: C_1  and  C_2
REMARK    2  A    between atoms: C_6  and  N_7
REMARK    3  A    between atoms: C_8  and  S_9
REMARK    4  A    between atoms: N_10  and  C_11
REMARK    5  A    between atoms: C_21  and  C_22
REMARK                            x       y       z     vdW  Elec       q    Type
REMARK                         _______ _______ _______ _____ _____    ______ ____
ROOT
ATOM      1  N   UNL     1       2.721   7.047  19.244  0.00  0.00    +0.000 NA
ATOM      2  C   UNL     1       2.656   5.766  19.378  0.00  0.00    +0.000 C 
ATOM      3  N   UNL     1       3.459   4.854  18.750  0.00  0.00    +0.000 N 
ATOM      4  H   UNL     1       3.365   3.922  19.138  0.00  0.00    +0.000 HD
ENDROOT
BRANCH   3   5
ATOM      5  C   UNL     1       4.722   5.113  18.073  0.00  0.00    +0.000 C 
ATOM      6  C   UNL     1       5.176   3.949  17.168  0.00  0.00    +0.000 C 
ATOM      7  N   UNL     1       6.428   4.304  16.467  0.00  0.00    +0.000 NA
ATOM      8  C   UNL     1       6.225   5.482  15.626  0.00  0.00    +0.000 C 
ATOM      9  N   UNL     1       5.831   6.637  16.433  0.00  0.00    +0.000 NA
ATOM     10  C   UNL     1       6.890   6.908  17.405  0.00  0.00    +0.000 C 
ATOM     11  N   UNL     1       7.107   5.754  18.273  0.00  0.00    +0.000 NA
ATOM     12  C   UNL     1       7.475   4.603  17.446  0.00  0.00    +0.000 C 
ATOM     13  C   UNL     1       5.880   5.447  19.037  0.00  0.00    +0.000 C 
ATOM     14  C   UNL     1       4.571   6.346  17.139  0.00  0.00    +0.000 C 
ENDBRANCH   3   5
BRANCH   1  20
ATOM     15  C   UNL     1      -0.381  11.003  19.041  0.00  0.00    +0.000 C 
ATOM     16  C   UNL     1       0.412   9.972  19.801  0.00  0.00    +0.000 A 
ATOM     17  C   UNL     1       0.210   9.878  21.182  0.00  0.00    +0.000 A 
ATOM     18  C   UNL     1       0.744   8.818  21.893  0.00  0.00    +0.000 A 
ATOM     19  C   UNL     1       1.511   7.859  21.229  0.00  0.00    +0.000 A 
ATOM     20  C   UNL     1       1.885   7.997  19.884  0.00  0.00    +0.000 A 
ATOM     21  C   UNL     1       1.286   9.054  19.150  0.00  0.00    +0.000 A 
ATOM     22  C   UNL     1       1.495   9.189  17.657  0.00  0.00    +0.000 C 
ENDBRANCH   1  20
BRANCH   2  23
ATOM     23  S   UNL     1       1.519   4.877  20.392  0.00  0.00    +0.000 S 
ATOM     24  H   UNL     1       1.807   3.680  19.863  0.00  0.00    +0.000 HD
ENDBRANCH   2  23
TORSDOF 3
ENDMDL
MODEL 4
REMARK VINA RESULT:      -6.6      3.246      6.862
REMARK  Name = 
REMARK  5 active torsions:
REMARK  status: ('A' for Active; 'I' for Inactive)
REMARK    1  A    between atoms: C_1  and  C_2
REMARK    2  A    between atoms: C_6  and  N_7
REMARK    3  A    between atoms: C_8  and  S_9
REMARK    4  A    between atoms: N_10  and  C_11
REMARK    5  A    between atoms: C_21  and  C_22
REMARK                            x       y       z     vdW  Elec       q    Type
REMARK                         _______ _______ _______ _____ _____    ______ ____
ROOT
ATOM      1  N   UNL     1       1.897   6.501  18.482  0.00  0.00    +0.000 NA
ATOM      2  C   UNL     1       2.759   7.306  17.959  0.00  0.00    +0.000 C 
ATOM      3  N   UNL     1       2.603   8.655  17.805  0.00  0.00    +0.000 N 
ATOM      4  H   UNL     1       3.467   9.120  17.548  0.00  0.00    +0.000 HD
ENDROOT
BRANCH   3   5
ATOM      5  C   UNL     1       1.618   9.507  18.457  0.00  0.00    +0.000 C 
ATOM      6  C   UNL     1       1.431   9.186  19.954  0.00  0.00    +0.000 C 
ATOM      7  N   UNL     1       0.467  10.126  20.564  0.00  0.00    +0.000 NA
ATOM      8  C   UNL     1       0.954  11.499  20.451  0.00  0.00    +0.000 C 
ATOM      9  N   UNL     1       1.113  11.882  19.048  0.00  0.00    +0.000 NA
ATOM     10  C   UNL     1      -0.185  11.769  18.384  0.00  0.00    +0.000 C 
ATOM     11  N   UNL     1      -0.693  10.402  18.465  0.00  0.00    +0.000 NA
ATOM     12  C   UNL     1      -0.821  10.028  19.875  0.00  0.00    +0.000 C 
ATOM     13  C   UNL     1       0.229   9.469  17.784  0.00  0.00    +0.000 C 
ATOM     14  C   UNL     1       2.085  10.988  18.394  0.00  0.00    +0.000 C 
ENDBRANCH   3   5
BRANCH   1  20
ATOM     15  C   UNL     1       2.094   2.403  21.394  0.00  0.00    +0.000 C 
ATOM     16  C   UNL     1       2.207   3.094  20.060  0.00  0.00    +0.000 A 
ATOM     17  C   UNL     1       2.342   2.296  18.919  0.00  0.00    +0.000 A 
ATOM     18  C   UNL     1       2.235   2.858  17.660  0.00  0.00    +0.000 A 
ATOM     19  C   UNL     1       2.021   4.231  17.534  0.00  0.00    +0.000 A 
ATOM     20  C   UNL     1       2.049   5.100  18.636  0.00  0.00    +0.000 A 
ATOM     21  C   UNL     1       2.101   4.508  19.926  0.00  0.00    +0.000 A 
ATOM     22  C   UNL     1       1.970   5.347  21.178  0.00  0.00    +0.000 C 
ENDBRANCH   1  20
BRANCH   2  23
ATOM     23  S   UNL     1       4.340   6.867  17.312  0.00  0.00    +0.000 S 
ATOM     24  H   UNL     1       4.455   5.749  18.043  0.00  0.00    +0.000 HD
ENDBRANCH   2  23
TORSDOF 3
ENDMDL
MODEL 5
REMARK VINA RESULT:      -6.5      3.238      6.852
REMARK  Name = 
REMARK  5 active torsions:
REMARK  status: ('A' for Active; 'I' for Inactive)
REMARK    1  A    between atoms: C_1  and  C_2
REMARK    2  A    between atoms: C_6  and  N_7
REMARK    3  A    between atoms: C_8  and  S_9
REMARK    4  A    between atoms: N_10  and  C_11
REMARK    5  A    between atoms: C_21  and  C_22
REMARK                            x       y       z     vdW  Elec       q    Type
REMARK                         _______ _______ _______ _____ _____    ______ ____
ROOT
ATOM      1  N   UNL     1       1.903   6.537  18.457  0.00  0.00    +0.000 NA
ATOM      2  C   UNL     1       2.784   7.320  17.934  0.00  0.00    +0.000 C 
ATOM      3  N   UNL     1       2.654   8.669  17.761  0.00  0.00    +0.000 N 
ATOM      4  H   UNL     1       3.529   9.116  17.509  0.00  0.00    +0.000 HD
ENDROOT
BRANCH   3   5
ATOM      5  C   UNL     1       1.677   9.547  18.391  0.00  0.00    +0.000 C 
ATOM      6  C   UNL     1       0.267   9.428  17.776  0.00  0.00    +0.000 C 
ATOM      7  N   UNL     1      -0.683  10.297  18.502  0.00  0.00    +0.000 NA
ATOM      8  C   UNL     1      -0.765   9.902  19.907  0.00  0.00    +0.000 C 
ATOM      9  N   UNL     1       0.537  10.031  20.561  0.00  0.00    +0.000 NA
ATOM     10  C   UNL     1       0.966  11.427  20.472  0.00  0.00    +0.000 C 
ATOM     11  N   UNL     1       1.073  11.850  19.078  0.00  0.00    +0.000 NA
ATOM     12  C   UNL     1      -0.232  11.689  18.433  0.00  0.00    +0.000 C 
ATOM     13  C   UNL     1       2.083  11.035  18.370  0.00  0.00    +0.000 C 
ATOM     14  C   UNL     1       1.522   9.165  19.890  0.00  0.00    +0.000 C 
ENDBRANCH   3   5
BRANCH   1  20
ATOM     15  C   UNL     1       1.980   2.471  21.419  0.00  0.00    +0.000 C 
ATOM     16  C   UNL     1       2.127   3.144  20.080  0.00  0.00    +0.000 A 
ATOM     17  C   UNL     1       2.268   2.330  18.951  0.00  0.00    +0.000 A 
ATOM     18  C   UNL     1       2.192   2.879  17.684  0.00  0.00    +0.000 A 
ATOM     19  C   UNL     1       2.005   4.254  17.538  0.00  0.00    +0.000 A 
ATOM     20  C   UNL     1       2.028   5.135  18.630  0.00  0.00    +0.000 A 
ATOM     21  C   UNL     1       2.048   4.558  19.927  0.00  0.00    +0.000 A 
ATOM     22  C   UNL     1       1.909   5.414  21.167  0.00  0.00    +0.000 C 
ENDBRANCH   1  20
BRANCH   2  23
ATOM     23  S   UNL     1       4.365   6.845  17.311  0.00  0.00    +0.000 S 
ATOM     24  H   UNL     1       3.985   6.850  16.025  0.00  0.00    +0.000 HD
ENDBRANCH   2  23
TORSDOF 3
ENDMDL
MODEL 6
REMARK VINA RESULT:      -6.5      3.239      6.863
REMARK  Name = 
REMARK  5 active torsions:
REMARK  status: ('A' for Active; 'I' for Inactive)
REMARK    1  A    between atoms: C_1  and  C_2
REMARK    2  A    between atoms: C_6  and  N_7
REMARK    3  A    between atoms: C_8  and  S_9
REMARK    4  A    between atoms: N_10  and  C_11
REMARK    5  A    between atoms: C_21  and  C_22
REMARK                            x       y       z     vdW  Elec       q    Type
REMARK                         _______ _______ _______ _____ _____    ______ ____
ROOT
ATOM      1  N   UNL     1       1.920   6.536  18.500  0.00  0.00    +0.000 NA
ATOM      2  C   UNL     1       2.783   7.322  17.951  0.00  0.00    +0.000 C 
ATOM      3  N   UNL     1       2.650   8.674  17.797  0.00  0.00    +0.000 N 
ATOM      4  H   UNL     1       3.516   9.121  17.516  0.00  0.00    +0.000 HD
ENDROOT
BRANCH   3   5
ATOM      5  C   UNL     1       1.700   9.547  18.472  0.00  0.00    +0.000 C 
ATOM      6  C   UNL     1       2.095  11.037  18.411  0.00  0.00    +0.000 C 
ATOM      7  N   UNL     1       1.058  11.869  19.060  0.00  0.00    +0.000 NA
ATOM      8  C   UNL     1      -0.224  11.710  18.377  0.00  0.00    +0.000 C 
ATOM      9  N   UNL     1      -0.676  10.320  18.434  0.00  0.00    +0.000 NA
ATOM     10  C   UNL     1      -0.821   9.935  19.838  0.00  0.00    +0.000 C 
ATOM     11  N   UNL     1       0.449  10.067  20.547  0.00  0.00    +0.000 NA
ATOM     12  C   UNL     1       0.899  11.458  20.457  0.00  0.00    +0.000 C 
ATOM     13  C   UNL     1       1.466   9.175  19.952  0.00  0.00    +0.000 C 
ATOM     14  C   UNL     1       0.313   9.445  17.779  0.00  0.00    +0.000 C 
ENDBRANCH   3   5
BRANCH   1  20
ATOM     15  C   UNL     1       2.038   2.435  21.411  0.00  0.00    +0.000 C 
ATOM     16  C   UNL     1       2.168   3.124  20.077  0.00  0.00    +0.000 A 
ATOM     17  C   UNL     1       2.293   2.324  18.937  0.00  0.00    +0.000 A 
ATOM     18  C   UNL     1       2.201   2.888  17.678  0.00  0.00    +0.000 A 
ATOM     19  C   UNL     1       2.011   4.265  17.551  0.00  0.00    +0.000 A 
ATOM     20  C   UNL     1       2.048   5.132  18.654  0.00  0.00    +0.000 A 
ATOM     21  C   UNL     1       2.085   4.540  19.943  0.00  0.00    +0.000 A 
ATOM     22  C   UNL     1       1.963   5.380  21.196  0.00  0.00    +0.000 C 
ENDBRANCH   1  20
BRANCH   2  23
ATOM     23  S   UNL     1       4.337   6.850  17.263  0.00  0.00    +0.000 S 
ATOM     24  H   UNL     1       4.675   6.050  18.285  0.00  0.00    +0.000 HD
ENDBRANCH   2  23
TORSDOF 3
ENDMDL
MODEL 7
REMARK VINA RESULT:      -6.4      1.009      1.893
REMARK  Name = 
REMARK  5 active torsions:
REMARK  status: ('A' for Active; 'I' for Inactive)
REMARK    1  A    between atoms: C_1  and  C_2
REMARK    2  A    between atoms: C_6  and  N_7
REMARK    3  A    between atoms: C_8  and  S_9
REMARK    4  A    between atoms: N_10  and  C_11
REMARK    5  A    between atoms: C_21  and  C_22
REMARK                            x       y       z     vdW  Elec       q    Type
REMARK                         _______ _______ _______ _____ _____    ______ ____
ROOT
ATOM      1  N   UNL     1       2.930   7.240  18.183  0.00  0.00    +0.000 NA
ATOM      2  C   UNL     1       2.779   5.978  17.970  0.00  0.00    +0.000 C 
ATOM      3  N   UNL     1       3.729   5.130  17.472  0.00  0.00    +0.000 N 
ATOM      4  H   UNL     1       3.466   4.155  17.562  0.00  0.00    +0.000 HD
ENDROOT
BRANCH   3   5
ATOM      5  C   UNL     1       5.162   5.373  17.379  0.00  0.00    +0.000 C 
ATOM      6  C   UNL     1       5.853   5.474  18.755  0.00  0.00    +0.000 C 
ATOM      7  N   UNL     1       7.310   5.659  18.584  0.00  0.00    +0.000 NA
ATOM      8  C   UNL     1       7.887   4.522  17.869  0.00  0.00    +0.000 C 
ATOM      9  N   UNL     1       7.301   4.395  16.534  0.00  0.00    +0.000 NA
ATOM     10  C   UNL     1       7.567   5.626  15.790  0.00  0.00    +0.000 C 
ATOM     11  N   UNL     1       6.989   6.781  16.472  0.00  0.00    +0.000 NA
ATOM     12  C   UNL     1       7.567   6.876  17.813  0.00  0.00    +0.000 C 
ATOM     13  C   UNL     1       5.521   6.638  16.571  0.00  0.00    +0.000 C 
ATOM     14  C   UNL     1       5.846   4.186  16.645  0.00  0.00    +0.000 C 
ENDBRANCH   3   5
BRANCH   1  20
ATOM     15  C   UNL     1       0.267   9.112  22.019  0.00  0.00    +0.000 C 
ATOM     16  C   UNL     1       0.594   9.007  20.552  0.00  0.00    +0.000 A 
ATOM     17  C   UNL     1      -0.016   9.915  19.680  0.00  0.00    +0.000 A 
ATOM     18  C   UNL     1       0.404  10.006  18.365  0.00  0.00    +0.000 A 
ATOM     19  C   UNL     1       1.420   9.166  17.906  0.00  0.00    +0.000 A 
ATOM     20  C   UNL     1       1.946   8.127  18.689  0.00  0.00    +0.000 A 
ATOM     21  C   UNL     1       1.551   8.078  20.051  0.00  0.00    +0.000 A 
ATOM     22  C   UNL     1       2.184   7.100  21.016  0.00  0.00    +0.000 C 
ENDBRANCH   1  20
BRANCH   2  23
ATOM     23  S   UNL     1       1.315   5.037  18.261  0.00  0.00    +0.000 S 
ATOM     24  H   UNL     1       1.812   4.377  19.316  0.00  0.00    +0.000 HD
ENDBRANCH   2  23
TORSDOF 3
ENDMDL
MODEL 8
REMARK VINA RESULT:      -6.4      1.032      2.441
REMARK  Name = 
REMARK  5 active torsions:
REMARK  status: ('A' for Active; 'I' for Inactive)
REMARK    1  A    between atoms: C_1  and  C_2
REMARK    2  A    between atoms: C_6  and  N_7
REMARK    3  A    between atoms: C_8  and  S_9
REMARK    4  A    between atoms: N_10  and  C_11
REMARK    5  A    between atoms: C_21  and  C_22
REMARK                            x       y       z     vdW  Elec       q    Type
REMARK                         _______ _______ _______ _____ _____    ______ ____
ROOT
ATOM      1  N   UNL     1       2.978   7.154  18.163  0.00  0.00    +0.000 NA
ATOM      2  C   UNL     1       2.788   5.903  17.912  0.00  0.00    +0.000 C 
ATOM      3  N   UNL     1       3.718   5.038  17.408  0.00  0.00    +0.000 N 
ATOM      4  H   UNL     1       3.420   4.070  17.466  0.00  0.00    +0.000 HD
ENDROOT
BRANCH   3   5
ATOM      5  C   UNL     1       5.160   5.233  17.345  0.00  0.00    +0.000 C 
ATOM      6  C   UNL     1       5.899   4.083  16.631  0.00  0.00    +0.000 C 
ATOM      7  N   UNL     1       7.346   4.376  16.550  0.00  0.00    +0.000 NA
ATOM      8  C   UNL     1       7.575   5.604  15.791  0.00  0.00    +0.000 C 
ATOM      9  N   UNL     1       6.931   6.746  16.441  0.00  0.00    +0.000 NA
ATOM     10  C   UNL     1       7.489   6.892  17.785  0.00  0.00    +0.000 C 
ATOM     11  N   UNL     1       7.262   5.685  18.576  0.00  0.00    +0.000 NA
ATOM     12  C   UNL     1       7.891   4.550  17.897  0.00  0.00    +0.000 C 
ATOM     13  C   UNL     1       5.814   5.434  18.729  0.00  0.00    +0.000 C 
ATOM     14  C   UNL     1       5.478   6.517  16.528  0.00  0.00    +0.000 C 
ENDBRANCH   3   5
BRANCH   1  20
ATOM     15  C   UNL     1       0.343   9.040  22.011  0.00  0.00    +0.000 C 
ATOM     16  C   UNL     1       0.676   8.948  20.545  0.00  0.00    +0.000 A 
ATOM     17  C   UNL     1       0.098   9.886  19.683  0.00  0.00    +0.000 A 
ATOM     18  C   UNL     1       0.529   9.986  18.373  0.00  0.00    +0.000 A 
ATOM     19  C   UNL     1       1.524   9.125  17.907  0.00  0.00    +0.000 A 
ATOM     20  C   UNL     1       2.015   8.059  18.677  0.00  0.00    +0.000 A 
ATOM     21  C   UNL     1       1.610   8.001  20.036  0.00  0.00    +0.000 A 
ATOM     22  C   UNL     1       2.210   6.991  20.990  0.00  0.00    +0.000 C 
ENDBRANCH   1  20
BRANCH   2  23
ATOM     23  S   UNL     1       1.288   5.006  18.152  0.00  0.00    +0.000 S 
ATOM     24  H   UNL     1       1.889   3.816  18.293  0.00  0.00    +0.000 HD
ENDBRANCH   2  23
TORSDOF 3
ENDMDL
MODEL 9
REMARK VINA RESULT:      -6.3      1.023      2.433
REMARK  Name = 
REMARK  5 active torsions:
REMARK  status: ('A' for Active; 'I' for Inactive)
REMARK    1  A    between atoms: C_1  and  C_2
REMARK    2  A    between atoms: C_6  and  N_7
REMARK    3  A    between atoms: C_8  and  S_9
REMARK    4  A    between atoms: N_10  and  C_11
REMARK    5  A    between atoms: C_21  and  C_22
REMARK                            x       y       z     vdW  Elec       q    Type
REMARK                         _______ _______ _______ _____ _____    ______ ____
ROOT
ATOM      1  N   UNL     1       2.946   7.178  18.140  0.00  0.00    +0.000 NA
ATOM      2  C   UNL     1       2.772   5.917  17.936  0.00  0.00    +0.000 C 
ATOM      3  N   UNL     1       3.696   5.056  17.412  0.00  0.00    +0.000 N 
ATOM      4  H   UNL     1       3.423   4.084  17.514  0.00  0.00    +0.000 HD
ENDROOT
BRANCH   3   5
ATOM      5  C   UNL     1       5.128   5.280  17.273  0.00  0.00    +0.000 C 
ATOM      6  C   UNL     1       5.469   6.566  16.491  0.00  0.00    +0.000 C 
ATOM      7  N   UNL     1       6.934   6.762  16.442  0.00  0.00    +0.000 NA
ATOM      8  C   UNL     1       7.476   6.895  17.793  0.00  0.00    +0.000 C 
ATOM      9  N   UNL     1       7.220   5.686  18.578  0.00  0.00    +0.000 NA
ATOM     10  C   UNL     1       7.856   4.553  17.906  0.00  0.00    +0.000 C 
ATOM     11  N   UNL     1       7.324   4.383  16.557  0.00  0.00    +0.000 NA
ATOM     12  C   UNL     1       7.565   5.610  15.796  0.00  0.00    +0.000 C 
ATOM     13  C   UNL     1       5.873   4.104  16.607  0.00  0.00    +0.000 C 
ATOM     14  C   UNL     1       5.768   5.454  18.679  0.00  0.00    +0.000 C 
ENDBRANCH   3   5
BRANCH   1  20
ATOM     15  C   UNL     1       0.380   9.049  22.042  0.00  0.00    +0.000 C 
ATOM     16  C   UNL     1       0.683   8.960  20.569  0.00  0.00    +0.000 A 
ATOM     17  C   UNL     1       0.083   9.895  19.720  0.00  0.00    +0.000 A 
ATOM     18  C   UNL     1       0.487   9.997  18.401  0.00  0.00    +0.000 A 
ATOM     19  C   UNL     1       1.477   9.142  17.914  0.00  0.00    +0.000 A 
ATOM     20  C   UNL     1       1.989   8.079  18.674  0.00  0.00    +0.000 A 
ATOM     21  C   UNL     1       1.612   8.018  20.041  0.00  0.00    +0.000 A 
ATOM     22  C   UNL     1       2.236   7.010  20.982  0.00  0.00    +0.000 C 
ENDBRANCH   1  20
BRANCH   2  23
ATOM     23  S   UNL     1       1.306   4.996  18.276  0.00  0.00    +0.000 S 
ATOM     24  H   UNL     1       0.509   5.775  17.531  0.00  0.00    +0.000 HD
ENDBRANCH   2  23
TORSDOF 3
ENDMDL
