MODEL 1
REMARK VINA RESULT:      -7.5      0.000      0.000
REMARK  Name = 
REMARK  3 active torsions:
REMARK  status: ('A' for Active; 'I' for Inactive)
REMARK    1  A    between atoms: C_1  and  C_2
REMARK    2  A    between atoms: C_3  and  C_4
REMARK    3  A    between atoms: C_12  and  C_13
REMARK                            x       y       z     vdW  Elec       q    Type
REMARK                         _______ _______ _______ _____ _____    ______ ____
ROOT
ATOM      1  C   UNL     1       4.525   1.294  19.493  0.00  0.00    +0.000 C 
ATOM      2  C   UNL     1       3.559   2.320  18.940  0.00  0.00    +0.000 C 
ATOM      3  C   UNL     1       3.770   3.584  18.479  0.00  0.00    +0.000 C 
ATOM      4  C   UNL     1       2.575   4.406  18.021  0.00  0.00    +0.000 C 
ATOM      5  N   UNL     1       1.301   3.754  18.244  0.00  0.00    +0.000 N 
ATOM      6  C   UNL     1       1.147   2.455  18.552  0.00  0.00    +0.000 C 
ATOM      7  O   UNL     1       0.054   1.911  18.533  0.00  0.00    +0.000 OA
ATOM      8  N   UNL     1       2.275   1.803  18.916  0.00  0.00    +0.000 N 
ATOM      9  H   UNL     1       0.461   4.208  17.913  0.00  0.00    +0.000 HD
ATOM     10  H   UNL     1       2.113   0.845  19.206  0.00  0.00    +0.000 HD
ENDROOT
BRANCH   3  11
ATOM     11  C   UNL     1       5.193   4.144  18.421  0.00  0.00    +0.000 C 
ATOM     12  O   UNL     1       5.752   4.388  19.495  0.00  0.00    +0.000 OA
ATOM     13  N   UNL     1       5.897   4.437  17.260  0.00  0.00    +0.000 N 
ATOM     14  C   UNL     1       7.276   4.953  17.432  0.00  0.00    +0.000 C 
ATOM     15  C   UNL     1       7.645   5.985  16.359  0.00  0.00    +0.000 C 
ATOM     16  O   UNL     1       7.430   5.469  15.038  0.00  0.00    +0.000 OA
ATOM     17  C   UNL     1       6.059   5.081  14.879  0.00  0.00    +0.000 C 
ATOM     18  C   UNL     1       5.694   3.978  15.883  0.00  0.00    +0.000 C 
ENDBRANCH   3  11
BRANCH   4  19
ATOM     19  C   UNL     1       2.382   5.792  18.604  0.00  0.00    +0.000 A 
ATOM     20  C   UNL     1       2.501   7.032  18.001  0.00  0.00    +0.000 A 
ATOM     21  C   UNL     1       2.172   8.103  18.885  0.00  0.00    +0.000 A 
ATOM     22  C   UNL     1       1.860   7.657  20.148  0.00  0.00    +0.000 A 
ATOM     23  S   UNL     1       2.045   5.967  20.291  0.00  0.00    +0.000 S 
ENDBRANCH   4  19
TORSDOF 2
ENDMDL
MODEL 2
REMARK VINA RESULT:      -7.0      1.839      2.155
REMARK  Name = 
REMARK  3 active torsions:
REMARK  status: ('A' for Active; 'I' for Inactive)
REMARK    1  A    between atoms: C_1  and  C_2
REMARK    2  A    between atoms: C_3  and  C_4
REMARK    3  A    between atoms: C_12  and  C_13
REMARK                            x       y       z     vdW  Elec       q    Type
REMARK                         _______ _______ _______ _____ _____    ______ ____
ROOT
ATOM      1  C   UNL     1       4.774   1.707  19.745  0.00  0.00    +0.000 C 
ATOM      2  C   UNL     1       3.578   2.629  19.847  0.00  0.00    +0.000 C 
ATOM      3  C   UNL     1       3.100   3.567  18.983  0.00  0.00    +0.000 C 
ATOM      4  C   UNL     1       1.883   4.384  19.389  0.00  0.00    +0.000 C 
ATOM      5  N   UNL     1       1.435   4.128  20.742  0.00  0.00    +0.000 N 
ATOM      6  C   UNL     1       1.833   3.092  21.499  0.00  0.00    +0.000 C 
ATOM      7  O   UNL     1       1.280   2.809  22.550  0.00  0.00    +0.000 OA
ATOM      8  N   UNL     1       2.904   2.407  21.036  0.00  0.00    +0.000 N 
ATOM      9  H   UNL     1       0.596   4.587  21.068  0.00  0.00    +0.000 HD
ATOM     10  H   UNL     1       3.219   1.676  21.664  0.00  0.00    +0.000 HD
ENDROOT
BRANCH   3  11
ATOM     11  C   UNL     1       3.782   3.769  17.629  0.00  0.00    +0.000 C 
ATOM     12  O   UNL     1       3.198   3.340  16.628  0.00  0.00    +0.000 OA
ATOM     13  N   UNL     1       5.022   4.363  17.431  0.00  0.00    +0.000 N 
ATOM     14  C   UNL     1       5.488   4.477  16.029  0.00  0.00    +0.000 C 
ATOM     15  C   UNL     1       7.008   4.308  15.909  0.00  0.00    +0.000 C 
ATOM     16  O   UNL     1       7.707   5.209  16.778  0.00  0.00    +0.000 OA
ATOM     17  C   UNL     1       7.306   4.992  18.136  0.00  0.00    +0.000 C 
ATOM     18  C   UNL     1       5.801   5.249  18.299  0.00  0.00    +0.000 C 
ENDBRANCH   3  11
BRANCH   4  19
ATOM     19  C   UNL     1       1.967   5.896  19.312  0.00  0.00    +0.000 A 
ATOM     20  C   UNL     1       2.359   6.710  18.265  0.00  0.00    +0.000 A 
ATOM     21  C   UNL     1       2.236   8.098  18.577  0.00  0.00    +0.000 A 
ATOM     22  C   UNL     1       1.801   8.305  19.865  0.00  0.00    +0.000 A 
ATOM     23  S   UNL     1       1.626   6.839  20.721  0.00  0.00    +0.000 S 
ENDBRANCH   4  19
TORSDOF 2
ENDMDL
MODEL 3
REMARK VINA RESULT:      -7.0      2.675      4.442
REMARK  Name = 
REMARK  3 active torsions:
REMARK  status: ('A' for Active; 'I' for Inactive)
REMARK    1  A    between atoms: C_1  and  C_2
REMARK    2  A    between atoms: C_3  and  C_4
REMARK    3  A    between atoms: C_12  and  C_13
REMARK                            x       y       z     vdW  Elec       q    Type
REMARK                         _______ _______ _______ _____ _____    ______ ____
ROOT
ATOM      1  C   UNL     1       2.363   8.628  17.367  0.00  0.00    +0.000 C 
ATOM      2  C   UNL     1       2.406   7.730  18.586  0.00  0.00    +0.000 C 
ATOM      3  C   UNL     1       2.932   6.486  18.758  0.00  0.00    +0.000 C 
ATOM      4  C   UNL     1       2.780   5.807  20.110  0.00  0.00    +0.000 C 
ATOM      5  N   UNL     1       1.967   6.553  21.047  0.00  0.00    +0.000 N 
ATOM      6  C   UNL     1       1.601   7.837  20.894  0.00  0.00    +0.000 C 
ATOM      7  O   UNL     1       1.089   8.476  21.800  0.00  0.00    +0.000 OA
ATOM      8  N   UNL     1       1.808   8.361  19.663  0.00  0.00    +0.000 N 
ATOM      9  H   UNL     1       1.865   6.198  21.988  0.00  0.00    +0.000 HD
ATOM     10  H   UNL     1       1.460   9.307  19.563  0.00  0.00    +0.000 HD
ENDROOT
BRANCH   3  11
ATOM     11  C   UNL     1       3.670   5.808  17.602  0.00  0.00    +0.000 C 
ATOM     12  O   UNL     1       3.098   4.870  17.035  0.00  0.00    +0.000 OA
ATOM     13  N   UNL     1       4.945   6.132  17.158  0.00  0.00    +0.000 N 
ATOM     14  C   UNL     1       5.465   5.358  16.005  0.00  0.00    +0.000 C 
ATOM     15  C   UNL     1       6.976   5.119  16.103  0.00  0.00    +0.000 C 
ATOM     16  O   UNL     1       7.692   6.348  16.286  0.00  0.00    +0.000 OA
ATOM     17  C   UNL     1       7.234   7.012  17.470  0.00  0.00    +0.000 C 
ATOM     18  C   UNL     1       5.740   7.347  17.354  0.00  0.00    +0.000 C 
ENDBRANCH   3  11
BRANCH   4  19
ATOM     19  C   UNL     1       2.198   4.407  20.156  0.00  0.00    +0.000 A 
ATOM     20  C   UNL     1       0.880   3.998  20.251  0.00  0.00    +0.000 A 
ATOM     21  C   UNL     1       0.745   2.578  20.201  0.00  0.00    +0.000 A 
ATOM     22  C   UNL     1       1.961   1.942  20.119  0.00  0.00    +0.000 A 
ATOM     23  S   UNL     1       3.261   3.045  20.190  0.00  0.00    +0.000 S 
ENDBRANCH   4  19
TORSDOF 2
ENDMDL
MODEL 4
REMARK VINA RESULT:      -6.8      1.980      2.405
REMARK  Name = 
REMARK  3 active torsions:
REMARK  status: ('A' for Active; 'I' for Inactive)
REMARK    1  A    between atoms: C_1  and  C_2
REMARK    2  A    between atoms: C_3  and  C_4
REMARK    3  A    between atoms: C_12  and  C_13
REMARK                            x       y       z     vdW  Elec       q    Type
REMARK                         _______ _______ _______ _____ _____    ______ ____
ROOT
ATOM      1  C   UNL     1       4.900   1.712  20.167  0.00  0.00    +0.000 C 
ATOM      2  C   UNL     1       3.652   2.570  20.172  0.00  0.00    +0.000 C 
ATOM      3  C   UNL     1       3.219   3.517  19.295  0.00  0.00    +0.000 C 
ATOM      4  C   UNL     1       1.924   4.256  19.595  0.00  0.00    +0.000 C 
ATOM      5  N   UNL     1       1.349   3.923  20.882  0.00  0.00    +0.000 N 
ATOM      6  C   UNL     1       1.720   2.878  21.640  0.00  0.00    +0.000 C 
ATOM      7  O   UNL     1       1.074   2.525  22.615  0.00  0.00    +0.000 OA
ATOM      8  N   UNL     1       2.869   2.266  21.273  0.00  0.00    +0.000 N 
ATOM      9  H   UNL     1       0.457   4.327  21.132  0.00  0.00    +0.000 HD
ATOM     10  H   UNL     1       3.154   1.527  21.904  0.00  0.00    +0.000 HD
ENDROOT
BRANCH   3  11
ATOM     11  C   UNL     1       4.029   3.808  18.030  0.00  0.00    +0.000 C 
ATOM     12  O   UNL     1       3.615   3.331  16.968  0.00  0.00    +0.000 OA
ATOM     13  N   UNL     1       5.213   4.532  17.979  0.00  0.00    +0.000 N 
ATOM     14  C   UNL     1       5.825   4.712  16.641  0.00  0.00    +0.000 C 
ATOM     15  C   UNL     1       7.357   4.707  16.701  0.00  0.00    +0.000 C 
ATOM     16  O   UNL     1       7.850   5.666  17.646  0.00  0.00    +0.000 OA
ATOM     17  C   UNL     1       7.319   5.391  18.948  0.00  0.00    +0.000 C 
ATOM     18  C   UNL     1       5.786   5.485  18.933  0.00  0.00    +0.000 C 
ENDBRANCH   3  11
BRANCH   4  19
ATOM     19  C   UNL     1       1.934   5.772  19.581  0.00  0.00    +0.000 A 
ATOM     20  C   UNL     1       1.672   6.670  20.601  0.00  0.00    +0.000 A 
ATOM     21  C   UNL     1       1.852   8.026  20.194  0.00  0.00    +0.000 A 
ATOM     22  C   UNL     1       2.197   8.129  18.867  0.00  0.00    +0.000 A 
ATOM     23  S   UNL     1       2.219   6.607  18.095  0.00  0.00    +0.000 S 
ENDBRANCH   4  19
TORSDOF 2
ENDMDL
MODEL 5
REMARK VINA RESULT:      -6.6      1.775      5.203
REMARK  Name = 
REMARK  3 active torsions:
REMARK  status: ('A' for Active; 'I' for Inactive)
REMARK    1  A    between atoms: C_1  and  C_2
REMARK    2  A    between atoms: C_3  and  C_4
REMARK    3  A    between atoms: C_12  and  C_13
REMARK                            x       y       z     vdW  Elec       q    Type
REMARK                         _______ _______ _______ _____ _____    ______ ____
ROOT
ATOM      1  C   UNL     1       5.416   3.284  15.354  0.00  0.00    +0.000 C 
ATOM      2  C   UNL     1       5.371   4.414  16.360  0.00  0.00    +0.000 C 
ATOM      3  C   UNL     1       4.446   4.723  17.311  0.00  0.00    +0.000 C 
ATOM      4  C   UNL     1       4.655   5.969  18.158  0.00  0.00    +0.000 C 
ATOM      5  N   UNL     1       5.800   6.760  17.756  0.00  0.00    +0.000 N 
ATOM      6  C   UNL     1       6.767   6.342  16.923  0.00  0.00    +0.000 C 
ATOM      7  O   UNL     1       7.806   6.966  16.774  0.00  0.00    +0.000 OA
ATOM      8  N   UNL     1       6.500   5.206  16.239  0.00  0.00    +0.000 N 
ATOM      9  H   UNL     1       6.042   7.573  18.306  0.00  0.00    +0.000 HD
ATOM     10  H   UNL     1       7.220   4.956  15.571  0.00  0.00    +0.000 HD
ENDROOT
BRANCH   3  11
ATOM     11  C   UNL     1       3.234   3.813  17.516  0.00  0.00    +0.000 C 
ATOM     12  O   UNL     1       2.544   3.554  16.524  0.00  0.00    +0.000 OA
ATOM     13  N   UNL     1       2.820   3.282  18.730  0.00  0.00    +0.000 N 
ATOM     14  C   UNL     1       1.626   2.404  18.700  0.00  0.00    +0.000 C 
ATOM     15  C   UNL     1       0.765   2.554  19.960  0.00  0.00    +0.000 C 
ATOM     16  O   UNL     1       1.538   2.359  21.152  0.00  0.00    +0.000 OA
ATOM     17  C   UNL     1       2.620   3.299  21.195  0.00  0.00    +0.000 C 
ATOM     18  C   UNL     1       3.550   3.102  19.988  0.00  0.00    +0.000 C 
ENDBRANCH   3  11
BRANCH   4  19
ATOM     19  C   UNL     1       3.528   6.979  18.252  0.00  0.00    +0.000 A 
ATOM     20  C   UNL     1       3.206   8.028  17.410  0.00  0.00    +0.000 A 
ATOM     21  C   UNL     1       2.021   8.711  17.819  0.00  0.00    +0.000 A 
ATOM     22  C   UNL     1       1.502   8.200  18.985  0.00  0.00    +0.000 A 
ATOM     23  S   UNL     1       2.482   6.960  19.629  0.00  0.00    +0.000 S 
ENDBRANCH   4  19
TORSDOF 2
ENDMDL
MODEL 6
REMARK VINA RESULT:      -6.3      2.705      5.446
REMARK  Name = 
REMARK  3 active torsions:
REMARK  status: ('A' for Active; 'I' for Inactive)
REMARK    1  A    between atoms: C_1  and  C_2
REMARK    2  A    between atoms: C_3  and  C_4
REMARK    3  A    between atoms: C_12  and  C_13
REMARK                            x       y       z     vdW  Elec       q    Type
REMARK                         _______ _______ _______ _____ _____    ______ ____
ROOT
ATOM      1  C   UNL     1       1.140   3.796  19.316  0.00  0.00    +0.000 C 
ATOM      2  C   UNL     1       2.643   3.973  19.378  0.00  0.00    +0.000 C 
ATOM      3  C   UNL     1       3.428   5.035  19.051  0.00  0.00    +0.000 C 
ATOM      4  C   UNL     1       4.938   4.897  19.179  0.00  0.00    +0.000 C 
ATOM      5  N   UNL     1       5.371   3.564  19.543  0.00  0.00    +0.000 N 
ATOM      6  C   UNL     1       4.564   2.595  20.006  0.00  0.00    +0.000 C 
ATOM      7  O   UNL     1       5.004   1.561  20.485  0.00  0.00    +0.000 OA
ATOM      8  N   UNL     1       3.237   2.826  19.876  0.00  0.00    +0.000 N 
ATOM      9  H   UNL     1       6.355   3.404  19.706  0.00  0.00    +0.000 HD
ATOM     10  H   UNL     1       2.660   2.048  20.172  0.00  0.00    +0.000 HD
ENDROOT
BRANCH   3  11
ATOM     11  C   UNL     1       2.784   6.339  18.577  0.00  0.00    +0.000 C 
ATOM     12  O   UNL     1       2.930   6.646  17.389  0.00  0.00    +0.000 OA
ATOM     13  N   UNL     1       2.079   7.228  19.378  0.00  0.00    +0.000 N 
ATOM     14  C   UNL     1       1.518   8.425  18.708  0.00  0.00    +0.000 C 
ATOM     15  C   UNL     1       1.543   9.661  19.616  0.00  0.00    +0.000 C 
ATOM     16  O   UNL     1       0.901   9.404  20.872  0.00  0.00    +0.000 OA
ATOM     17  C   UNL     1       1.543   8.308  21.536  0.00  0.00    +0.000 C 
ATOM     18  C   UNL     1       1.445   7.034  20.685  0.00  0.00    +0.000 C 
ENDBRANCH   3  11
BRANCH   4  19
ATOM     19  C   UNL     1       5.802   5.248  17.984  0.00  0.00    +0.000 A 
ATOM     20  C   UNL     1       6.684   6.299  17.806  0.00  0.00    +0.000 A 
ATOM     21  C   UNL     1       7.358   6.239  16.549  0.00  0.00    +0.000 A 
ATOM     22  C   UNL     1       6.937   5.177  15.784  0.00  0.00    +0.000 A 
ATOM     23  S   UNL     1       5.677   4.308  16.539  0.00  0.00    +0.000 S 
ENDBRANCH   4  19
TORSDOF 2
ENDMDL
MODEL 7
REMARK VINA RESULT:      -6.2      2.716      5.401
REMARK  Name = 
REMARK  3 active torsions:
REMARK  status: ('A' for Active; 'I' for Inactive)
REMARK    1  A    between atoms: C_1  and  C_2
REMARK    2  A    between atoms: C_3  and  C_4
REMARK    3  A    between atoms: C_12  and  C_13
REMARK                            x       y       z     vdW  Elec       q    Type
REMARK                         _______ _______ _______ _____ _____    ______ ____
ROOT
ATOM      1  C   UNL     1       1.122   3.861  20.077  0.00  0.00    +0.000 C 
ATOM      2  C   UNL     1       2.619   3.879  19.847  0.00  0.00    +0.000 C 
ATOM      3  C   UNL     1       3.404   4.758  19.166  0.00  0.00    +0.000 C 
ATOM      4  C   UNL     1       4.897   4.483  19.069  0.00  0.00    +0.000 C 
ATOM      5  N   UNL     1       5.293   3.214  19.644  0.00  0.00    +0.000 N 
ATOM      6  C   UNL     1       4.519   2.457  20.439  0.00  0.00    +0.000 C 
ATOM      7  O   UNL     1       4.965   1.502  21.056  0.00  0.00    +0.000 OA
ATOM      8  N   UNL     1       3.211   2.801  20.483  0.00  0.00    +0.000 N 
ATOM      9  H   UNL     1       6.276   2.983  19.673  0.00  0.00    +0.000 HD
ATOM     10  H   UNL     1       2.645   2.170  21.037  0.00  0.00    +0.000 HD
ENDROOT
BRANCH   3  11
ATOM     11  C   UNL     1       2.778   5.999  18.527  0.00  0.00    +0.000 C 
ATOM     12  O   UNL     1       2.889   6.125  17.303  0.00  0.00    +0.000 OA
ATOM     13  N   UNL     1       2.127   7.017  19.211  0.00  0.00    +0.000 N 
ATOM     14  C   UNL     1       1.575   8.121  18.392  0.00  0.00    +0.000 C 
ATOM     15  C   UNL     1       1.667   9.475  19.107  0.00  0.00    +0.000 C 
ATOM     16  O   UNL     1       1.065   9.424  20.408  0.00  0.00    +0.000 OA
ATOM     17  C   UNL     1       1.700   8.416  21.204  0.00  0.00    +0.000 C 
ATOM     18  C   UNL     1       1.537   7.035  20.552  0.00  0.00    +0.000 C 
ENDBRANCH   3  11
BRANCH   4  19
ATOM     19  C   UNL     1       5.547   4.482  17.699  0.00  0.00    +0.000 A 
ATOM     20  C   UNL     1       5.132   3.886  16.522  0.00  0.00    +0.000 A 
ATOM     21  C   UNL     1       6.001   4.177  15.427  0.00  0.00    +0.000 A 
ATOM     22  C   UNL     1       7.078   4.942  15.807  0.00  0.00    +0.000 A 
ATOM     23  S   UNL     1       7.088   5.236  17.489  0.00  0.00    +0.000 S 
ENDBRANCH   4  19
TORSDOF 2
ENDMDL
MODEL 8
REMARK VINA RESULT:      -6.0      2.526      4.401
REMARK  Name = 
REMARK  3 active torsions:
REMARK  status: ('A' for Active; 'I' for Inactive)
REMARK    1  A    between atoms: C_1  and  C_2
REMARK    2  A    between atoms: C_3  and  C_4
REMARK    3  A    between atoms: C_12  and  C_13
REMARK                            x       y       z     vdW  Elec       q    Type
REMARK                         _______ _______ _______ _____ _____    ______ ____
ROOT
ATOM      1  C   UNL     1       2.520   8.985  17.595  0.00  0.00    +0.000 C 
ATOM      2  C   UNL     1       2.584   7.847  18.592  0.00  0.00    +0.000 C 
ATOM      3  C   UNL     1       3.257   6.664  18.551  0.00  0.00    +0.000 C 
ATOM      4  C   UNL     1       3.086   5.685  19.703  0.00  0.00    +0.000 C 
ATOM      5  N   UNL     1       2.105   6.104  20.682  0.00  0.00    +0.000 N 
ATOM      6  C   UNL     1       1.584   7.340  20.766  0.00  0.00    +0.000 C 
ATOM      7  O   UNL     1       0.918   7.696  21.725  0.00  0.00    +0.000 OA
ATOM      8  N   UNL     1       1.819   8.147  19.706  0.00  0.00    +0.000 N 
ATOM      9  H   UNL     1       1.975   5.537  21.509  0.00  0.00    +0.000 HD
ATOM     10  H   UNL     1       1.356   9.046  19.772  0.00  0.00    +0.000 HD
ENDROOT
BRANCH   3  11
ATOM     11  C   UNL     1       4.172   6.351  17.366  0.00  0.00    +0.000 C 
ATOM     12  O   UNL     1       3.709   6.513  16.232  0.00  0.00    +0.000 OA
ATOM     13  N   UNL     1       5.469   5.864  17.456  0.00  0.00    +0.000 N 
ATOM     14  C   UNL     1       6.188   5.649  16.177  0.00  0.00    +0.000 C 
ATOM     15  C   UNL     1       7.121   4.433  16.236  0.00  0.00    +0.000 C 
ATOM     16  O   UNL     1       8.023   4.516  17.347  0.00  0.00    +0.000 OA
ATOM     17  C   UNL     1       7.286   4.614  18.572  0.00  0.00    +0.000 C 
ATOM     18  C   UNL     1       6.416   5.879  18.574  0.00  0.00    +0.000 C 
ENDBRANCH   3  11
BRANCH   4  19
ATOM     19  C   UNL     1       2.696   4.254  19.385  0.00  0.00    +0.000 A 
ATOM     20  C   UNL     1       1.454   3.716  19.099  0.00  0.00    +0.000 A 
ATOM     21  C   UNL     1       1.520   2.324  18.792  0.00  0.00    +0.000 A 
ATOM     22  C   UNL     1       2.798   1.828  18.900  0.00  0.00    +0.000 A 
ATOM     23  S   UNL     1       3.896   3.011  19.451  0.00  0.00    +0.000 S 
ENDBRANCH   4  19
TORSDOF 2
ENDMDL
MODEL 9
REMARK VINA RESULT:      -6.0      2.754      4.666
REMARK  Name = 
REMARK  3 active torsions:
REMARK  status: ('A' for Active; 'I' for Inactive)
REMARK    1  A    between atoms: C_1  and  C_2
REMARK    2  A    between atoms: C_3  and  C_4
REMARK    3  A    between atoms: C_12  and  C_13
REMARK                            x       y       z     vdW  Elec       q    Type
REMARK                         _______ _______ _______ _____ _____    ______ ____
ROOT
ATOM      1  C   UNL     1       1.976   9.797  17.886  0.00  0.00    +0.000 C 
ATOM      2  C   UNL     1       2.049   8.629  18.846  0.00  0.00    +0.000 C 
ATOM      3  C   UNL     1       2.709   7.441  18.754  0.00  0.00    +0.000 C 
ATOM      4  C   UNL     1       2.554   6.428  19.879  0.00  0.00    +0.000 C 
ATOM      5  N   UNL     1       1.600   6.827  20.893  0.00  0.00    +0.000 N 
ATOM      6  C   UNL     1       1.093   8.064  21.026  0.00  0.00    +0.000 C 
ATOM      7  O   UNL     1       0.452   8.398  22.010  0.00  0.00    +0.000 OA
ATOM      8  N   UNL     1       1.313   8.901  19.986  0.00  0.00    +0.000 N 
ATOM      9  H   UNL     1       1.482   6.237  21.704  0.00  0.00    +0.000 HD
ATOM     10  H   UNL     1       0.861   9.802  20.089  0.00  0.00    +0.000 HD
ENDROOT
BRANCH   3  11
ATOM     11  C   UNL     1       3.595   7.155  17.540  0.00  0.00    +0.000 C 
ATOM     12  O   UNL     1       3.275   7.680  16.468  0.00  0.00    +0.000 OA
ATOM     13  N   UNL     1       4.708   6.326  17.531  0.00  0.00    +0.000 N 
ATOM     14  C   UNL     1       5.438   6.206  16.246  0.00  0.00    +0.000 C 
ATOM     15  C   UNL     1       6.011   4.800  16.035  0.00  0.00    +0.000 C 
ATOM     16  O   UNL     1       6.820   4.390  17.147  0.00  0.00    +0.000 OA
ATOM     17  C   UNL     1       6.046   4.417  18.353  0.00  0.00    +0.000 C 
ATOM     18  C   UNL     1       5.541   5.839  18.634  0.00  0.00    +0.000 C 
ENDBRANCH   3  11
BRANCH   4  19
ATOM     19  C   UNL     1       2.142   5.012  19.527  0.00  0.00    +0.000 A 
ATOM     20  C   UNL     1       1.707   4.488  18.323  0.00  0.00    +0.000 A 
ATOM     21  C   UNL     1       1.478   3.081  18.391  0.00  0.00    +0.000 A 
ATOM     22  C   UNL     1       1.694   2.579  19.653  0.00  0.00    +0.000 A 
ATOM     23  S   UNL     1       2.089   3.809  20.768  0.00  0.00    +0.000 S 
ENDBRANCH   4  19
TORSDOF 2
ENDMDL
