MODEL 1
REMARK VINA RESULT:      -8.4      0.000      0.000
REMARK  Name = 
REMARK  2 active torsions:
REMARK  status: ('A' for Active; 'I' for Inactive)
REMARK    1  A    between atoms: C_2  and  C_3
REMARK    2  A    between atoms: C_14  and  C_15
REMARK                            x       y       z     vdW  Elec       q    Type
REMARK                         _______ _______ _______ _____ _____    ______ ____
ROOT
ATOM      1  O   UNL     1       3.839   2.497  18.903  0.00  0.00    +0.000 OA
ATOM      2  C   UNL     1       4.097   3.693  18.790  0.00  0.00    +0.000 C 
ATOM      3  N   UNL     1       3.456   4.668  19.546  0.00  0.00    +0.000 N 
ATOM      4  C   UNL     1       2.507   4.308  20.586  0.00  0.00    +0.000 C 
ATOM      5  C   UNL     1       1.589   5.515  20.710  0.00  0.00    +0.000 C 
ATOM      6  C   UNL     1       2.502   6.699  20.369  0.00  0.00    +0.000 C 
ATOM      7  C   UNL     1       3.508   6.115  19.370  0.00  0.00    +0.000 C 
ENDROOT
BRANCH   6   8
ATOM      8  C   UNL     1       1.792   7.917  19.827  0.00  0.00    +0.000 A 
ATOM      9  C   UNL     1       1.949   8.280  18.471  0.00  0.00    +0.000 A 
ATOM     10  C   UNL     1       1.291   9.396  17.945  0.00  0.00    +0.000 A 
ATOM     11  C   UNL     1       0.475  10.124  18.784  0.00  0.00    +0.000 A 
ATOM     12  C   UNL     1       0.300   9.774  20.109  0.00  0.00    +0.000 A 
ATOM     13  C   UNL     1       0.949   8.686  20.650  0.00  0.00    +0.000 A 
ATOM     14  C   UNL     1      -0.563  10.774  20.772  0.00  0.00    +0.000 C 
ATOM     15  C   UNL     1      -1.100  11.490  19.532  0.00  0.00    +0.000 C 
ATOM     16  O   UNL     1      -0.214  11.249  18.413  0.00  0.00    +0.000 OA
ENDBRANCH   6   8
BRANCH   2  17
ATOM     17  C   UNL     1       5.119   4.099  17.801  0.00  0.00    +0.000 A 
ATOM     18  C   UNL     1       6.335   4.641  18.217  0.00  0.00    +0.000 A 
ATOM     19  F   UNL     1       6.609   4.828  19.515  0.00  0.00    +0.000 F 
ATOM     20  C   UNL     1       7.316   4.998  17.285  0.00  0.00    +0.000 A 
ATOM     21  C   UNL     1       7.098   4.789  15.924  0.00  0.00    +0.000 A 
ATOM     22  C   UNL     1       5.871   4.290  15.498  0.00  0.00    +0.000 A 
ATOM     23  C   UNL     1       4.878   4.000  16.432  0.00  0.00    +0.000 A 
ATOM     24  F   UNL     1       3.671   3.650  15.965  0.00  0.00    +0.000 F 
ENDBRANCH   2  17
TORSDOF 2
ENDMDL
MODEL 2
REMARK VINA RESULT:      -8.0      0.307      1.713
REMARK  Name = 
REMARK  2 active torsions:
REMARK  status: ('A' for Active; 'I' for Inactive)
REMARK    1  A    between atoms: C_2  and  C_3
REMARK    2  A    between atoms: C_14  and  C_15
REMARK                            x       y       z     vdW  Elec       q    Type
REMARK                         _______ _______ _______ _____ _____    ______ ____
ROOT
ATOM      1  O   UNL     1       3.928   2.531  18.446  0.00  0.00    +0.000 OA
ATOM      2  C   UNL     1       4.185   3.732  18.442  0.00  0.00    +0.000 C 
ATOM      3  N   UNL     1       3.530   4.637  19.270  0.00  0.00    +0.000 N 
ATOM      4  C   UNL     1       2.565   4.186  20.259  0.00  0.00    +0.000 C 
ATOM      5  C   UNL     1       1.642   5.377  20.473  0.00  0.00    +0.000 C 
ATOM      6  C   UNL     1       2.557   6.587  20.251  0.00  0.00    +0.000 C 
ATOM      7  C   UNL     1       3.581   6.094  19.221  0.00  0.00    +0.000 C 
ENDROOT
BRANCH   6   8
ATOM      8  C   UNL     1       1.852   7.847  19.806  0.00  0.00    +0.000 A 
ATOM      9  C   UNL     1       1.943   8.269  18.461  0.00  0.00    +0.000 A 
ATOM     10  C   UNL     1       1.289   9.425  18.024  0.00  0.00    +0.000 A 
ATOM     11  C   UNL     1       0.542  10.133  18.941  0.00  0.00    +0.000 A 
ATOM     12  C   UNL     1       0.431   9.726  20.257  0.00  0.00    +0.000 A 
ATOM     13  C   UNL     1       1.079   8.598  20.710  0.00  0.00    +0.000 A 
ATOM     14  C   UNL     1      -0.364  10.716  21.012  0.00  0.00    +0.000 C 
ATOM     15  C   UNL     1      -0.950  11.503  19.839  0.00  0.00    +0.000 C 
ATOM     16  O   UNL     1      -0.135  11.292  18.661  0.00  0.00    +0.000 OA
ENDBRANCH   6   8
BRANCH   2  17
ATOM     17  C   UNL     1       5.221   4.224  17.508  0.00  0.00    +0.000 A 
ATOM     18  C   UNL     1       5.042   4.119  16.128  0.00  0.00    +0.000 A 
ATOM     19  F   UNL     1       3.942   3.558  15.607  0.00  0.00    +0.000 F 
ATOM     20  C   UNL     1       6.005   4.611  15.241  0.00  0.00    +0.000 A 
ATOM     21  C   UNL     1       7.150   5.239  15.730  0.00  0.00    +0.000 A 
ATOM     22  C   UNL     1       7.358   5.308  17.104  0.00  0.00    +0.000 A 
ATOM     23  C   UNL     1       6.420   4.756  17.975  0.00  0.00    +0.000 A 
ATOM     24  F   UNL     1       6.729   4.728  19.280  0.00  0.00    +0.000 F 
ENDBRANCH   2  17
TORSDOF 2
ENDMDL
MODEL 3
REMARK VINA RESULT:      -7.8      4.194      6.342
REMARK  Name = 
REMARK  2 active torsions:
REMARK  status: ('A' for Active; 'I' for Inactive)
REMARK    1  A    between atoms: C_2  and  C_3
REMARK    2  A    between atoms: C_14  and  C_15
REMARK                            x       y       z     vdW  Elec       q    Type
REMARK                         _______ _______ _______ _____ _____    ______ ____
ROOT
ATOM      1  O   UNL     1       3.775   1.752  17.225  0.00  0.00    +0.000 OA
ATOM      2  C   UNL     1       3.765   2.890  17.688  0.00  0.00    +0.000 C 
ATOM      3  N   UNL     1       4.485   3.933  17.116  0.00  0.00    +0.000 N 
ATOM      4  C   UNL     1       5.217   3.747  15.875  0.00  0.00    +0.000 C 
ATOM      5  C   UNL     1       6.326   4.788  15.918  0.00  0.00    +0.000 C 
ATOM      6  C   UNL     1       5.703   5.948  16.703  0.00  0.00    +0.000 C 
ATOM      7  C   UNL     1       4.730   5.260  17.670  0.00  0.00    +0.000 C 
ENDROOT
BRANCH   6   8
ATOM      8  C   UNL     1       6.691   6.840  17.418  0.00  0.00    +0.000 A 
ATOM      9  C   UNL     1       7.534   6.301  18.416  0.00  0.00    +0.000 A 
ATOM     10  C   UNL     1       8.464   7.105  19.082  0.00  0.00    +0.000 A 
ATOM     11  C   UNL     1       8.544   8.434  18.726  0.00  0.00    +0.000 A 
ATOM     12  C   UNL     1       7.737   8.974  17.743  0.00  0.00    +0.000 A 
ATOM     13  C   UNL     1       6.805   8.202  17.085  0.00  0.00    +0.000 A 
ATOM     14  C   UNL     1       7.995  10.425  17.636  0.00  0.00    +0.000 C 
ATOM     15  C   UNL     1       9.292  10.501  18.442  0.00  0.00    +0.000 C 
ATOM     16  O   UNL     1       9.392   9.343  19.305  0.00  0.00    +0.000 OA
ENDBRANCH   6   8
BRANCH   2  17
ATOM     17  C   UNL     1       2.964   3.144  18.905  0.00  0.00    +0.000 A 
ATOM     18  C   UNL     1       1.759   3.842  18.830  0.00  0.00    +0.000 A 
ATOM     19  F   UNL     1       1.298   4.318  17.665  0.00  0.00    +0.000 F 
ATOM     20  C   UNL     1       0.984   4.058  19.975  0.00  0.00    +0.000 A 
ATOM     21  C   UNL     1       1.398   3.552  21.206  0.00  0.00    +0.000 A 
ATOM     22  C   UNL     1       2.620   2.893  21.297  0.00  0.00    +0.000 A 
ATOM     23  C   UNL     1       3.413   2.742  20.161  0.00  0.00    +0.000 A 
ATOM     24  F   UNL     1       4.637   2.221  20.326  0.00  0.00    +0.000 F 
ENDBRANCH   2  17
TORSDOF 2
ENDMDL
MODEL 4
REMARK VINA RESULT:      -7.7      0.844      1.474
REMARK  Name = 
REMARK  2 active torsions:
REMARK  status: ('A' for Active; 'I' for Inactive)
REMARK    1  A    between atoms: C_2  and  C_3
REMARK    2  A    between atoms: C_14  and  C_15
REMARK                            x       y       z     vdW  Elec       q    Type
REMARK                         _______ _______ _______ _____ _____    ______ ____
ROOT
ATOM      1  O   UNL     1       3.757   2.314  18.220  0.00  0.00    +0.000 OA
ATOM      2  C   UNL     1       4.021   3.493  18.446  0.00  0.00    +0.000 C 
ATOM      3  N   UNL     1       3.338   4.239  19.400  0.00  0.00    +0.000 N 
ATOM      4  C   UNL     1       2.332   3.627  20.252  0.00  0.00    +0.000 C 
ATOM      5  C   UNL     1       1.407   4.770  20.646  0.00  0.00    +0.000 C 
ATOM      6  C   UNL     1       2.337   5.989  20.685  0.00  0.00    +0.000 C 
ATOM      7  C   UNL     1       3.399   5.679  19.622  0.00  0.00    +0.000 C 
ENDROOT
BRANCH   6   8
ATOM      8  C   UNL     1       1.658   7.318  20.452  0.00  0.00    +0.000 A 
ATOM      9  C   UNL     1       0.716   7.803  21.386  0.00  0.00    +0.000 A 
ATOM     10  C   UNL     1       0.084   9.035  21.196  0.00  0.00    +0.000 A 
ATOM     11  C   UNL     1       0.417   9.769  20.077  0.00  0.00    +0.000 A 
ATOM     12  C   UNL     1       1.346   9.315  19.161  0.00  0.00    +0.000 A 
ATOM     13  C   UNL     1       1.969   8.098  19.323  0.00  0.00    +0.000 A 
ATOM     14  C   UNL     1       1.438  10.272  18.038  0.00  0.00    +0.000 C 
ATOM     15  C   UNL     1       0.698  11.454  18.666  0.00  0.00    +0.000 C 
ATOM     16  O   UNL     1      -0.135  10.981  19.752  0.00  0.00    +0.000 OA
ENDBRANCH   6   8
BRANCH   2  17
ATOM     17  C   UNL     1       5.096   4.134  17.659  0.00  0.00    +0.000 A 
ATOM     18  C   UNL     1       6.227   4.651  18.290  0.00  0.00    +0.000 A 
ATOM     19  F   UNL     1       6.368   4.601  19.621  0.00  0.00    +0.000 F 
ATOM     20  C   UNL     1       7.260   5.231  17.546  0.00  0.00    +0.000 A 
ATOM     21  C   UNL     1       7.182   5.276  16.155  0.00  0.00    +0.000 A 
ATOM     22  C   UNL     1       6.037   4.802  15.521  0.00  0.00    +0.000 A 
ATOM     23  C   UNL     1       4.987   4.287  16.278  0.00  0.00    +0.000 A 
ATOM     24  F   UNL     1       3.856   3.968  15.633  0.00  0.00    +0.000 F 
ENDBRANCH   2  17
TORSDOF 2
ENDMDL
MODEL 5
REMARK VINA RESULT:      -7.7      0.912      2.251
REMARK  Name = 
REMARK  2 active torsions:
REMARK  status: ('A' for Active; 'I' for Inactive)
REMARK    1  A    between atoms: C_2  and  C_3
REMARK    2  A    between atoms: C_14  and  C_15
REMARK                            x       y       z     vdW  Elec       q    Type
REMARK                         _______ _______ _______ _____ _____    ______ ____
ROOT
ATOM      1  O   UNL     1       3.795   2.478  17.973  0.00  0.00    +0.000 OA
ATOM      2  C   UNL     1       4.048   3.634  18.302  0.00  0.00    +0.000 C 
ATOM      3  N   UNL     1       3.316   4.310  19.273  0.00  0.00    +0.000 N 
ATOM      4  C   UNL     1       2.266   3.640  20.021  0.00  0.00    +0.000 C 
ATOM      5  C   UNL     1       1.324   4.755  20.452  0.00  0.00    +0.000 C 
ATOM      6  C   UNL     1       2.253   5.962  20.633  0.00  0.00    +0.000 C 
ATOM      7  C   UNL     1       3.368   5.729  19.607  0.00  0.00    +0.000 C 
ENDROOT
BRANCH   6   8
ATOM      8  C   UNL     1       1.589   7.309  20.466  0.00  0.00    +0.000 A 
ATOM      9  C   UNL     1       0.686   7.778  21.446  0.00  0.00    +0.000 A 
ATOM     10  C   UNL     1       0.070   9.026  21.318  0.00  0.00    +0.000 A 
ATOM     11  C   UNL     1       0.380   9.792  20.215  0.00  0.00    +0.000 A 
ATOM     12  C   UNL     1       1.272   9.355  19.254  0.00  0.00    +0.000 A 
ATOM     13  C   UNL     1       1.878   8.122  19.355  0.00  0.00    +0.000 A 
ATOM     14  C   UNL     1       1.344  10.347  18.162  0.00  0.00    +0.000 C 
ATOM     15  C   UNL     1       0.646  11.519  18.853  0.00  0.00    +0.000 C 
ATOM     16  O   UNL     1      -0.161  11.023  19.948  0.00  0.00    +0.000 OA
ENDBRANCH   6   8
BRANCH   2  17
ATOM     17  C   UNL     1       5.165   4.327  17.624  0.00  0.00    +0.000 A 
ATOM     18  C   UNL     1       5.179   4.464  16.236  0.00  0.00    +0.000 A 
ATOM     19  F   UNL     1       4.198   3.960  15.475  0.00  0.00    +0.000 F 
ATOM     20  C   UNL     1       6.218   5.146  15.594  0.00  0.00    +0.000 A 
ATOM     21  C   UNL     1       7.244   5.722  16.341  0.00  0.00    +0.000 A 
ATOM     22  C   UNL     1       7.261   5.553  17.722  0.00  0.00    +0.000 A 
ATOM     23  C   UNL     1       6.254   4.816  18.343  0.00  0.00    +0.000 A 
ATOM     24  F   UNL     1       6.386   4.568  19.654  0.00  0.00    +0.000 F 
ENDBRANCH   2  17
TORSDOF 2
ENDMDL
MODEL 6
REMARK VINA RESULT:      -7.5      2.298      3.714
REMARK  Name = 
REMARK  2 active torsions:
REMARK  status: ('A' for Active; 'I' for Inactive)
REMARK    1  A    between atoms: C_2  and  C_3
REMARK    2  A    between atoms: C_14  and  C_15
REMARK                            x       y       z     vdW  Elec       q    Type
REMARK                         _______ _______ _______ _____ _____    ______ ____
ROOT
ATOM      1  O   UNL     1       4.711   4.866  18.005  0.00  0.00    +0.000 OA
ATOM      2  C   UNL     1       3.545   5.170  18.245  0.00  0.00    +0.000 C 
ATOM      3  N   UNL     1       3.042   6.444  18.001  0.00  0.00    +0.000 N 
ATOM      4  C   UNL     1       3.856   7.461  17.357  0.00  0.00    +0.000 C 
ATOM      5  C   UNL     1       3.277   8.784  17.836  0.00  0.00    +0.000 C 
ATOM      6  C   UNL     1       1.786   8.478  18.027  0.00  0.00    +0.000 C 
ATOM      7  C   UNL     1       1.761   6.997  18.427  0.00  0.00    +0.000 C 
ENDROOT
BRANCH   6   8
ATOM      8  C   UNL     1       1.077   9.357  19.030  0.00  0.00    +0.000 A 
ATOM      9  C   UNL     1       0.484  10.569  18.612  0.00  0.00    +0.000 A 
ATOM     10  C   UNL     1      -0.187  11.392  19.521  0.00  0.00    +0.000 A 
ATOM     11  C   UNL     1      -0.265  10.980  20.834  0.00  0.00    +0.000 A 
ATOM     12  C   UNL     1       0.297   9.791  21.257  0.00  0.00    +0.000 A 
ATOM     13  C   UNL     1       0.974   8.973  20.380  0.00  0.00    +0.000 A 
ATOM     14  C   UNL     1       0.121   9.655  22.718  0.00  0.00    +0.000 C 
ATOM     15  C   UNL     1      -0.918  10.756  22.939  0.00  0.00    +0.000 C 
ATOM     16  O   UNL     1      -0.872  11.692  21.836  0.00  0.00    +0.000 OA
ENDBRANCH   6   8
BRANCH   2  17
ATOM     17  C   UNL     1       2.657   4.140  18.825  0.00  0.00    +0.000 A 
ATOM     18  C   UNL     1       2.398   4.115  20.195  0.00  0.00    +0.000 A 
ATOM     19  F   UNL     1       2.955   5.005  21.028  0.00  0.00    +0.000 F 
ATOM     20  C   UNL     1       1.534   3.161  20.744  0.00  0.00    +0.000 A 
ATOM     21  C   UNL     1       0.898   2.235  19.918  0.00  0.00    +0.000 A 
ATOM     22  C   UNL     1       1.185   2.226  18.556  0.00  0.00    +0.000 A 
ATOM     23  C   UNL     1       2.097   3.140  18.033  0.00  0.00    +0.000 A 
ATOM     24  F   UNL     1       2.440   3.004  16.744  0.00  0.00    +0.000 F 
ENDBRANCH   2  17
TORSDOF 2
ENDMDL
MODEL 7
REMARK VINA RESULT:      -7.5      3.293      7.496
REMARK  Name = 
REMARK  2 active torsions:
REMARK  status: ('A' for Active; 'I' for Inactive)
REMARK    1  A    between atoms: C_2  and  C_3
REMARK    2  A    between atoms: C_14  and  C_15
REMARK                            x       y       z     vdW  Elec       q    Type
REMARK                         _______ _______ _______ _____ _____    ______ ____
ROOT
ATOM      1  O   UNL     1       1.776   6.957  19.169  0.00  0.00    +0.000 OA
ATOM      2  C   UNL     1       2.476   6.005  18.834  0.00  0.00    +0.000 C 
ATOM      3  N   UNL     1       3.658   6.164  18.120  0.00  0.00    +0.000 N 
ATOM      4  C   UNL     1       4.178   7.486  17.814  0.00  0.00    +0.000 C 
ATOM      5  C   UNL     1       5.020   7.294  16.561  0.00  0.00    +0.000 C 
ATOM      6  C   UNL     1       5.564   5.868  16.708  0.00  0.00    +0.000 C 
ATOM      7  C   UNL     1       4.465   5.129  17.482  0.00  0.00    +0.000 C 
ENDROOT
BRANCH   6   8
ATOM      8  C   UNL     1       5.914   5.181  15.408  0.00  0.00    +0.000 A 
ATOM      9  C   UNL     1       7.259   5.122  14.981  0.00  0.00    +0.000 A 
ATOM     10  C   UNL     1       7.607   4.482  13.788  0.00  0.00    +0.000 A 
ATOM     11  C   UNL     1       6.601   3.899  13.048  0.00  0.00    +0.000 A 
ATOM     12  C   UNL     1       5.281   3.936  13.458  0.00  0.00    +0.000 A 
ATOM     13  C   UNL     1       4.917   4.573  14.623  0.00  0.00    +0.000 A 
ATOM     14  C   UNL     1       4.429   3.300  12.432  0.00  0.00    +0.000 C 
ATOM     15  C   UNL     1       5.516   2.612  11.606  0.00  0.00    +0.000 C 
ATOM     16  O   UNL     1       6.790   3.256  11.851  0.00  0.00    +0.000 OA
ENDBRANCH   6   8
BRANCH   2  17
ATOM     17  C   UNL     1       2.027   4.643  19.197  0.00  0.00    +0.000 A 
ATOM     18  C   UNL     1       1.412   3.822  18.252  0.00  0.00    +0.000 A 
ATOM     19  F   UNL     1       1.193   4.242  16.998  0.00  0.00    +0.000 F 
ATOM     20  C   UNL     1       1.014   2.522  18.583  0.00  0.00    +0.000 A 
ATOM     21  C   UNL     1       1.252   2.022  19.862  0.00  0.00    +0.000 A 
ATOM     22  C   UNL     1       1.824   2.849  20.823  0.00  0.00    +0.000 A 
ATOM     23  C   UNL     1       2.157   4.163  20.498  0.00  0.00    +0.000 A 
ATOM     24  F   UNL     1       2.580   4.959  21.491  0.00  0.00    +0.000 F 
ENDBRANCH   2  17
TORSDOF 2
ENDMDL
MODEL 8
REMARK VINA RESULT:      -7.4      2.427      4.117
REMARK  Name = 
REMARK  2 active torsions:
REMARK  status: ('A' for Active; 'I' for Inactive)
REMARK    1  A    between atoms: C_2  and  C_3
REMARK    2  A    between atoms: C_14  and  C_15
REMARK                            x       y       z     vdW  Elec       q    Type
REMARK                         _______ _______ _______ _____ _____    ______ ____
ROOT
ATOM      1  O   UNL     1       4.582   5.203  18.088  0.00  0.00    +0.000 OA
ATOM      2  C   UNL     1       3.404   5.459  18.324  0.00  0.00    +0.000 C 
ATOM      3  N   UNL     1       2.850   6.711  18.076  0.00  0.00    +0.000 N 
ATOM      4  C   UNL     1       3.622   7.758  17.430  0.00  0.00    +0.000 C 
ATOM      5  C   UNL     1       2.988   9.058  17.904  0.00  0.00    +0.000 C 
ATOM      6  C   UNL     1       1.511   8.691  18.093  0.00  0.00    +0.000 C 
ATOM      7  C   UNL     1       1.546   7.211  18.497  0.00  0.00    +0.000 C 
ENDROOT
BRANCH   6   8
ATOM      8  C   UNL     1       0.764   9.543  19.093  0.00  0.00    +0.000 A 
ATOM      9  C   UNL     1       0.054  10.683  18.657  0.00  0.00    +0.000 A 
ATOM     10  C   UNL     1      -0.653  11.479  19.562  0.00  0.00    +0.000 A 
ATOM     11  C   UNL     1      -0.649  11.111  20.890  0.00  0.00    +0.000 A 
ATOM     12  C   UNL     1       0.028   9.990  21.332  0.00  0.00    +0.000 A 
ATOM     13  C   UNL     1       0.743   9.201  20.458  0.00  0.00    +0.000 A 
ATOM     14  C   UNL     1      -0.084   9.894  22.802  0.00  0.00    +0.000 C 
ATOM     15  C   UNL     1      -1.206  10.910  23.026  0.00  0.00    +0.000 C 
ATOM     16  O   UNL     1      -1.280  11.805  21.890  0.00  0.00    +0.000 OA
ENDBRANCH   6   8
BRANCH   2  17
ATOM     17  C   UNL     1       2.558   4.395  18.905  0.00  0.00    +0.000 A 
ATOM     18  C   UNL     1       2.044   3.377  18.102  0.00  0.00    +0.000 A 
ATOM     19  F   UNL     1       2.283   3.339  16.784  0.00  0.00    +0.000 F 
ATOM     20  C   UNL     1       1.269   2.351  18.653  0.00  0.00    +0.000 A 
ATOM     21  C   UNL     1       1.021   2.321  20.024  0.00  0.00    +0.000 A 
ATOM     22  C   UNL     1       1.493   3.356  20.826  0.00  0.00    +0.000 A 
ATOM     23  C   UNL     1       2.208   4.406  20.253  0.00  0.00    +0.000 A 
ATOM     24  F   UNL     1       2.524   5.443  21.042  0.00  0.00    +0.000 F 
ENDBRANCH   2  17
TORSDOF 2
ENDMDL
MODEL 9
REMARK VINA RESULT:      -7.4      2.146      3.925
REMARK  Name = 
REMARK  2 active torsions:
REMARK  status: ('A' for Active; 'I' for Inactive)
REMARK    1  A    between atoms: C_2  and  C_3
REMARK    2  A    between atoms: C_14  and  C_15
REMARK                            x       y       z     vdW  Elec       q    Type
REMARK                         _______ _______ _______ _____ _____    ______ ____
ROOT
ATOM      1  O   UNL     1       4.942   4.256  18.088  0.00  0.00    +0.000 OA
ATOM      2  C   UNL     1       3.815   4.709  18.267  0.00  0.00    +0.000 C 
ATOM      3  N   UNL     1       3.460   5.998  17.883  0.00  0.00    +0.000 N 
ATOM      4  C   UNL     1       4.391   6.847  17.159  0.00  0.00    +0.000 C 
ATOM      5  C   UNL     1       3.956   8.269  17.486  0.00  0.00    +0.000 C 
ATOM      6  C   UNL     1       2.439   8.149  17.671  0.00  0.00    +0.000 C 
ATOM      7  C   UNL     1       2.243   6.729  18.219  0.00  0.00    +0.000 C 
ENDROOT
BRANCH   6   8
ATOM      8  C   UNL     1       1.819   9.200  18.562  0.00  0.00    +0.000 A 
ATOM      9  C   UNL     1       1.779  10.548  18.141  0.00  0.00    +0.000 A 
ATOM     10  C   UNL     1       1.200  11.535  18.944  0.00  0.00    +0.000 A 
ATOM     11  C   UNL     1       0.657  11.153  20.152  0.00  0.00    +0.000 A 
ATOM     12  C   UNL     1       0.676   9.836  20.572  0.00  0.00    +0.000 A 
ATOM     13  C   UNL     1       1.253   8.852  19.802  0.00  0.00    +0.000 A 
ATOM     14  C   UNL     1       0.094   9.745  21.928  0.00  0.00    +0.000 C 
ATOM     15  C   UNL     1      -0.552  11.128  22.008  0.00  0.00    +0.000 C 
ATOM     16  O   UNL     1       0.077  12.012  21.048  0.00  0.00    +0.000 OA
ENDBRANCH   6   8
BRANCH   2  17
ATOM     17  C   UNL     1       2.809   3.849  18.927  0.00  0.00    +0.000 A 
ATOM     18  C   UNL     1       2.124   2.872  18.204  0.00  0.00    +0.000 A 
ATOM     19  F   UNL     1       2.339   2.695  16.893  0.00  0.00    +0.000 F 
ATOM     20  C   UNL     1       1.195   2.035  18.831  0.00  0.00    +0.000 A 
ATOM     21  C   UNL     1       0.962   2.152  20.201  0.00  0.00    +0.000 A 
ATOM     22  C   UNL     1       1.608   3.152  20.921  0.00  0.00    +0.000 A 
ATOM     23  C   UNL     1       2.482   4.021  20.270  0.00  0.00    +0.000 A 
ATOM     24  F   UNL     1       2.975   5.048  20.977  0.00  0.00    +0.000 F 
ENDBRANCH   2  17
TORSDOF 2
ENDMDL
