MODEL 1
REMARK VINA RESULT:      -8.8      0.000      0.000
REMARK  Name = 
REMARK  6 active torsions:
REMARK  status: ('A' for Active; 'I' for Inactive)
REMARK    1  A    between atoms: N_1  and  S_2
REMARK    2  A    between atoms: S_2  and  C_5
REMARK    3  A    between atoms: C_8  and  N_9
REMARK    4  A    between atoms: C_10  and  S_11
REMARK    5  A    between atoms: S_11  and  C_12
REMARK    6  A    between atoms: C_12  and  C_13
REMARK                            x       y       z     vdW  Elec       q    Type
REMARK                         _______ _______ _______ _____ _____    ______ ____
ROOT
ATOM      1  N   UNL     1       2.724   6.202  19.145  0.00  0.00    +0.000 N 
ATOM      2  C   UNL     1       3.612   5.871  18.147  0.00  0.00    +0.000 A 
ATOM      3  N   UNL     1       3.413   4.877  17.334  0.00  0.00    +0.000 NA
ATOM      4  C   UNL     1       3.049   3.714  18.041  0.00  0.00    +0.000 A 
ATOM      5  C   UNL     1       3.447   2.487  17.512  0.00  0.00    +0.000 A 
ATOM      6  C   UNL     1       3.750   1.441  18.381  0.00  0.00    +0.000 A 
ATOM      7  C   UNL     1       3.616   1.620  19.762  0.00  0.00    +0.000 A 
ATOM      8  C   UNL     1       3.039   2.785  20.276  0.00  0.00    +0.000 A 
ATOM      9  C   UNL     1       2.712   3.810  19.400  0.00  0.00    +0.000 A 
ATOM     10  C   UNL     1       2.202   5.132  19.859  0.00  0.00    +0.000 A 
ATOM     11  O   UNL     1       1.371   5.155  20.759  0.00  0.00    +0.000 OA
ENDROOT
BRANCH   1  15
ATOM     12  C   UNL     1       0.856  10.018  19.112  0.00  0.00    +0.000 A 
ATOM     13  C   UNL     1       1.023   9.354  20.328  0.00  0.00    +0.000 A 
ATOM     14  C   UNL     1       1.677   8.111  20.361  0.00  0.00    +0.000 A 
ATOM     15  C   UNL     1       2.186   7.533  19.188  0.00  0.00    +0.000 A 
ATOM     16  C   UNL     1       2.087   8.274  17.994  0.00  0.00    +0.000 A 
ATOM     17  C   UNL     1       1.412   9.494  17.946  0.00  0.00    +0.000 A 
BRANCH  12  18
ATOM     18  S   UNL     1      -0.189  11.441  18.963  0.00  0.00    +0.000 S 
ATOM     19  O   UNL     1      -0.489  11.952  20.287  0.00  0.00    +0.000 OA
ATOM     20  O   UNL     1      -1.224  11.158  17.995  0.00  0.00    +0.000 OA
BRANCH  18  21
ATOM     21  N   UNL     1       0.819  12.572  18.251  0.00  0.00    +0.000 NA
ATOM     22  H   UNL     1       0.381  12.923  17.398  0.00  0.00    +0.000 HD
ATOM     23  H   UNL     1       1.742  12.167  18.098  0.00  0.00    +0.000 HD
ENDBRANCH  18  21
ENDBRANCH  12  18
ENDBRANCH   1  15
BRANCH   2  24
ATOM     24  S   UNL     1       5.281   6.180  18.688  0.00  0.00    +0.000 S 
BRANCH  24  25
ATOM     25  C   UNL     1       6.110   4.755  17.972  0.00  0.00    +0.000 C 
BRANCH  25  26
ATOM     26  C   UNL     1       6.767   5.150  16.660  0.00  0.00    +0.000 C 
ATOM     27  O   UNL     1       7.482   6.139  16.555  0.00  0.00    +0.000 OA
ATOM     28  N   UNL     1       6.433   4.296  15.634  0.00  0.00    +0.000 N 
ATOM     29  C   UNL     1       6.915   4.536  14.378  0.00  0.00    +0.000 A 
ATOM     30  N   UNL     1       7.814   5.404  13.994  0.00  0.00    +0.000 NA
ATOM     31  C   UNL     1       7.909   5.384  12.622  0.00  0.00    +0.000 A 
ATOM     32  C   UNL     1       7.080   4.490  11.988  0.00  0.00    +0.000 A 
ATOM     33  S   UNL     1       6.182   3.605  13.154  0.00  0.00    +0.000 S 
ATOM     34  H   UNL     1       5.759   3.562  15.740  0.00  0.00    +0.000 HD
ENDBRANCH  25  26
ENDBRANCH  24  25
ENDBRANCH   2  24
TORSDOF 6
ENDMDL
MODEL 2
REMARK VINA RESULT:      -8.6      0.575      1.040
REMARK  Name = 
REMARK  6 active torsions:
REMARK  status: ('A' for Active; 'I' for Inactive)
REMARK    1  A    between atoms: N_1  and  S_2
REMARK    2  A    between atoms: S_2  and  C_5
REMARK    3  A    between atoms: C_8  and  N_9
REMARK    4  A    between atoms: C_10  and  S_11
REMARK    5  A    between atoms: S_11  and  C_12
REMARK    6  A    between atoms: C_12  and  C_13
REMARK                            x       y       z     vdW  Elec       q    Type
REMARK                         _______ _______ _______ _____ _____    ______ ____
ROOT
ATOM      1  N   UNL     1       2.705   6.183  19.036  0.00  0.00    +0.000 N 
ATOM      2  C   UNL     1       3.625   5.815  18.081  0.00  0.00    +0.000 A 
ATOM      3  N   UNL     1       3.474   4.765  17.331  0.00  0.00    +0.000 NA
ATOM      4  C   UNL     1       3.130   3.639  18.106  0.00  0.00    +0.000 A 
ATOM      5  C   UNL     1       3.578   2.394  17.668  0.00  0.00    +0.000 A 
ATOM      6  C   UNL     1       3.893   1.417  18.610  0.00  0.00    +0.000 A 
ATOM      7  C   UNL     1       3.724   1.682  19.973  0.00  0.00    +0.000 A 
ATOM      8  C   UNL     1       3.100   2.858  20.398  0.00  0.00    +0.000 A 
ATOM      9  C   UNL     1       2.761   3.813  19.449  0.00  0.00    +0.000 A 
ATOM     10  C   UNL     1       2.200   5.145  19.809  0.00  0.00    +0.000 A 
ATOM     11  O   UNL     1       1.349   5.201  20.689  0.00  0.00    +0.000 OA
ENDROOT
BRANCH   1  15
ATOM     12  C   UNL     1       1.267  10.181  19.039  0.00  0.00    +0.000 A 
ATOM     13  C   UNL     1       1.664   9.603  17.833  0.00  0.00    +0.000 A 
ATOM     14  C   UNL     1       2.101   8.267  17.808  0.00  0.00    +0.000 A 
ATOM     15  C   UNL     1       2.126   7.496  18.980  0.00  0.00    +0.000 A 
ATOM     16  C   UNL     1       1.628   8.079  20.161  0.00  0.00    +0.000 A 
ATOM     17  C   UNL     1       1.221   9.412  20.201  0.00  0.00    +0.000 A 
BRANCH  12  18
ATOM     18  S   UNL     1       0.970  11.921  19.185  0.00  0.00    +0.000 S 
ATOM     19  O   UNL     1       1.466  12.382  20.467  0.00  0.00    +0.000 OA
ATOM     20  O   UNL     1      -0.373  12.204  18.733  0.00  0.00    +0.000 OA
BRANCH  18  21
ATOM     21  N   UNL     1       1.996  12.573  18.033  0.00  0.00    +0.000 NA
ATOM     22  H   UNL     1       2.574  11.830  17.640  0.00  0.00    +0.000 HD
ATOM     23  H   UNL     1       2.535  13.337  18.441  0.00  0.00    +0.000 HD
ENDBRANCH  18  21
ENDBRANCH  12  18
ENDBRANCH   1  15
BRANCH   2  24
ATOM     24  S   UNL     1       5.271   6.213  18.633  0.00  0.00    +0.000 S 
BRANCH  24  25
ATOM     25  C   UNL     1       6.172   4.809  17.963  0.00  0.00    +0.000 C 
BRANCH  25  26
ATOM     26  C   UNL     1       6.821   5.198  16.646  0.00  0.00    +0.000 C 
ATOM     27  O   UNL     1       7.538   6.186  16.534  0.00  0.00    +0.000 OA
ATOM     28  N   UNL     1       6.479   4.342  15.625  0.00  0.00    +0.000 N 
ATOM     29  C   UNL     1       6.954   4.577  14.365  0.00  0.00    +0.000 A 
ATOM     30  N   UNL     1       7.854   5.442  13.973  0.00  0.00    +0.000 NA
ATOM     31  C   UNL     1       7.940   5.418  12.600  0.00  0.00    +0.000 A 
ATOM     32  C   UNL     1       7.105   4.523  11.974  0.00  0.00    +0.000 A 
ATOM     33  S   UNL     1       6.212   3.644  13.149  0.00  0.00    +0.000 S 
ATOM     34  H   UNL     1       5.805   3.610  15.737  0.00  0.00    +0.000 HD
ENDBRANCH  25  26
ENDBRANCH  24  25
ENDBRANCH   2  24
TORSDOF 6
ENDMDL
MODEL 3
REMARK VINA RESULT:      -8.4      1.363      1.718
REMARK  Name = 
REMARK  6 active torsions:
REMARK  status: ('A' for Active; 'I' for Inactive)
REMARK    1  A    between atoms: N_1  and  S_2
REMARK    2  A    between atoms: S_2  and  C_5
REMARK    3  A    between atoms: C_8  and  N_9
REMARK    4  A    between atoms: C_10  and  S_11
REMARK    5  A    between atoms: S_11  and  C_12
REMARK    6  A    between atoms: C_12  and  C_13
REMARK                            x       y       z     vdW  Elec       q    Type
REMARK                         _______ _______ _______ _____ _____    ______ ____
ROOT
ATOM      1  N   UNL     1       2.088   6.914  19.310  0.00  0.00    +0.000 N 
ATOM      2  C   UNL     1       2.635   6.137  18.314  0.00  0.00    +0.000 A 
ATOM      3  N   UNL     1       2.080   5.038  17.899  0.00  0.00    +0.000 NA
ATOM      4  C   UNL     1       1.715   4.217  18.985  0.00  0.00    +0.000 A 
ATOM      5  C   UNL     1       1.763   2.838  18.795  0.00  0.00    +0.000 A 
ATOM      6  C   UNL     1       2.094   2.016  19.870  0.00  0.00    +0.000 A 
ATOM      7  C   UNL     1       2.338   2.578  21.128  0.00  0.00    +0.000 A 
ATOM      8  C   UNL     1       2.106   3.937  21.358  0.00  0.00    +0.000 A 
ATOM      9  C   UNL     1       1.746   4.742  20.287  0.00  0.00    +0.000 A 
ATOM     10  C   UNL     1       1.590   6.219  20.403  0.00  0.00    +0.000 A 
ATOM     11  O   UNL     1       1.024   6.669  21.393  0.00  0.00    +0.000 OA
ENDROOT
BRANCH   1  15
ATOM     12  C   UNL     1       1.486  11.083  18.750  0.00  0.00    +0.000 A 
ATOM     13  C   UNL     1       2.079  10.339  17.730  0.00  0.00    +0.000 A 
ATOM     14  C   UNL     1       2.247   8.952  17.882  0.00  0.00    +0.000 A 
ATOM     15  C   UNL     1       1.805   8.296  19.041  0.00  0.00    +0.000 A 
ATOM     16  C   UNL     1       1.124   9.060  20.009  0.00  0.00    +0.000 A 
ATOM     17  C   UNL     1       0.981  10.441  19.881  0.00  0.00    +0.000 A 
BRANCH  12  18
ATOM     18  S   UNL     1       1.495  12.854  18.739  0.00  0.00    +0.000 S 
ATOM     19  O   UNL     1       2.165  13.334  19.932  0.00  0.00    +0.000 OA
ATOM     20  O   UNL     1       0.184  13.324  18.352  0.00  0.00    +0.000 OA
BRANCH  18  21
ATOM     21  N   UNL     1       2.515  13.215  17.462  0.00  0.00    +0.000 NA
ATOM     22  H   UNL     1       1.958  13.384  16.624  0.00  0.00    +0.000 HD
ATOM     23  H   UNL     1       3.206  12.472  17.349  0.00  0.00    +0.000 HD
ENDBRANCH  18  21
ENDBRANCH  12  18
ENDBRANCH   1  15
BRANCH   2  24
ATOM     24  S   UNL     1       4.413   6.186  18.408  0.00  0.00    +0.000 S 
BRANCH  24  25
ATOM     25  C   UNL     1       4.817   4.741  17.418  0.00  0.00    +0.000 C 
BRANCH  25  26
ATOM     26  C   UNL     1       5.791   5.129  16.318  0.00  0.00    +0.000 C 
ATOM     27  O   UNL     1       6.498   6.127  16.390  0.00  0.00    +0.000 OA
ATOM     28  N   UNL     1       5.747   4.258  15.254  0.00  0.00    +0.000 N 
ATOM     29  C   UNL     1       6.539   4.490  14.165  0.00  0.00    +0.000 A 
ATOM     30  N   UNL     1       7.499   5.366  14.017  0.00  0.00    +0.000 NA
ATOM     31  C   UNL     1       7.951   5.331  12.718  0.00  0.00    +0.000 A 
ATOM     32  C   UNL     1       7.327   4.417  11.903  0.00  0.00    +0.000 A 
ATOM     33  S   UNL     1       6.163   3.533  12.806  0.00  0.00    +0.000 S 
ATOM     34  H   UNL     1       5.077   3.516  15.191  0.00  0.00    +0.000 HD
ENDBRANCH  25  26
ENDBRANCH  24  25
ENDBRANCH   2  24
TORSDOF 6
ENDMDL
MODEL 4
REMARK VINA RESULT:      -8.1      3.808     10.355
REMARK  Name = 
REMARK  6 active torsions:
REMARK  status: ('A' for Active; 'I' for Inactive)
REMARK    1  A    between atoms: N_1  and  S_2
REMARK    2  A    between atoms: S_2  and  C_5
REMARK    3  A    between atoms: C_8  and  N_9
REMARK    4  A    between atoms: C_10  and  S_11
REMARK    5  A    between atoms: S_11  and  C_12
REMARK    6  A    between atoms: C_12  and  C_13
REMARK                            x       y       z     vdW  Elec       q    Type
REMARK                         _______ _______ _______ _____ _____    ______ ____
ROOT
ATOM      1  N   UNL     1       1.457   8.875  19.519  0.00  0.00    +0.000 N 
ATOM      2  C   UNL     1       0.455   9.035  20.449  0.00  0.00    +0.000 A 
ATOM      3  N   UNL     1      -0.742   9.426  20.129  0.00  0.00    +0.000 NA
ATOM      4  C   UNL     1      -0.693  10.562  19.295  0.00  0.00    +0.000 A 
ATOM      5  C   UNL     1      -1.730  11.487  19.404  0.00  0.00    +0.000 A 
ATOM      6  C   UNL     1      -1.460  12.837  19.195  0.00  0.00    +0.000 A 
ATOM      7  C   UNL     1      -0.168  13.243  18.845  0.00  0.00    +0.000 A 
ATOM      8  C   UNL     1       0.822  12.299  18.554  0.00  0.00    +0.000 A 
ATOM      9  C   UNL     1       0.533  10.954  18.735  0.00  0.00    +0.000 A 
ATOM     10  C   UNL     1       1.551   9.880  18.566  0.00  0.00    +0.000 A 
ATOM     11  O   UNL     1       2.323   9.954  17.616  0.00  0.00    +0.000 OA
ENDROOT
BRANCH   1  15
ATOM     12  C   UNL     1       3.096   4.976  19.121  0.00  0.00    +0.000 A 
ATOM     13  C   UNL     1       3.425   5.950  18.178  0.00  0.00    +0.000 A 
ATOM     14  C   UNL     1       2.925   7.256  18.319  0.00  0.00    +0.000 A 
ATOM     15  C   UNL     1       2.114   7.603  19.411  0.00  0.00    +0.000 A 
ATOM     16  C   UNL     1       1.881   6.622  20.394  0.00  0.00    +0.000 A 
ATOM     17  C   UNL     1       2.347   5.316  20.247  0.00  0.00    +0.000 A 
BRANCH  12  18
ATOM     18  S   UNL     1       3.462   3.262  18.858  0.00  0.00    +0.000 S 
ATOM     19  O   UNL     1       3.371   2.969  17.440  0.00  0.00    +0.000 OA
ATOM     20  O   UNL     1       2.764   2.479  19.851  0.00  0.00    +0.000 OA
BRANCH  18  21
ATOM     21  N   UNL     1       5.088   3.164  19.245  0.00  0.00    +0.000 NA
ATOM     22  H   UNL     1       5.531   4.066  19.067  0.00  0.00    +0.000 HD
ATOM     23  H   UNL     1       5.519   2.391  18.737  0.00  0.00    +0.000 HD
ENDBRANCH  18  21
ENDBRANCH  12  18
ENDBRANCH   1  15
BRANCH   2  24
ATOM     24  S   UNL     1       1.136   9.618  21.987  0.00  0.00    +0.000 S 
BRANCH  24  25
ATOM     25  C   UNL     1      -0.373   9.803  22.946  0.00  0.00    +0.000 C 
BRANCH  25  26
ATOM     26  C   UNL     1      -0.856  11.241  22.868  0.00  0.00    +0.000 C 
ATOM     27  O   UNL     1      -0.147  12.151  22.454  0.00  0.00    +0.000 OA
ATOM     28  N   UNL     1      -2.140  11.384  23.342  0.00  0.00    +0.000 N 
ATOM     29  C   UNL     1      -2.708  12.627  23.373  0.00  0.00    +0.000 A 
ATOM     30  N   UNL     1      -2.270  13.746  22.859  0.00  0.00    +0.000 NA
ATOM     31  C   UNL     1      -3.103  14.775  23.230  0.00  0.00    +0.000 A 
ATOM     32  C   UNL     1      -4.170  14.413  24.017  0.00  0.00    +0.000 A 
ATOM     33  S   UNL     1      -4.159  12.713  24.263  0.00  0.00    +0.000 S 
ATOM     34  H   UNL     1      -2.644  10.632  23.771  0.00  0.00    +0.000 HD
ENDBRANCH  25  26
ENDBRANCH  24  25
ENDBRANCH   2  24
TORSDOF 6
ENDMDL
MODEL 5
REMARK VINA RESULT:      -8.0      3.735     10.315
REMARK  Name = 
REMARK  6 active torsions:
REMARK  status: ('A' for Active; 'I' for Inactive)
REMARK    1  A    between atoms: N_1  and  S_2
REMARK    2  A    between atoms: S_2  and  C_5
REMARK    3  A    between atoms: C_8  and  N_9
REMARK    4  A    between atoms: C_10  and  S_11
REMARK    5  A    between atoms: S_11  and  C_12
REMARK    6  A    between atoms: C_12  and  C_13
REMARK                            x       y       z     vdW  Elec       q    Type
REMARK                         _______ _______ _______ _____ _____    ______ ____
ROOT
ATOM      1  N   UNL     1       1.459   8.921  19.432  0.00  0.00    +0.000 N 
ATOM      2  C   UNL     1       0.448   9.035  20.359  0.00  0.00    +0.000 A 
ATOM      3  N   UNL     1      -0.744   9.448  20.047  0.00  0.00    +0.000 NA
ATOM      4  C   UNL     1      -0.682  10.626  19.275  0.00  0.00    +0.000 A 
ATOM      5  C   UNL     1      -1.717  11.548  19.421  0.00  0.00    +0.000 A 
ATOM      6  C   UNL     1      -1.439  12.906  19.286  0.00  0.00    +0.000 A 
ATOM      7  C   UNL     1      -0.142  13.325  18.971  0.00  0.00    +0.000 A 
ATOM      8  C   UNL     1       0.847  12.393  18.641  0.00  0.00    +0.000 A 
ATOM      9  C   UNL     1       0.552  11.042  18.749  0.00  0.00    +0.000 A 
ATOM     10  C   UNL     1       1.567   9.974  18.534  0.00  0.00    +0.000 A 
ATOM     11  O   UNL     1       2.349  10.093  17.597  0.00  0.00    +0.000 OA
ENDROOT
BRANCH   1  15
ATOM     12  C   UNL     1       3.686   5.326  19.013  0.00  0.00    +0.000 A 
ATOM     13  C   UNL     1       2.793   5.452  20.078  0.00  0.00    +0.000 A 
ATOM     14  C   UNL     1       2.018   6.617  20.206  0.00  0.00    +0.000 A 
ATOM     15  C   UNL     1       2.113   7.653  19.264  0.00  0.00    +0.000 A 
ATOM     16  C   UNL     1       2.951   7.453  18.150  0.00  0.00    +0.000 A 
ATOM     17  C   UNL     1       3.747   6.314  18.031  0.00  0.00    +0.000 A 
BRANCH  12  18
ATOM     18  S   UNL     1       4.879   4.018  18.946  0.00  0.00    +0.000 S 
ATOM     19  O   UNL     1       4.316   2.830  19.557  0.00  0.00    +0.000 OA
ATOM     20  O   UNL     1       6.168   4.544  19.332  0.00  0.00    +0.000 OA
BRANCH  18  21
ATOM     21  N   UNL     1       4.981   3.689  17.308  0.00  0.00    +0.000 NA
ATOM     22  H   UNL     1       5.600   2.891  17.163  0.00  0.00    +0.000 HD
ATOM     23  H   UNL     1       5.272   4.527  16.803  0.00  0.00    +0.000 HD
ENDBRANCH  18  21
ENDBRANCH  12  18
ENDBRANCH   1  15
BRANCH   2  24
ATOM     24  S   UNL     1       1.115   9.535  21.933  0.00  0.00    +0.000 S 
BRANCH  24  25
ATOM     25  C   UNL     1      -0.407   9.733  22.867  0.00  0.00    +0.000 C 
BRANCH  25  26
ATOM     26  C   UNL     1      -0.839  11.189  22.841  0.00  0.00    +0.000 C 
ATOM     27  O   UNL     1      -0.093  12.088  22.472  0.00  0.00    +0.000 OA
ATOM     28  N   UNL     1      -2.123  11.359  23.305  0.00  0.00    +0.000 N 
ATOM     29  C   UNL     1      -2.648  12.618  23.379  0.00  0.00    +0.000 A 
ATOM     30  N   UNL     1      -2.164  13.741  22.915  0.00  0.00    +0.000 NA
ATOM     31  C   UNL     1      -2.965  14.784  23.317  0.00  0.00    +0.000 A 
ATOM     32  C   UNL     1      -4.054  14.429  24.077  0.00  0.00    +0.000 A 
ATOM     33  S   UNL     1      -4.106  12.722  24.255  0.00  0.00    +0.000 S 
ATOM     34  H   UNL     1      -2.659  10.609  23.698  0.00  0.00    +0.000 HD
ENDBRANCH  25  26
ENDBRANCH  24  25
ENDBRANCH   2  24
TORSDOF 6
ENDMDL
MODEL 6
REMARK VINA RESULT:      -8.0      3.846     10.061
REMARK  Name = 
REMARK  6 active torsions:
REMARK  status: ('A' for Active; 'I' for Inactive)
REMARK    1  A    between atoms: N_1  and  S_2
REMARK    2  A    between atoms: S_2  and  C_5
REMARK    3  A    between atoms: C_8  and  N_9
REMARK    4  A    between atoms: C_10  and  S_11
REMARK    5  A    between atoms: S_11  and  C_12
REMARK    6  A    between atoms: C_12  and  C_13
REMARK                            x       y       z     vdW  Elec       q    Type
REMARK                         _______ _______ _______ _____ _____    ______ ____
ROOT
ATOM      1  N   UNL     1       1.094   9.202  19.825  0.00  0.00    +0.000 N 
ATOM      2  C   UNL     1       0.677  10.316  19.133  0.00  0.00    +0.000 A 
ATOM      3  N   UNL     1       0.921  11.526  19.540  0.00  0.00    +0.000 NA
ATOM      4  C   UNL     1       0.595  11.673  20.904  0.00  0.00    +0.000 A 
ATOM      5  C   UNL     1       0.138  12.920  21.326  0.00  0.00    +0.000 A 
ATOM      6  C   UNL     1      -0.795  12.986  22.358  0.00  0.00    +0.000 A 
ATOM      7  C   UNL     1      -1.232  11.812  22.980  0.00  0.00    +0.000 A 
ATOM      8  C   UNL     1      -0.635  10.583  22.682  0.00  0.00    +0.000 A 
ATOM      9  C   UNL     1       0.317  10.532  21.673  0.00  0.00    +0.000 A 
ATOM     10  C   UNL     1       0.926   9.257  21.202  0.00  0.00    +0.000 A 
ATOM     11  O   UNL     1       1.250   8.422  22.039  0.00  0.00    +0.000 OA
ENDROOT
BRANCH   1  15
ATOM     12  C   UNL     1       3.780   6.522  17.914  0.00  0.00    +0.000 A 
ATOM     13  C   UNL     1       3.165   6.133  19.104  0.00  0.00    +0.000 A 
ATOM     14  C   UNL     1       2.241   6.990  19.726  0.00  0.00    +0.000 A 
ATOM     15  C   UNL     1       1.911   8.229  19.155  0.00  0.00    +0.000 A 
ATOM     16  C   UNL     1       2.476   8.549  17.905  0.00  0.00    +0.000 A 
ATOM     17  C   UNL     1       3.417   7.718  17.296  0.00  0.00    +0.000 A 
BRANCH  12  18
ATOM     18  S   UNL     1       5.143   5.619  17.231  0.00  0.00    +0.000 S 
ATOM     19  O   UNL     1       4.641   4.437  16.557  0.00  0.00    +0.000 OA
ATOM     20  O   UNL     1       6.198   5.554  18.215  0.00  0.00    +0.000 OA
BRANCH  18  21
ATOM     21  N   UNL     1       5.697   6.637  16.022  0.00  0.00    +0.000 NA
ATOM     22  H   UNL     1       5.978   7.527  16.434  0.00  0.00    +0.000 HD
ATOM     23  H   UNL     1       4.987   6.730  15.295  0.00  0.00    +0.000 HD
ENDBRANCH  18  21
ENDBRANCH  12  18
ENDBRANCH   1  15
BRANCH   2  24
ATOM     24  S   UNL     1      -0.897  10.002  18.361  0.00  0.00    +0.000 S 
BRANCH  24  25
ATOM     25  C   UNL     1      -1.495  11.687  18.174  0.00  0.00    +0.000 C 
BRANCH  25  26
ATOM     26  C   UNL     1      -2.969  11.670  17.809  0.00  0.00    +0.000 C 
ATOM     27  O   UNL     1      -3.370  11.289  16.715  0.00  0.00    +0.000 OA
ATOM     28  N   UNL     1      -3.761  12.156  18.823  0.00  0.00    +0.000 N 
ATOM     29  C   UNL     1      -5.112  12.242  18.636  0.00  0.00    +0.000 A 
ATOM     30  N   UNL     1      -5.839  11.770  17.657  0.00  0.00    +0.000 NA
ATOM     31  C   UNL     1      -7.140  12.188  17.813  0.00  0.00    +0.000 A 
ATOM     32  C   UNL     1      -7.379  12.966  18.921  0.00  0.00    +0.000 A 
ATOM     33  S   UNL     1      -5.931  13.143  19.828  0.00  0.00    +0.000 S 
ATOM     34  H   UNL     1      -3.382  12.558  19.659  0.00  0.00    +0.000 HD
ENDBRANCH  25  26
ENDBRANCH  24  25
ENDBRANCH   2  24
TORSDOF 6
ENDMDL
MODEL 7
REMARK VINA RESULT:      -7.9      3.724     10.211
REMARK  Name = 
REMARK  6 active torsions:
REMARK  status: ('A' for Active; 'I' for Inactive)
REMARK    1  A    between atoms: N_1  and  S_2
REMARK    2  A    between atoms: S_2  and  C_5
REMARK    3  A    between atoms: C_8  and  N_9
REMARK    4  A    between atoms: C_10  and  S_11
REMARK    5  A    between atoms: S_11  and  C_12
REMARK    6  A    between atoms: C_12  and  C_13
REMARK                            x       y       z     vdW  Elec       q    Type
REMARK                         _______ _______ _______ _____ _____    ______ ____
ROOT
ATOM      1  N   UNL     1       1.040   9.247  19.845  0.00  0.00    +0.000 N 
ATOM      2  C   UNL     1       0.598  10.369  19.182  0.00  0.00    +0.000 A 
ATOM      3  N   UNL     1       0.819  11.573  19.620  0.00  0.00    +0.000 NA
ATOM      4  C   UNL     1       0.493  11.678  20.988  0.00  0.00    +0.000 A 
ATOM      5  C   UNL     1       0.012  12.905  21.443  0.00  0.00    +0.000 A 
ATOM      6  C   UNL     1      -0.920  12.926  22.478  0.00  0.00    +0.000 A 
ATOM      7  C   UNL     1      -1.332  11.727  23.070  0.00  0.00    +0.000 A 
ATOM      8  C   UNL     1      -0.710  10.519  22.739  0.00  0.00    +0.000 A 
ATOM      9  C   UNL     1       0.240  10.513  21.728  0.00  0.00    +0.000 A 
ATOM     10  C   UNL     1       0.873   9.263  21.223  0.00  0.00    +0.000 A 
ATOM     11  O   UNL     1       1.216   8.414  22.037  0.00  0.00    +0.000 OA
ENDROOT
BRANCH   1  15
ATOM     12  C   UNL     1       3.775   6.668  17.865  0.00  0.00    +0.000 A 
ATOM     13  C   UNL     1       3.154   6.230  19.035  0.00  0.00    +0.000 A 
ATOM     14  C   UNL     1       2.214   7.054  19.678  0.00  0.00    +0.000 A 
ATOM     15  C   UNL     1       1.874   8.308  19.149  0.00  0.00    +0.000 A 
ATOM     16  C   UNL     1       2.447   8.679  17.917  0.00  0.00    +0.000 A 
ATOM     17  C   UNL     1       3.403   7.881  17.288  0.00  0.00    +0.000 A 
BRANCH  12  18
ATOM     18  S   UNL     1       5.155   5.806  17.164  0.00  0.00    +0.000 S 
ATOM     19  O   UNL     1       4.791   4.419  16.951  0.00  0.00    +0.000 OA
ATOM     20  O   UNL     1       6.353   6.187  17.877  0.00  0.00    +0.000 OA
BRANCH  18  21
ATOM     21  N   UNL     1       5.286   6.488  15.640  0.00  0.00    +0.000 NA
ATOM     22  H   UNL     1       4.370   6.478  15.188  0.00  0.00    +0.000 HD
ATOM     23  H   UNL     1       6.009   6.006  15.105  0.00  0.00    +0.000 HD
ENDBRANCH  18  21
ENDBRANCH  12  18
ENDBRANCH   1  15
BRANCH   2  24
ATOM     24  S   UNL     1      -0.971  10.043  18.405  0.00  0.00    +0.000 S 
BRANCH  24  25
ATOM     25  C   UNL     1      -1.505  11.725  18.064  0.00  0.00    +0.000 C 
BRANCH  25  26
ATOM     26  C   UNL     1      -2.972  11.881  18.429  0.00  0.00    +0.000 C 
ATOM     27  O   UNL     1      -3.875  11.493  17.697  0.00  0.00    +0.000 OA
ATOM     28  N   UNL     1      -3.142  12.525  19.632  0.00  0.00    +0.000 N 
ATOM     29  C   UNL     1      -4.407  12.775  20.086  0.00  0.00    +0.000 A 
ATOM     30  N   UNL     1      -5.550  12.347  19.615  0.00  0.00    +0.000 NA
ATOM     31  C   UNL     1      -6.579  12.940  20.309  0.00  0.00    +0.000 A 
ATOM     32  C   UNL     1      -6.194  13.806  21.305  0.00  0.00    +0.000 A 
ATOM     33  S   UNL     1      -4.480  13.843  21.411  0.00  0.00    +0.000 S 
ATOM     34  H   UNL     1      -2.379  12.920  20.146  0.00  0.00    +0.000 HD
ENDBRANCH  25  26
ENDBRANCH  24  25
ENDBRANCH   2  24
TORSDOF 6
ENDMDL
MODEL 8
REMARK VINA RESULT:      -7.8      3.921     10.135
REMARK  Name = 
REMARK  6 active torsions:
REMARK  status: ('A' for Active; 'I' for Inactive)
REMARK    1  A    between atoms: N_1  and  S_2
REMARK    2  A    between atoms: S_2  and  C_5
REMARK    3  A    between atoms: C_8  and  N_9
REMARK    4  A    between atoms: C_10  and  S_11
REMARK    5  A    between atoms: S_11  and  C_12
REMARK    6  A    between atoms: C_12  and  C_13
REMARK                            x       y       z     vdW  Elec       q    Type
REMARK                         _______ _______ _______ _____ _____    ______ ____
ROOT
ATOM      1  N   UNL     1       1.064   9.335  20.007  0.00  0.00    +0.000 N 
ATOM      2  C   UNL     1       0.661  10.406  19.241  0.00  0.00    +0.000 A 
ATOM      3  N   UNL     1       0.871  11.638  19.595  0.00  0.00    +0.000 NA
ATOM      4  C   UNL     1       0.485  11.850  20.934  0.00  0.00    +0.000 A 
ATOM      5  C   UNL     1      -0.006  13.110  21.272  0.00  0.00    +0.000 A 
ATOM      6  C   UNL     1      -0.984  13.214  22.259  0.00  0.00    +0.000 A 
ATOM      7  C   UNL     1      -1.431  12.066  22.921  0.00  0.00    +0.000 A 
ATOM      8  C   UNL     1      -0.805  10.834  22.713  0.00  0.00    +0.000 A 
ATOM      9  C   UNL     1       0.190  10.746  21.749  0.00  0.00    +0.000 A 
ATOM     10  C   UNL     1       0.836   9.459  21.371  0.00  0.00    +0.000 A 
ATOM     11  O   UNL     1       1.135   8.673  22.263  0.00  0.00    +0.000 OA
ENDROOT
BRANCH   1  15
ATOM     12  C   UNL     1       3.321   6.214  18.215  0.00  0.00    +0.000 A 
ATOM     13  C   UNL     1       3.234   7.447  17.568  0.00  0.00    +0.000 A 
ATOM     14  C   UNL     1       2.527   8.503  18.168  0.00  0.00    +0.000 A 
ATOM     15  C   UNL     1       1.922   8.342  19.424  0.00  0.00    +0.000 A 
ATOM     16  C   UNL     1       2.110   7.117  20.093  0.00  0.00    +0.000 A 
ATOM     17  C   UNL     1       2.783   6.054  19.491  0.00  0.00    +0.000 A 
BRANCH  12  18
ATOM     18  S   UNL     1       3.955   4.775  17.398  0.00  0.00    +0.000 S 
ATOM     19  O   UNL     1       4.822   5.188  16.311  0.00  0.00    +0.000 OA
ATOM     20  O   UNL     1       2.874   3.835  17.206  0.00  0.00    +0.000 OA
BRANCH  18  21
ATOM     21  N   UNL     1       4.959   4.100  18.556  0.00  0.00    +0.000 NA
ATOM     22  H   UNL     1       5.853   4.591  18.553  0.00  0.00    +0.000 HD
ATOM     23  H   UNL     1       5.044   3.096  18.398  0.00  0.00    +0.000 HD
ENDBRANCH  18  21
ENDBRANCH  12  18
ENDBRANCH   1  15
BRANCH   2  24
ATOM     24  S   UNL     1      -0.874  10.027  18.421  0.00  0.00    +0.000 S 
BRANCH  24  25
ATOM     25  C   UNL     1      -1.464  11.691  18.080  0.00  0.00    +0.000 C 
BRANCH  25  26
ATOM     26  C   UNL     1      -2.949  11.653  17.763  0.00  0.00    +0.000 C 
ATOM     27  O   UNL     1      -3.378  11.294  16.673  0.00  0.00    +0.000 OA
ATOM     28  N   UNL     1      -3.716  12.093  18.816  0.00  0.00    +0.000 N 
ATOM     29  C   UNL     1      -5.074  12.155  18.676  0.00  0.00    +0.000 A 
ATOM     30  N   UNL     1      -5.824  11.696  17.708  0.00  0.00    +0.000 NA
ATOM     31  C   UNL     1      -7.127  12.081  17.918  0.00  0.00    +0.000 A 
ATOM     32  C   UNL     1      -7.344  12.823  19.056  0.00  0.00    +0.000 A 
ATOM     33  S   UNL     1      -5.871  13.004  19.919  0.00  0.00    +0.000 S 
ATOM     34  H   UNL     1      -3.318  12.479  19.651  0.00  0.00    +0.000 HD
ENDBRANCH  25  26
ENDBRANCH  24  25
ENDBRANCH   2  24
TORSDOF 6
ENDMDL
MODEL 9
REMARK VINA RESULT:      -7.8      3.888     10.123
REMARK  Name = 
REMARK  6 active torsions:
REMARK  status: ('A' for Active; 'I' for Inactive)
REMARK    1  A    between atoms: N_1  and  S_2
REMARK    2  A    between atoms: S_2  and  C_5
REMARK    3  A    between atoms: C_8  and  N_9
REMARK    4  A    between atoms: C_10  and  S_11
REMARK    5  A    between atoms: S_11  and  C_12
REMARK    6  A    between atoms: C_12  and  C_13
REMARK                            x       y       z     vdW  Elec       q    Type
REMARK                         _______ _______ _______ _____ _____    ______ ____
ROOT
ATOM      1  N   UNL     1       1.049   9.281  19.846  0.00  0.00    +0.000 N 
ATOM      2  C   UNL     1       0.570  10.385  19.179  0.00  0.00    +0.000 A 
ATOM      3  N   UNL     1       0.794  11.600  19.583  0.00  0.00    +0.000 NA
ATOM      4  C   UNL     1       0.520  11.730  20.960  0.00  0.00    +0.000 A 
ATOM      5  C   UNL     1       0.043  12.961  21.408  0.00  0.00    +0.000 A 
ATOM      6  C   UNL     1      -0.848  12.993  22.478  0.00  0.00    +0.000 A 
ATOM      7  C   UNL     1      -1.224  11.803  23.109  0.00  0.00    +0.000 A 
ATOM      8  C   UNL     1      -0.602  10.595  22.780  0.00  0.00    +0.000 A 
ATOM      9  C   UNL     1       0.308  10.578  21.733  0.00  0.00    +0.000 A 
ATOM     10  C   UNL     1       0.936   9.325  21.229  0.00  0.00    +0.000 A 
ATOM     11  O   UNL     1       1.319   8.496  22.047  0.00  0.00    +0.000 OA
ENDROOT
BRANCH   1  15
ATOM     12  C   UNL     1       3.738   6.685  17.826  0.00  0.00    +0.000 A 
ATOM     13  C   UNL     1       3.131   6.250  19.005  0.00  0.00    +0.000 A 
ATOM     14  C   UNL     1       2.207   7.080  19.662  0.00  0.00    +0.000 A 
ATOM     15  C   UNL     1       1.867   8.337  19.138  0.00  0.00    +0.000 A 
ATOM     16  C   UNL     1       2.424   8.704  17.897  0.00  0.00    +0.000 A 
ATOM     17  C   UNL     1       3.365   7.900  17.254  0.00  0.00    +0.000 A 
BRANCH  12  18
ATOM     18  S   UNL     1       5.101   5.814  17.104  0.00  0.00    +0.000 S 
ATOM     19  O   UNL     1       5.709   6.645  16.082  0.00  0.00    +0.000 OA
ATOM     20  O   UNL     1       4.699   4.450  16.847  0.00  0.00    +0.000 OA
BRANCH  18  21
ATOM     21  N   UNL     1       6.207   5.745  18.359  0.00  0.00    +0.000 NA
ATOM     22  H   UNL     1       5.947   4.990  18.995  0.00  0.00    +0.000 HD
ATOM     23  H   UNL     1       6.274   6.656  18.813  0.00  0.00    +0.000 HD
ENDBRANCH  18  21
ENDBRANCH  12  18
ENDBRANCH   1  15
BRANCH   2  24
ATOM     24  S   UNL     1      -1.024  10.027  18.470  0.00  0.00    +0.000 S 
BRANCH  24  25
ATOM     25  C   UNL     1      -1.586  11.695  18.107  0.00  0.00    +0.000 C 
BRANCH  25  26
ATOM     26  C   UNL     1      -2.873  11.977  18.864  0.00  0.00    +0.000 C 
ATOM     27  O   UNL     1      -2.925  11.994  20.088  0.00  0.00    +0.000 OA
ATOM     28  N   UNL     1      -3.941  12.170  18.018  0.00  0.00    +0.000 N 
ATOM     29  C   UNL     1      -5.181  12.399  18.545  0.00  0.00    +0.000 A 
ATOM     30  N   UNL     1      -5.517  12.630  19.788  0.00  0.00    +0.000 NA
ATOM     31  C   UNL     1      -6.887  12.689  19.886  0.00  0.00    +0.000 A 
ATOM     32  C   UNL     1      -7.569  12.508  18.705  0.00  0.00    +0.000 A 
ATOM     33  S   UNL     1      -6.453  12.306  17.416  0.00  0.00    +0.000 S 
ATOM     34  H   UNL     1      -3.875  12.041  17.026  0.00  0.00    +0.000 HD
ENDBRANCH  25  26
ENDBRANCH  24  25
ENDBRANCH   2  24
TORSDOF 6
ENDMDL
