MODEL 1
REMARK VINA RESULT:      -6.8      0.000      0.000
REMARK  Name = 
REMARK  8 active torsions:
REMARK  status: ('A' for Active; 'I' for Inactive)
REMARK    1  A    between atoms: C_1  and  O_2
REMARK    2  A    between atoms: O_2  and  C_3
REMARK    3  A    between atoms: C_7  and  N_8
REMARK    4  A    between atoms: C_12  and  C_13
REMARK    5  A    between atoms: C_12  and  C_15
REMARK    6  A    between atoms: C_13  and  O_14
REMARK    7  A    between atoms: C_15  and  C_16
REMARK    8  A    between atoms: C_20  and  C_21
REMARK                            x       y       z     vdW  Elec       q    Type
REMARK                         _______ _______ _______ _____ _____    ______ ____
ROOT
ATOM      1  N   UNL     1       2.859   5.481  17.816  0.00  0.00    +0.000 N 
ATOM      2  C   UNL     1       1.983   4.387  17.396  0.00  0.00    +0.000 C 
ATOM      3  C   UNL     1       2.687   3.068  17.682  0.00  0.00    +0.000 C 
ATOM      4  C   UNL     1       4.088   3.016  17.086  0.00  0.00    +0.000 C 
ATOM      5  C   UNL     1       4.987   4.242  17.408  0.00  0.00    +0.000 C 
ATOM      6  C   UNL     1       4.155   5.535  17.111  0.00  0.00    +0.000 C 
ENDROOT
BRANCH   1  11
ATOM      7  C   UNL     1       1.613   7.891  20.387  0.00  0.00    +0.000 A 
ATOM      8  N   UNL     1       1.505   9.038  19.677  0.00  0.00    +0.000 NA
ATOM      9  C   UNL     1       1.829   8.966  18.379  0.00  0.00    +0.000 A 
ATOM     10  C   UNL     1       2.246   7.800  17.761  0.00  0.00    +0.000 A 
ATOM     11  C   UNL     1       2.383   6.604  18.492  0.00  0.00    +0.000 A 
ATOM     12  C   UNL     1       2.061   6.672  19.863  0.00  0.00    +0.000 A 
BRANCH   7  14
ATOM     13  C   UNL     1       1.197   9.271  22.215  0.00  0.00    +0.000 C 
ATOM     14  O   UNL     1       1.265   7.935  21.724  0.00  0.00    +0.000 OA
ENDBRANCH   7  14
BRANCH  12  15
ATOM     15  C   UNL     1       2.084   5.534  20.739  0.00  0.00    +0.000 C 
ATOM     16  N   UNL     1       2.104   4.592  21.416  0.00  0.00    +0.000 NA
ENDBRANCH  12  15
ENDBRANCH   1  11
BRANCH   5  17
ATOM     17  C   UNL     1       5.413   4.309  18.892  0.00  0.00    +0.000 C 
BRANCH  17  18
ATOM     18  O   UNL     1       5.388   3.061  19.566  0.00  0.00    +0.000 OA
ATOM     19  H   UNL     1       4.993   2.404  18.971  0.00  0.00    +0.000 HD
ENDBRANCH  17  18
ENDBRANCH   5  17
BRANCH   5  20
ATOM     20  C   UNL     1       6.224   4.231  16.455  0.00  0.00    +0.000 C 
BRANCH  20  21
ATOM     21  C   UNL     1       6.004   4.791  15.068  0.00  0.00    +0.000 C 
ATOM     22  C   UNL     1       7.091   4.918  14.028  0.00  0.00    +0.000 C 
ATOM     23  C   UNL     1       6.032   3.870  13.871  0.00  0.00    +0.000 C 
ENDBRANCH  20  21
ENDBRANCH   5  20
TORSDOF 7
ENDMDL
MODEL 2
REMARK VINA RESULT:      -6.6      2.390      3.752
REMARK  Name = 
REMARK  8 active torsions:
REMARK  status: ('A' for Active; 'I' for Inactive)
REMARK    1  A    between atoms: C_1  and  O_2
REMARK    2  A    between atoms: O_2  and  C_3
REMARK    3  A    between atoms: C_7  and  N_8
REMARK    4  A    between atoms: C_12  and  C_13
REMARK    5  A    between atoms: C_12  and  C_15
REMARK    6  A    between atoms: C_13  and  O_14
REMARK    7  A    between atoms: C_15  and  C_16
REMARK    8  A    between atoms: C_20  and  C_21
REMARK                            x       y       z     vdW  Elec       q    Type
REMARK                         _______ _______ _______ _____ _____    ______ ____
ROOT
ATOM      1  N   UNL     1       5.281   4.807  18.332  0.00  0.00    +0.000 N 
ATOM      2  C   UNL     1       6.621   5.212  18.760  0.00  0.00    +0.000 C 
ATOM      3  C   UNL     1       7.281   5.974  17.619  0.00  0.00    +0.000 C 
ATOM      4  C   UNL     1       7.245   5.202  16.306  0.00  0.00    +0.000 C 
ATOM      5  C   UNL     1       5.851   4.644  15.908  0.00  0.00    +0.000 C 
ATOM      6  C   UNL     1       5.255   3.913  17.158  0.00  0.00    +0.000 C 
ENDROOT
BRANCH   1  11
ATOM      7  C   UNL     1       2.658   4.208  20.927  0.00  0.00    +0.000 A 
ATOM      8  N   UNL     1       1.898   5.325  20.830  0.00  0.00    +0.000 NA
ATOM      9  C   UNL     1       2.270   6.219  19.904  0.00  0.00    +0.000 A 
ATOM     10  C   UNL     1       3.359   6.041  19.067  0.00  0.00    +0.000 A 
ATOM     11  C   UNL     1       4.171   4.894  19.171  0.00  0.00    +0.000 A 
ATOM     12  C   UNL     1       3.798   3.955  20.154  0.00  0.00    +0.000 A 
BRANCH   7  14
ATOM     13  C   UNL     1       1.111   2.553  21.464  0.00  0.00    +0.000 C 
ATOM     14  O   UNL     1       2.282   3.262  21.861  0.00  0.00    +0.000 OA
ENDBRANCH   7  14
BRANCH  12  15
ATOM     15  C   UNL     1       4.476   2.704  20.351  0.00  0.00    +0.000 C 
ATOM     16  N   UNL     1       5.056   1.713  20.520  0.00  0.00    +0.000 NA
ENDBRANCH  12  15
ENDBRANCH   1  11
BRANCH   5  17
ATOM     17  C   UNL     1       4.847   5.749  15.508  0.00  0.00    +0.000 C 
BRANCH  17  18
ATOM     18  O   UNL     1       5.438   7.011  15.243  0.00  0.00    +0.000 OA
ATOM     19  H   UNL     1       5.669   7.045  14.302  0.00  0.00    +0.000 HD
ENDBRANCH  17  18
ENDBRANCH   5  17
BRANCH   5  20
ATOM     20  C   UNL     1       6.030   3.591  14.769  0.00  0.00    +0.000 C 
BRANCH  20  21
ATOM     21  C   UNL     1       5.951   4.117  13.355  0.00  0.00    +0.000 C 
ATOM     22  C   UNL     1       6.764   3.572  12.205  0.00  0.00    +0.000 C 
ATOM     23  C   UNL     1       5.296   3.287  12.277  0.00  0.00    +0.000 C 
ENDBRANCH  20  21
ENDBRANCH   5  20
TORSDOF 7
ENDMDL
MODEL 3
REMARK VINA RESULT:      -6.6      3.121      4.070
REMARK  Name = 
REMARK  8 active torsions:
REMARK  status: ('A' for Active; 'I' for Inactive)
REMARK    1  A    between atoms: C_1  and  O_2
REMARK    2  A    between atoms: O_2  and  C_3
REMARK    3  A    between atoms: C_7  and  N_8
REMARK    4  A    between atoms: C_12  and  C_13
REMARK    5  A    between atoms: C_12  and  C_15
REMARK    6  A    between atoms: C_13  and  O_14
REMARK    7  A    between atoms: C_15  and  C_16
REMARK    8  A    between atoms: C_20  and  C_21
REMARK                            x       y       z     vdW  Elec       q    Type
REMARK                         _______ _______ _______ _____ _____    ______ ____
ROOT
ATOM      1  N   UNL     1       4.993   4.365  17.862  0.00  0.00    +0.000 N 
ATOM      2  C   UNL     1       6.017   4.912  18.751  0.00  0.00    +0.000 C 
ATOM      3  C   UNL     1       6.752   6.023  18.014  0.00  0.00    +0.000 C 
ATOM      4  C   UNL     1       7.273   5.572  16.655  0.00  0.00    +0.000 C 
ATOM      5  C   UNL     1       6.228   4.860  15.752  0.00  0.00    +0.000 C 
ATOM      6  C   UNL     1       5.515   3.768  16.616  0.00  0.00    +0.000 C 
ENDROOT
BRANCH   1  11
ATOM      7  C   UNL     1       2.042   2.952  19.670  0.00  0.00    +0.000 A 
ATOM      8  N   UNL     1       1.010   3.619  19.102  0.00  0.00    +0.000 NA
ATOM      9  C   UNL     1       1.327   4.492  18.136  0.00  0.00    +0.000 A 
ATOM     10  C   UNL     1       2.625   4.719  17.709  0.00  0.00    +0.000 A 
ATOM     11  C   UNL     1       3.710   4.047  18.306  0.00  0.00    +0.000 A 
ATOM     12  C   UNL     1       3.388   3.138  19.335  0.00  0.00    +0.000 A 
BRANCH   7  14
ATOM     13  C   UNL     1       1.303   2.659  21.858  0.00  0.00    +0.000 C 
ATOM     14  O   UNL     1       1.738   2.031  20.655  0.00  0.00    +0.000 OA
ENDBRANCH   7  14
BRANCH  12  15
ATOM     15  C   UNL     1       4.364   2.325  20.006  0.00  0.00    +0.000 C 
ATOM     16  N   UNL     1       5.180   1.691  20.534  0.00  0.00    +0.000 NA
ENDBRANCH  12  15
ENDBRANCH   1  11
BRANCH   5  17
ATOM     17  C   UNL     1       5.129   5.814  15.229  0.00  0.00    +0.000 C 
BRANCH  17  18
ATOM     18  O   UNL     1       5.381   7.188  15.472  0.00  0.00    +0.000 OA
ATOM     19  H   UNL     1       5.551   7.620  14.620  0.00  0.00    +0.000 HD
ENDBRANCH  17  18
ENDBRANCH   5  17
BRANCH   5  20
ATOM     20  C   UNL     1       6.972   4.143  14.580  0.00  0.00    +0.000 C 
BRANCH  20  21
ATOM     21  C   UNL     1       6.412   4.372  13.195  0.00  0.00    +0.000 C 
ATOM     22  C   UNL     1       7.112   3.956  11.923  0.00  0.00    +0.000 C 
ATOM     23  C   UNL     1       5.903   3.203  12.386  0.00  0.00    +0.000 C 
ENDBRANCH  20  21
ENDBRANCH   5  20
TORSDOF 7
ENDMDL
MODEL 4
REMARK VINA RESULT:      -6.5      3.005      3.957
REMARK  Name = 
REMARK  8 active torsions:
REMARK  status: ('A' for Active; 'I' for Inactive)
REMARK    1  A    between atoms: C_1  and  O_2
REMARK    2  A    between atoms: O_2  and  C_3
REMARK    3  A    between atoms: C_7  and  N_8
REMARK    4  A    between atoms: C_12  and  C_13
REMARK    5  A    between atoms: C_12  and  C_15
REMARK    6  A    between atoms: C_13  and  O_14
REMARK    7  A    between atoms: C_15  and  C_16
REMARK    8  A    between atoms: C_20  and  C_21
REMARK                            x       y       z     vdW  Elec       q    Type
REMARK                         _______ _______ _______ _____ _____    ______ ____
ROOT
ATOM      1  N   UNL     1       4.633   5.689  17.761  0.00  0.00    +0.000 N 
ATOM      2  C   UNL     1       4.531   4.894  16.536  0.00  0.00    +0.000 C 
ATOM      3  C   UNL     1       5.906   4.326  16.215  0.00  0.00    +0.000 C 
ATOM      4  C   UNL     1       6.986   5.400  16.181  0.00  0.00    +0.000 C 
ATOM      5  C   UNL     1       7.016   6.344  17.415  0.00  0.00    +0.000 C 
ATOM      6  C   UNL     1       5.554   6.839  17.673  0.00  0.00    +0.000 C 
ENDROOT
BRANCH   1  11
ATOM      7  C   UNL     1       2.493   4.730  20.672  0.00  0.00    +0.000 A 
ATOM      8  N   UNL     1       1.670   5.798  20.788  0.00  0.00    +0.000 NA
ATOM      9  C   UNL     1       1.842   6.781  19.892  0.00  0.00    +0.000 A 
ATOM     10  C   UNL     1       2.791   6.736  18.885  0.00  0.00    +0.000 A 
ATOM     11  C   UNL     1       3.668   5.641  18.766  0.00  0.00    +0.000 A 
ATOM     12  C   UNL     1       3.507   4.609  19.714  0.00  0.00    +0.000 A 
BRANCH   7  14
ATOM     13  C   UNL     1       1.202   2.877  21.239  0.00  0.00    +0.000 C 
ATOM     14  O   UNL     1       2.322   3.694  21.571  0.00  0.00    +0.000 OA
ENDBRANCH   7  14
BRANCH  12  15
ATOM     15  C   UNL     1       4.273   3.394  19.698  0.00  0.00    +0.000 C 
ATOM     16  N   UNL     1       4.886   2.411  19.647  0.00  0.00    +0.000 NA
ENDBRANCH  12  15
ENDBRANCH   1  11
BRANCH   5  17
ATOM     17  C   UNL     1       7.489   5.638  18.707  0.00  0.00    +0.000 C 
BRANCH  17  18
ATOM     18  O   UNL     1       8.212   4.438  18.488  0.00  0.00    +0.000 OA
ATOM     19  H   UNL     1       7.758   3.720  18.957  0.00  0.00    +0.000 HD
ENDBRANCH  17  18
ENDBRANCH   5  17
BRANCH   5  20
ATOM     20  C   UNL     1       7.900   7.588  17.084  0.00  0.00    +0.000 C 
BRANCH  20  21
ATOM     21  C   UNL     1       7.765   8.769  18.017  0.00  0.00    +0.000 C 
ATOM     22  C   UNL     1       8.895   9.312  18.859  0.00  0.00    +0.000 C 
ATOM     23  C   UNL     1       8.421  10.084  17.666  0.00  0.00    +0.000 C 
ENDBRANCH  20  21
ENDBRANCH   5  20
TORSDOF 7
ENDMDL
MODEL 5
REMARK VINA RESULT:      -6.5      2.978      5.886
REMARK  Name = 
REMARK  8 active torsions:
REMARK  status: ('A' for Active; 'I' for Inactive)
REMARK    1  A    between atoms: C_1  and  O_2
REMARK    2  A    between atoms: O_2  and  C_3
REMARK    3  A    between atoms: C_7  and  N_8
REMARK    4  A    between atoms: C_12  and  C_13
REMARK    5  A    between atoms: C_12  and  C_15
REMARK    6  A    between atoms: C_13  and  O_14
REMARK    7  A    between atoms: C_15  and  C_16
REMARK    8  A    between atoms: C_20  and  C_21
REMARK                            x       y       z     vdW  Elec       q    Type
REMARK                         _______ _______ _______ _____ _____    ______ ____
ROOT
ATOM      1  N   UNL     1       4.647   4.600  18.319  0.00  0.00    +0.000 N 
ATOM      2  C   UNL     1       4.477   3.498  17.371  0.00  0.00    +0.000 C 
ATOM      3  C   UNL     1       3.096   3.612  16.741  0.00  0.00    +0.000 C 
ATOM      4  C   UNL     1       1.989   3.725  17.783  0.00  0.00    +0.000 C 
ATOM      5  C   UNL     1       2.224   4.799  18.880  0.00  0.00    +0.000 C 
ATOM      6  C   UNL     1       3.677   4.610  19.431  0.00  0.00    +0.000 C 
ENDROOT
BRANCH   1  11
ATOM      7  C   UNL     1       7.466   7.006  17.830  0.00  0.00    +0.000 A 
ATOM      8  N   UNL     1       8.277   6.714  18.874  0.00  0.00    +0.000 NA
ATOM      9  C   UNL     1       7.871   5.726  19.684  0.00  0.00    +0.000 A 
ATOM     10  C   UNL     1       6.699   5.015  19.491  0.00  0.00    +0.000 A 
ATOM     11  C   UNL     1       5.835   5.322  18.421  0.00  0.00    +0.000 A 
ATOM     12  C   UNL     1       6.245   6.371  17.572  0.00  0.00    +0.000 A 
BRANCH   7  14
ATOM     13  C   UNL     1       8.139   9.227  17.655  0.00  0.00    +0.000 C 
ATOM     14  O   UNL     1       7.873   8.007  16.969  0.00  0.00    +0.000 OA
ENDBRANCH   7  14
BRANCH  12  15
ATOM     15  C   UNL     1       5.517   6.770  16.400  0.00  0.00    +0.000 C 
ATOM     16  N   UNL     1       4.933   7.057  15.439  0.00  0.00    +0.000 NA
ENDBRANCH  12  15
ENDBRANCH   1  11
BRANCH   5  17
ATOM     17  C   UNL     1       2.128   6.246  18.343  0.00  0.00    +0.000 C 
BRANCH  17  18
ATOM     18  O   UNL     1       2.503   7.244  19.278  0.00  0.00    +0.000 OA
ATOM     19  H   UNL     1       1.904   8.000  19.170  0.00  0.00    +0.000 HD
ENDBRANCH  17  18
ENDBRANCH   5  17
BRANCH   5  20
ATOM     20  C   UNL     1       1.223   4.555  20.054  0.00  0.00    +0.000 C 
BRANCH  20  21
ATOM     21  C   UNL     1       1.027   3.116  20.476  0.00  0.00    +0.000 C 
ATOM     22  C   UNL     1       2.159   2.167  20.787  0.00  0.00    +0.000 C 
ATOM     23  C   UNL     1       1.312   2.703  21.900  0.00  0.00    +0.000 C 
ENDBRANCH  20  21
ENDBRANCH   5  20
TORSDOF 7
ENDMDL
MODEL 6
REMARK VINA RESULT:      -6.4      0.923      1.045
REMARK  Name = 
REMARK  8 active torsions:
REMARK  status: ('A' for Active; 'I' for Inactive)
REMARK    1  A    between atoms: C_1  and  O_2
REMARK    2  A    between atoms: O_2  and  C_3
REMARK    3  A    between atoms: C_7  and  N_8
REMARK    4  A    between atoms: C_12  and  C_13
REMARK    5  A    between atoms: C_12  and  C_15
REMARK    6  A    between atoms: C_13  and  O_14
REMARK    7  A    between atoms: C_15  and  C_16
REMARK    8  A    between atoms: C_20  and  C_21
REMARK                            x       y       z     vdW  Elec       q    Type
REMARK                         _______ _______ _______ _____ _____    ______ ____
ROOT
ATOM      1  N   UNL     1       3.290   5.912  17.806  0.00  0.00    +0.000 N 
ATOM      2  C   UNL     1       2.683   4.599  17.587  0.00  0.00    +0.000 C 
ATOM      3  C   UNL     1       3.727   3.530  17.877  0.00  0.00    +0.000 C 
ATOM      4  C   UNL     1       5.023   3.761  17.110  0.00  0.00    +0.000 C 
ATOM      5  C   UNL     1       5.608   5.197  17.219  0.00  0.00    +0.000 C 
ATOM      6  C   UNL     1       4.446   6.207  16.936  0.00  0.00    +0.000 C 
ENDROOT
BRANCH   1  11
ATOM      7  C   UNL     1       1.475   8.059  20.269  0.00  0.00    +0.000 A 
ATOM      8  N   UNL     1       1.348   9.226  19.594  0.00  0.00    +0.000 NA
ATOM      9  C   UNL     1       1.848   9.251  18.351  0.00  0.00    +0.000 A 
ATOM     10  C   UNL     1       2.459   8.162  17.753  0.00  0.00    +0.000 A 
ATOM     11  C   UNL     1       2.617   6.949  18.451  0.00  0.00    +0.000 A 
ATOM     12  C   UNL     1       2.109   6.917  19.766  0.00  0.00    +0.000 A 
BRANCH   7  14
ATOM     13  C   UNL     1      -0.183   8.856  21.696  0.00  0.00    +0.000 C 
ATOM     14  O   UNL     1       0.949   8.002  21.546  0.00  0.00    +0.000 OA
ENDBRANCH   7  14
BRANCH  12  15
ATOM     15  C   UNL     1       2.130   5.743  20.594  0.00  0.00    +0.000 C 
ATOM     16  N   UNL     1       2.137   4.817  21.293  0.00  0.00    +0.000 NA
ENDBRANCH  12  15
ENDBRANCH   1  11
BRANCH   5  17
ATOM     17  C   UNL     1       6.158   5.522  18.627  0.00  0.00    +0.000 C 
BRANCH  17  18
ATOM     18  O   UNL     1       7.232   4.693  19.043  0.00  0.00    +0.000 OA
ATOM     19  H   UNL     1       7.658   5.111  19.808  0.00  0.00    +0.000 HD
ENDBRANCH  17  18
ENDBRANCH   5  17
BRANCH   5  20
ATOM     20  C   UNL     1       6.698   5.388  16.118  0.00  0.00    +0.000 C 
BRANCH  20  21
ATOM     21  C   UNL     1       6.744   4.335  15.034  0.00  0.00    +0.000 C 
ATOM     22  C   UNL     1       5.734   4.231  13.916  0.00  0.00    +0.000 C 
ATOM     23  C   UNL     1       7.118   4.723  13.623  0.00  0.00    +0.000 C 
ENDBRANCH  20  21
ENDBRANCH   5  20
TORSDOF 7
ENDMDL
MODEL 7
REMARK VINA RESULT:      -6.3      3.062      4.651
REMARK  Name = 
REMARK  8 active torsions:
REMARK  status: ('A' for Active; 'I' for Inactive)
REMARK    1  A    between atoms: C_1  and  O_2
REMARK    2  A    between atoms: O_2  and  C_3
REMARK    3  A    between atoms: C_7  and  N_8
REMARK    4  A    between atoms: C_12  and  C_13
REMARK    5  A    between atoms: C_12  and  C_15
REMARK    6  A    between atoms: C_13  and  O_14
REMARK    7  A    between atoms: C_15  and  C_16
REMARK    8  A    between atoms: C_20  and  C_21
REMARK                            x       y       z     vdW  Elec       q    Type
REMARK                         _______ _______ _______ _____ _____    ______ ____
ROOT
ATOM      1  N   UNL     1       4.518   5.192  17.918  0.00  0.00    +0.000 N 
ATOM      2  C   UNL     1       4.036   6.063  16.846  0.00  0.00    +0.000 C 
ATOM      3  C   UNL     1       5.189   6.338  15.891  0.00  0.00    +0.000 C 
ATOM      4  C   UNL     1       6.430   6.852  16.611  0.00  0.00    +0.000 C 
ATOM      5  C   UNL     1       6.874   6.012  17.841  0.00  0.00    +0.000 C 
ATOM      6  C   UNL     1       5.610   5.764  18.731  0.00  0.00    +0.000 C 
ENDROOT
BRANCH   1  11
ATOM      7  C   UNL     1       2.028   3.031  19.678  0.00  0.00    +0.000 A 
ATOM      8  N   UNL     1       2.328   1.800  19.202  0.00  0.00    +0.000 NA
ATOM      9  C   UNL     1       3.348   1.730  18.335  0.00  0.00    +0.000 A 
ATOM     10  C   UNL     1       4.084   2.833  17.934  0.00  0.00    +0.000 A 
ATOM     11  C   UNL     1       3.770   4.122  18.406  0.00  0.00    +0.000 A 
ATOM     12  C   UNL     1       2.686   4.209  19.305  0.00  0.00    +0.000 A 
BRANCH   7  14
ATOM     13  C   UNL     1       1.353   2.601  21.865  0.00  0.00    +0.000 C 
ATOM     14  O   UNL     1       0.993   3.125  20.589  0.00  0.00    +0.000 OA
ENDBRANCH   7  14
BRANCH  12  15
ATOM     15  C   UNL     1       2.273   5.434  19.930  0.00  0.00    +0.000 C 
ATOM     16  N   UNL     1       1.929   6.404  20.466  0.00  0.00    +0.000 NA
ENDBRANCH  12  15
ENDBRANCH   1  11
BRANCH   5  17
ATOM     17  C   UNL     1       7.437   4.625  17.456  0.00  0.00    +0.000 C 
BRANCH  17  18
ATOM     18  O   UNL     1       7.881   4.523  16.113  0.00  0.00    +0.000 OA
ATOM     19  H   UNL     1       8.141   3.603  15.949  0.00  0.00    +0.000 HD
ENDBRANCH  17  18
ENDBRANCH   5  17
BRANCH   5  20
ATOM     20  C   UNL     1       7.902   6.838  18.677  0.00  0.00    +0.000 C 
BRANCH  20  21
ATOM     21  C   UNL     1       8.466   8.072  18.011  0.00  0.00    +0.000 C 
ATOM     22  C   UNL     1       7.736   9.392  17.924  0.00  0.00    +0.000 C 
ATOM     23  C   UNL     1       8.904   9.248  18.851  0.00  0.00    +0.000 C 
ENDBRANCH  20  21
ENDBRANCH   5  20
TORSDOF 7
ENDMDL
MODEL 8
REMARK VINA RESULT:      -6.3      2.378      3.705
REMARK  Name = 
REMARK  8 active torsions:
REMARK  status: ('A' for Active; 'I' for Inactive)
REMARK    1  A    between atoms: C_1  and  O_2
REMARK    2  A    between atoms: O_2  and  C_3
REMARK    3  A    between atoms: C_7  and  N_8
REMARK    4  A    between atoms: C_12  and  C_13
REMARK    5  A    between atoms: C_12  and  C_15
REMARK    6  A    between atoms: C_13  and  O_14
REMARK    7  A    between atoms: C_15  and  C_16
REMARK    8  A    between atoms: C_20  and  C_21
REMARK                            x       y       z     vdW  Elec       q    Type
REMARK                         _______ _______ _______ _____ _____    ______ ____
ROOT
ATOM      1  N   UNL     1       4.810   4.551  17.866  0.00  0.00    +0.000 N 
ATOM      2  C   UNL     1       6.087   3.992  18.310  0.00  0.00    +0.000 C 
ATOM      3  C   UNL     1       7.212   4.821  17.707  0.00  0.00    +0.000 C 
ATOM      4  C   UNL     1       7.080   4.968  16.196  0.00  0.00    +0.000 C 
ATOM      5  C   UNL     1       5.682   5.427  15.698  0.00  0.00    +0.000 C 
ATOM      6  C   UNL     1       4.607   4.534  16.403  0.00  0.00    +0.000 C 
ENDROOT
BRANCH   1  11
ATOM      7  C   UNL     1       1.877   3.973  20.111  0.00  0.00    +0.000 A 
ATOM      8  N   UNL     1       1.583   5.227  20.527  0.00  0.00    +0.000 NA
ATOM      9  C   UNL     1       2.350   6.212  20.037  0.00  0.00    +0.000 A 
ATOM     10  C   UNL     1       3.388   5.997  19.146  0.00  0.00    +0.000 A 
ATOM     11  C   UNL     1       3.719   4.696  18.721  0.00  0.00    +0.000 A 
ATOM     12  C   UNL     1       2.929   3.651  19.244  0.00  0.00    +0.000 A 
BRANCH   7  14
ATOM     13  C   UNL     1       1.426   2.583  21.923  0.00  0.00    +0.000 C 
ATOM     14  O   UNL     1       1.088   2.943  20.586  0.00  0.00    +0.000 OA
ENDBRANCH   7  14
BRANCH  12  15
ATOM     15  C   UNL     1       3.089   2.274  18.868  0.00  0.00    +0.000 C 
ATOM     16  N   UNL     1       3.242   1.173  18.536  0.00  0.00    +0.000 NA
ENDBRANCH  12  15
ENDBRANCH   1  11
BRANCH   5  17
ATOM     17  C   UNL     1       5.360   6.895  16.062  0.00  0.00    +0.000 C 
BRANCH  17  18
ATOM     18  O   UNL     1       6.429   7.594  16.679  0.00  0.00    +0.000 OA
ATOM     19  H   UNL     1       6.309   8.542  16.507  0.00  0.00    +0.000 HD
ENDBRANCH  17  18
ENDBRANCH   5  17
BRANCH   5  20
ATOM     20  C   UNL     1       5.584   5.182  14.159  0.00  0.00    +0.000 C 
BRANCH  20  21
ATOM     21  C   UNL     1       6.267   3.939  13.636  0.00  0.00    +0.000 C 
ATOM     22  C   UNL     1       5.808   3.173  12.419  0.00  0.00    +0.000 C 
ATOM     23  C   UNL     1       7.056   3.998  12.350  0.00  0.00    +0.000 C 
ENDBRANCH  20  21
ENDBRANCH   5  20
TORSDOF 7
ENDMDL
MODEL 9
REMARK VINA RESULT:      -6.1      2.538      4.391
REMARK  Name = 
REMARK  8 active torsions:
REMARK  status: ('A' for Active; 'I' for Inactive)
REMARK    1  A    between atoms: C_1  and  O_2
REMARK    2  A    between atoms: O_2  and  C_3
REMARK    3  A    between atoms: C_7  and  N_8
REMARK    4  A    between atoms: C_12  and  C_13
REMARK    5  A    between atoms: C_12  and  C_15
REMARK    6  A    between atoms: C_13  and  O_14
REMARK    7  A    between atoms: C_15  and  C_16
REMARK    8  A    between atoms: C_20  and  C_21
REMARK                            x       y       z     vdW  Elec       q    Type
REMARK                         _______ _______ _______ _____ _____    ______ ____
ROOT
ATOM      1  N   UNL     1       5.470   4.038  17.328  0.00  0.00    +0.000 N 
ATOM      2  C   UNL     1       6.595   4.489  18.147  0.00  0.00    +0.000 C 
ATOM      3  C   UNL     1       7.116   5.799  17.572  0.00  0.00    +0.000 C 
ATOM      4  C   UNL     1       7.421   5.699  16.083  0.00  0.00    +0.000 C 
ATOM      5  C   UNL     1       6.284   5.090  15.216  0.00  0.00    +0.000 C 
ATOM      6  C   UNL     1       5.805   3.773  15.915  0.00  0.00    +0.000 C 
ENDROOT
BRANCH   1  11
ATOM      7  C   UNL     1       2.078   3.537  18.817  0.00  0.00    +0.000 A 
ATOM      8  N   UNL     1       2.004   2.188  18.915  0.00  0.00    +0.000 NA
ATOM      9  C   UNL     1       3.080   1.502  18.504  0.00  0.00    +0.000 A 
ATOM     10  C   UNL     1       4.224   2.105  18.010  0.00  0.00    +0.000 A 
ATOM     11  C   UNL     1       4.308   3.505  17.883  0.00  0.00    +0.000 A 
ATOM     12  C   UNL     1       3.174   4.235  18.297  0.00  0.00    +0.000 A 
BRANCH   7  14
ATOM     13  C   UNL     1       0.933   4.344  20.676  0.00  0.00    +0.000 C 
ATOM     14  O   UNL     1       0.989   4.267  19.254  0.00  0.00    +0.000 OA
ENDBRANCH   7  14
BRANCH  12  15
ATOM     15  C   UNL     1       3.114   5.670  18.295  0.00  0.00    +0.000 C 
ATOM     16  N   UNL     1       3.084   6.830  18.259  0.00  0.00    +0.000 NA
ENDBRANCH  12  15
ENDBRANCH   1  11
BRANCH   5  17
ATOM     17  C   UNL     1       5.050   6.014  15.098  0.00  0.00    +0.000 C 
BRANCH  17  18
ATOM     18  O   UNL     1       5.158   7.231  15.819  0.00  0.00    +0.000 OA
ATOM     19  H   UNL     1       6.052   7.283  16.192  0.00  0.00    +0.000 HD
ENDBRANCH  17  18
ENDBRANCH   5  17
BRANCH   5  20
ATOM     20  C   UNL     1       6.858   4.715  13.813  0.00  0.00    +0.000 C 
BRANCH  20  21
ATOM     21  C   UNL     1       6.287   3.473  13.169  0.00  0.00    +0.000 C 
ATOM     22  C   UNL     1       5.213   3.490  12.107  0.00  0.00    +0.000 C 
ATOM     23  C   UNL     1       6.623   3.147  11.733  0.00  0.00    +0.000 C 
ENDBRANCH  20  21
ENDBRANCH   5  20
TORSDOF 7
ENDMDL
