MODEL 1
REMARK VINA RESULT:      -6.8      0.000      0.000
REMARK  Name = 
REMARK  3 active torsions:
REMARK  status: ('A' for Active; 'I' for Inactive)
REMARK    1  A    between atoms: C_2  and  C_12
REMARK    2  A    between atoms: N_3  and  C_4
REMARK    3  A    between atoms: C_6  and  O_7
REMARK                            x       y       z     vdW  Elec       q    Type
REMARK                         _______ _______ _______ _____ _____    ______ ____
ROOT
ATOM      1  O   UNL     1       7.281   5.045  16.814  0.00  0.00    +0.000 OA
ATOM      2  C   UNL     1       6.386   4.855  15.997  0.00  0.00    +0.000 C 
ATOM      3  N   UNL     1       5.036   4.739  16.271  0.00  0.00    +0.000 N 
ATOM      4  H   UNL     1       4.447   4.488  15.484  0.00  0.00    +0.000 HD
ENDROOT
BRANCH   3   5
ATOM      5  C   UNL     1       4.449   4.775  17.556  0.00  0.00    +0.000 A 
ATOM      6  C   UNL     1       4.387   3.655  18.393  0.00  0.00    +0.000 A 
ATOM      7  C   UNL     1       3.727   3.722  19.619  0.00  0.00    +0.000 A 
ATOM      8  C   UNL     1       3.133   4.899  20.040  0.00  0.00    +0.000 A 
ATOM      9  C   UNL     1       3.225   6.020  19.226  0.00  0.00    +0.000 A 
ATOM     10  F   UNL     1       2.651   7.165  19.620  0.00  0.00    +0.000 F 
ATOM     11  C   UNL     1       3.885   5.976  17.997  0.00  0.00    +0.000 A 
BRANCH   7  12
ATOM     12  O   UNL     1       3.645   2.628  20.428  0.00  0.00    +0.000 OA
ATOM     13  H   UNL     1       2.992   2.008  20.055  0.00  0.00    +0.000 HD
ENDBRANCH   7  12
ENDBRANCH   3   5
BRANCH   2  14
ATOM     14  C   UNL     1       6.706   4.652  14.539  0.00  0.00    +0.000 C 
ATOM     15  C   UNL     1       5.885   3.858  13.827  0.00  0.00    +0.000 C 
ATOM     16  C   UNL     1       6.091   3.565  12.381  0.00  0.00    +0.000 C 
ATOM     17  C   UNL     1       7.447   4.065  11.908  0.00  0.00    +0.000 C 
ATOM     18  C   UNL     1       7.770   5.397  12.570  0.00  0.00    +0.000 C 
ATOM     19  O   UNL     1       7.802   5.307  14.001  0.00  0.00    +0.000 OA
ENDBRANCH   2  14
TORSDOF 3
ENDMDL
MODEL 2
REMARK VINA RESULT:      -6.8      1.656      2.018
REMARK  Name = 
REMARK  3 active torsions:
REMARK  status: ('A' for Active; 'I' for Inactive)
REMARK    1  A    between atoms: C_2  and  C_12
REMARK    2  A    between atoms: N_3  and  C_4
REMARK    3  A    between atoms: C_6  and  O_7
REMARK                            x       y       z     vdW  Elec       q    Type
REMARK                         _______ _______ _______ _____ _____    ______ ____
ROOT
ATOM      1  O   UNL     1       7.117   4.624  16.908  0.00  0.00    +0.000 OA
ATOM      2  C   UNL     1       6.255   4.576  16.037  0.00  0.00    +0.000 C 
ATOM      3  N   UNL     1       4.887   4.535  16.238  0.00  0.00    +0.000 N 
ATOM      4  H   UNL     1       4.324   4.401  15.404  0.00  0.00    +0.000 HD
ENDROOT
BRANCH   3   5
ATOM      5  C   UNL     1       4.238   4.497  17.492  0.00  0.00    +0.000 A 
ATOM      6  C   UNL     1       3.767   5.648  18.136  0.00  0.00    +0.000 A 
ATOM      7  C   UNL     1       3.206   5.568  19.410  0.00  0.00    +0.000 A 
ATOM      8  C   UNL     1       3.087   4.350  20.056  0.00  0.00    +0.000 A 
ATOM      9  C   UNL     1       3.522   3.203  19.402  0.00  0.00    +0.000 A 
ATOM     10  F   UNL     1       3.417   2.018  20.018  0.00  0.00    +0.000 F 
ATOM     11  C   UNL     1       4.083   3.261  18.126  0.00  0.00    +0.000 A 
BRANCH   7  12
ATOM     12  O   UNL     1       2.766   6.688  20.050  0.00  0.00    +0.000 OA
ATOM     13  H   UNL     1       1.857   6.881  19.759  0.00  0.00    +0.000 HD
ENDBRANCH   7  12
ENDBRANCH   3   5
BRANCH   2  14
ATOM     14  C   UNL     1       6.635   4.483  14.582  0.00  0.00    +0.000 C 
ATOM     15  C   UNL     1       5.821   3.782  13.770  0.00  0.00    +0.000 C 
ATOM     16  C   UNL     1       6.085   3.604  12.315  0.00  0.00    +0.000 C 
ATOM     17  C   UNL     1       7.478   4.090  11.945  0.00  0.00    +0.000 C 
ATOM     18  C   UNL     1       7.814   5.350  12.731  0.00  0.00    +0.000 C 
ATOM     19  O   UNL     1       7.776   5.139  14.150  0.00  0.00    +0.000 OA
ENDBRANCH   2  14
TORSDOF 3
ENDMDL
MODEL 3
REMARK VINA RESULT:      -6.6      1.105      1.111
REMARK  Name = 
REMARK  3 active torsions:
REMARK  status: ('A' for Active; 'I' for Inactive)
REMARK    1  A    between atoms: C_2  and  C_12
REMARK    2  A    between atoms: N_3  and  C_4
REMARK    3  A    between atoms: C_6  and  O_7
REMARK                            x       y       z     vdW  Elec       q    Type
REMARK                         _______ _______ _______ _____ _____    ______ ____
ROOT
ATOM      1  O   UNL     1       6.723   4.289  16.968  0.00  0.00    +0.000 OA
ATOM      2  C   UNL     1       5.948   4.323  16.018  0.00  0.00    +0.000 C 
ATOM      3  N   UNL     1       4.568   4.254  16.081  0.00  0.00    +0.000 N 
ATOM      4  H   UNL     1       4.089   4.201  15.188  0.00  0.00    +0.000 HD
ENDROOT
BRANCH   3   5
ATOM      5  C   UNL     1       3.804   4.089  17.258  0.00  0.00    +0.000 A 
ATOM      6  C   UNL     1       3.205   2.873  17.608  0.00  0.00    +0.000 A 
ATOM      7  C   UNL     1       2.394   2.781  18.738  0.00  0.00    +0.000 A 
ATOM      8  C   UNL     1       2.177   3.884  19.545  0.00  0.00    +0.000 A 
ATOM      9  C   UNL     1       2.800   5.082  19.218  0.00  0.00    +0.000 A 
ATOM     10  F   UNL     1       2.595   6.159  19.988  0.00  0.00    +0.000 F 
ATOM     11  C   UNL     1       3.619   5.194  18.093  0.00  0.00    +0.000 A 
BRANCH   7  12
ATOM     12  O   UNL     1       1.791   1.604  19.070  0.00  0.00    +0.000 OA
ATOM     13  H   UNL     1       2.304   0.869  18.691  0.00  0.00    +0.000 HD
ENDBRANCH   7  12
ENDBRANCH   3   5
BRANCH   2  14
ATOM     14  C   UNL     1       6.466   4.378  14.605  0.00  0.00    +0.000 C 
ATOM     15  C   UNL     1       5.768   3.719  13.660  0.00  0.00    +0.000 C 
ATOM     16  C   UNL     1       6.174   3.683  12.227  0.00  0.00    +0.000 C 
ATOM     17  C   UNL     1       7.569   4.260  12.038  0.00  0.00    +0.000 C 
ATOM     18  C   UNL     1       7.767   5.456  12.957  0.00  0.00    +0.000 C 
ATOM     19  O   UNL     1       7.607   5.118  14.343  0.00  0.00    +0.000 OA
ENDBRANCH   2  14
TORSDOF 3
ENDMDL
MODEL 4
REMARK VINA RESULT:      -6.5      4.221      7.624
REMARK  Name = 
REMARK  3 active torsions:
REMARK  status: ('A' for Active; 'I' for Inactive)
REMARK    1  A    between atoms: C_2  and  C_12
REMARK    2  A    between atoms: N_3  and  C_4
REMARK    3  A    between atoms: C_6  and  O_7
REMARK                            x       y       z     vdW  Elec       q    Type
REMARK                         _______ _______ _______ _____ _____    ______ ____
ROOT
ATOM      1  O   UNL     1       2.314   8.086  18.361  0.00  0.00    +0.000 OA
ATOM      2  C   UNL     1       2.042   7.804  19.523  0.00  0.00    +0.000 C 
ATOM      3  N   UNL     1       2.297   6.601  20.156  0.00  0.00    +0.000 N 
ATOM      4  H   UNL     1       1.919   6.508  21.094  0.00  0.00    +0.000 HD
ENDROOT
BRANCH   3   5
ATOM      5  C   UNL     1       2.880   5.461  19.558  0.00  0.00    +0.000 A 
ATOM      6  C   UNL     1       4.264   5.266  19.491  0.00  0.00    +0.000 A 
ATOM      7  C   UNL     1       4.793   4.165  18.820  0.00  0.00    +0.000 A 
ATOM      8  C   UNL     1       3.961   3.234  18.221  0.00  0.00    +0.000 A 
ATOM      9  C   UNL     1       2.587   3.409  18.319  0.00  0.00    +0.000 A 
ATOM     10  F   UNL     1       1.770   2.518  17.741  0.00  0.00    +0.000 F 
ATOM     11  C   UNL     1       2.037   4.502  18.990  0.00  0.00    +0.000 A 
BRANCH   7  12
ATOM     12  O   UNL     1       6.141   3.982  18.732  0.00  0.00    +0.000 OA
ATOM     13  H   UNL     1       6.539   4.766  18.313  0.00  0.00    +0.000 HD
ENDBRANCH   7  12
ENDBRANCH   3   5
BRANCH   2  14
ATOM     14  C   UNL     1       1.301   8.780  20.399  0.00  0.00    +0.000 C 
ATOM     15  C   UNL     1       1.175   8.474  21.704  0.00  0.00    +0.000 C 
ATOM     16  C   UNL     1       0.458   9.345  22.677  0.00  0.00    +0.000 C 
ATOM     17  C   UNL     1      -0.298  10.457  21.965  0.00  0.00    +0.000 C 
ATOM     18  C   UNL     1       0.521  10.972  20.790  0.00  0.00    +0.000 C 
ATOM     19  O   UNL     1       0.815   9.946  19.831  0.00  0.00    +0.000 OA
ENDBRANCH   2  14
TORSDOF 3
ENDMDL
MODEL 5
REMARK VINA RESULT:      -6.5      3.404      6.736
REMARK  Name = 
REMARK  3 active torsions:
REMARK  status: ('A' for Active; 'I' for Inactive)
REMARK    1  A    between atoms: C_2  and  C_12
REMARK    2  A    between atoms: N_3  and  C_4
REMARK    3  A    between atoms: C_6  and  O_7
REMARK                            x       y       z     vdW  Elec       q    Type
REMARK                         _______ _______ _______ _____ _____    ______ ____
ROOT
ATOM      1  O   UNL     1       2.453   5.570  18.188  0.00  0.00    +0.000 OA
ATOM      2  C   UNL     1       2.924   6.702  18.138  0.00  0.00    +0.000 C 
ATOM      3  N   UNL     1       4.163   7.053  17.635  0.00  0.00    +0.000 N 
ATOM      4  H   UNL     1       4.430   8.024  17.760  0.00  0.00    +0.000 HD
ENDROOT
BRANCH   3   5
ATOM      5  C   UNL     1       5.131   6.158  17.126  0.00  0.00    +0.000 A 
ATOM      6  C   UNL     1       6.110   5.563  17.929  0.00  0.00    +0.000 A 
ATOM      7  C   UNL     1       7.092   4.749  17.365  0.00  0.00    +0.000 A 
ATOM      8  C   UNL     1       7.109   4.500  16.004  0.00  0.00    +0.000 A 
ATOM      9  C   UNL     1       6.116   5.062  15.211  0.00  0.00    +0.000 A 
ATOM     10  F   UNL     1       6.122   4.832  13.892  0.00  0.00    +0.000 F 
ATOM     11  C   UNL     1       5.122   5.876  15.757  0.00  0.00    +0.000 A 
BRANCH   7  12
ATOM     12  O   UNL     1       8.062   4.186  18.141  0.00  0.00    +0.000 OA
ATOM     13  H   UNL     1       8.866   4.069  17.604  0.00  0.00    +0.000 HD
ENDBRANCH   7  12
ENDBRANCH   3   5
BRANCH   2  14
ATOM     14  C   UNL     1       2.175   7.873  18.718  0.00  0.00    +0.000 C 
ATOM     15  C   UNL     1       1.711   8.801  17.860  0.00  0.00    +0.000 C 
ATOM     16  C   UNL     1       0.963  10.012  18.299  0.00  0.00    +0.000 C 
ATOM     17  C   UNL     1       1.019  10.173  19.811  0.00  0.00    +0.000 C 
ATOM     18  C   UNL     1       0.921   8.810  20.483  0.00  0.00    +0.000 C 
ATOM     19  O   UNL     1       1.978   7.924  20.088  0.00  0.00    +0.000 OA
ENDBRANCH   2  14
TORSDOF 3
ENDMDL
MODEL 6
REMARK VINA RESULT:      -6.4      1.359      1.388
REMARK  Name = 
REMARK  3 active torsions:
REMARK  status: ('A' for Active; 'I' for Inactive)
REMARK    1  A    between atoms: C_2  and  C_12
REMARK    2  A    between atoms: N_3  and  C_4
REMARK    3  A    between atoms: C_6  and  O_7
REMARK                            x       y       z     vdW  Elec       q    Type
REMARK                         _______ _______ _______ _____ _____    ______ ____
ROOT
ATOM      1  O   UNL     1       6.241   5.536  16.908  0.00  0.00    +0.000 OA
ATOM      2  C   UNL     1       5.757   4.696  16.156  0.00  0.00    +0.000 C 
ATOM      3  N   UNL     1       4.781   3.771  16.480  0.00  0.00    +0.000 N 
ATOM      4  H   UNL     1       4.565   3.089  15.760  0.00  0.00    +0.000 HD
ENDROOT
BRANCH   3   5
ATOM      5  C   UNL     1       4.197   3.600  17.755  0.00  0.00    +0.000 A 
ATOM      6  C   UNL     1       4.826   2.898  18.789  0.00  0.00    +0.000 A 
ATOM      7  C   UNL     1       4.174   2.689  20.003  0.00  0.00    +0.000 A 
ATOM      8  C   UNL     1       2.899   3.183  20.217  0.00  0.00    +0.000 A 
ATOM      9  C   UNL     1       2.288   3.911  19.203  0.00  0.00    +0.000 A 
ATOM     10  F   UNL     1       1.052   4.392  19.395  0.00  0.00    +0.000 F 
ATOM     11  C   UNL     1       2.925   4.135  17.982  0.00  0.00    +0.000 A 
BRANCH   7  12
ATOM     12  O   UNL     1       4.774   1.986  21.006  0.00  0.00    +0.000 OA
ATOM     13  H   UNL     1       5.173   1.181  20.631  0.00  0.00    +0.000 HD
ENDBRANCH   7  12
ENDBRANCH   3   5
BRANCH   2  14
ATOM     14  C   UNL     1       6.261   4.544  14.745  0.00  0.00    +0.000 C 
ATOM     15  C   UNL     1       5.479   3.881  13.873  0.00  0.00    +0.000 C 
ATOM     16  C   UNL     1       5.861   3.651  12.451  0.00  0.00    +0.000 C 
ATOM     17  C   UNL     1       7.313   4.035  12.205  0.00  0.00    +0.000 C 
ATOM     18  C   UNL     1       7.661   5.287  12.997  0.00  0.00    +0.000 C 
ATOM     19  O   UNL     1       7.479   5.113  14.409  0.00  0.00    +0.000 OA
ENDBRANCH   2  14
TORSDOF 3
ENDMDL
MODEL 7
REMARK VINA RESULT:      -6.3      2.764      6.691
REMARK  Name = 
REMARK  3 active torsions:
REMARK  status: ('A' for Active; 'I' for Inactive)
REMARK    1  A    between atoms: C_2  and  C_12
REMARK    2  A    between atoms: N_3  and  C_4
REMARK    3  A    between atoms: C_6  and  O_7
REMARK                            x       y       z     vdW  Elec       q    Type
REMARK                         _______ _______ _______ _____ _____    ______ ____
ROOT
ATOM      1  O   UNL     1       4.830   6.490  16.455  0.00  0.00    +0.000 OA
ATOM      2  C   UNL     1       4.569   5.318  16.703  0.00  0.00    +0.000 C 
ATOM      3  N   UNL     1       4.997   4.213  15.990  0.00  0.00    +0.000 N 
ATOM      4  H   UNL     1       4.608   3.322  16.282  0.00  0.00    +0.000 HD
ENDROOT
BRANCH   3   5
ATOM      5  C   UNL     1       5.782   4.243  14.815  0.00  0.00    +0.000 A 
ATOM      6  C   UNL     1       6.927   5.038  14.690  0.00  0.00    +0.000 A 
ATOM      7  C   UNL     1       7.623   5.094  13.482  0.00  0.00    +0.000 A 
ATOM      8  C   UNL     1       7.205   4.354  12.390  0.00  0.00    +0.000 A 
ATOM      9  C   UNL     1       6.089   3.537  12.525  0.00  0.00    +0.000 A 
ATOM     10  F   UNL     1       5.672   2.818  11.475  0.00  0.00    +0.000 F 
ATOM     11  C   UNL     1       5.382   3.464  13.726  0.00  0.00    +0.000 A 
BRANCH   7  12
ATOM     12  O   UNL     1       8.726   5.884  13.348  0.00  0.00    +0.000 OA
ATOM     13  H   UNL     1       9.268   5.807  14.154  0.00  0.00    +0.000 HD
ENDBRANCH   7  12
ENDBRANCH   3   5
BRANCH   2  14
ATOM     14  C   UNL     1       3.646   4.959  17.838  0.00  0.00    +0.000 C 
ATOM     15  C   UNL     1       2.458   4.407  17.523  0.00  0.00    +0.000 C 
ATOM     16  C   UNL     1       1.449   4.014  18.545  0.00  0.00    +0.000 C 
ATOM     17  C   UNL     1       1.830   4.538  19.922  0.00  0.00    +0.000 C 
ATOM     18  C   UNL     1       3.336   4.438  20.118  0.00  0.00    +0.000 C 
ATOM     19  O   UNL     1       4.069   5.185  19.137  0.00  0.00    +0.000 OA
ENDBRANCH   2  14
TORSDOF 3
ENDMDL
MODEL 8
REMARK VINA RESULT:      -6.3      2.673      6.746
REMARK  Name = 
REMARK  3 active torsions:
REMARK  status: ('A' for Active; 'I' for Inactive)
REMARK    1  A    between atoms: C_2  and  C_12
REMARK    2  A    between atoms: N_3  and  C_4
REMARK    3  A    between atoms: C_6  and  O_7
REMARK                            x       y       z     vdW  Elec       q    Type
REMARK                         _______ _______ _______ _____ _____    ______ ____
ROOT
ATOM      1  O   UNL     1       5.578   3.595  19.552  0.00  0.00    +0.000 OA
ATOM      2  C   UNL     1       4.501   3.538  18.966  0.00  0.00    +0.000 C 
ATOM      3  N   UNL     1       4.284   3.794  17.625  0.00  0.00    +0.000 N 
ATOM      4  H   UNL     1       3.313   3.792  17.328  0.00  0.00    +0.000 HD
ENDROOT
BRANCH   3   5
ATOM      5  C   UNL     1       5.262   4.211  16.695  0.00  0.00    +0.000 A 
ATOM      6  C   UNL     1       6.158   5.254  16.954  0.00  0.00    +0.000 A 
ATOM      7  C   UNL     1       7.052   5.681  15.973  0.00  0.00    +0.000 A 
ATOM      8  C   UNL     1       7.084   5.072  14.731  0.00  0.00    +0.000 A 
ATOM      9  C   UNL     1       6.219   4.013  14.485  0.00  0.00    +0.000 A 
ATOM     10  F   UNL     1       6.237   3.417  13.286  0.00  0.00    +0.000 F 
ATOM     11  C   UNL     1       5.319   3.567  15.455  0.00  0.00    +0.000 A 
BRANCH   7  12
ATOM     12  O   UNL     1       7.912   6.712  16.213  0.00  0.00    +0.000 OA
ATOM     13  H   UNL     1       8.472   6.484  16.977  0.00  0.00    +0.000 HD
ENDBRANCH   7  12
ENDBRANCH   3   5
BRANCH   2  14
ATOM     14  C   UNL     1       3.232   3.232  19.717  0.00  0.00    +0.000 C 
ATOM     15  C   UNL     1       2.080   3.241  19.020  0.00  0.00    +0.000 C 
ATOM     16  C   UNL     1       0.754   2.965  19.640  0.00  0.00    +0.000 C 
ATOM     17  C   UNL     1       0.856   2.925  21.158  0.00  0.00    +0.000 C 
ATOM     18  C   UNL     1       2.156   2.252  21.574  0.00  0.00    +0.000 C 
ATOM     19  O   UNL     1       3.313   2.931  21.067  0.00  0.00    +0.000 OA
ENDBRANCH   2  14
TORSDOF 3
ENDMDL
MODEL 9
REMARK VINA RESULT:      -6.3      4.092      7.631
REMARK  Name = 
REMARK  3 active torsions:
REMARK  status: ('A' for Active; 'I' for Inactive)
REMARK    1  A    between atoms: C_2  and  C_12
REMARK    2  A    between atoms: N_3  and  C_4
REMARK    3  A    between atoms: C_6  and  O_7
REMARK                            x       y       z     vdW  Elec       q    Type
REMARK                         _______ _______ _______ _____ _____    ______ ____
ROOT
ATOM      1  O   UNL     1       2.382   8.327  18.285  0.00  0.00    +0.000 OA
ATOM      2  C   UNL     1       2.078   7.915  19.400  0.00  0.00    +0.000 C 
ATOM      3  N   UNL     1       2.375   6.670  19.923  0.00  0.00    +0.000 N 
ATOM      4  H   UNL     1       1.964   6.463  20.827  0.00  0.00    +0.000 HD
ENDROOT
BRANCH   3   5
ATOM      5  C   UNL     1       3.049   5.629  19.245  0.00  0.00    +0.000 A 
ATOM      6  C   UNL     1       4.412   5.366  19.425  0.00  0.00    +0.000 A 
ATOM      7  C   UNL     1       5.049   4.379  18.673  0.00  0.00    +0.000 A 
ATOM      8  C   UNL     1       4.345   3.631  17.747  0.00  0.00    +0.000 A 
ATOM      9  C   UNL     1       2.985   3.868  17.593  0.00  0.00    +0.000 A 
ATOM     10  F   UNL     1       2.292   3.153  16.696  0.00  0.00    +0.000 F 
ATOM     11  C   UNL     1       2.327   4.848  18.338  0.00  0.00    +0.000 A 
BRANCH   7  12
ATOM     12  O   UNL     1       6.381   4.134  18.829  0.00  0.00    +0.000 OA
ATOM     13  H   UNL     1       6.822   4.227  17.966  0.00  0.00    +0.000 HD
ENDBRANCH   7  12
ENDBRANCH   3   5
BRANCH   2  14
ATOM     14  C   UNL     1       1.244   8.756  20.330  0.00  0.00    +0.000 C 
ATOM     15  C   UNL     1       0.560   9.785  19.793  0.00  0.00    +0.000 C 
ATOM     16  C   UNL     1      -0.294  10.700  20.599  0.00  0.00    +0.000 C 
ATOM     17  C   UNL     1      -0.089  10.472  22.090  0.00  0.00    +0.000 C 
ATOM     18  C   UNL     1       0.081   8.986  22.370  0.00  0.00    +0.000 C 
ATOM     19  O   UNL     1       1.199   8.419  21.672  0.00  0.00    +0.000 OA
ENDBRANCH   2  14
TORSDOF 3
ENDMDL
