MODEL 1
REMARK VINA RESULT:      -6.5      0.000      0.000
REMARK  Name = 
REMARK  5 active torsions:
REMARK  status: ('A' for Active; 'I' for Inactive)
REMARK    1  A    between atoms: C_1  and  C_2
REMARK    2  A    between atoms: C_2  and  N_3
REMARK    3  A    between atoms: C_6  and  N_7
REMARK    4  A    between atoms: C_17  and  C_19
REMARK    5  A    between atoms: C_24  and  C_25
REMARK                            x       y       z     vdW  Elec       q    Type
REMARK                         _______ _______ _______ _____ _____    ______ ____
ROOT
ATOM      1  N   UNL     1       4.558  15.301  19.320  0.00  0.00    +0.000 NA
ATOM      2  C   UNL     1       4.919  14.578  18.057  0.00  0.00    +0.000 C 
ATOM      3  C   UNL     1       6.342  14.634  17.523  0.00  0.00    +0.000 C 
ATOM      4  O   UNL     1       7.307  14.644  18.547  0.00  0.00    +0.000 OA
ATOM      5  C   UNL     1       7.128  15.648  19.550  0.00  0.00    +0.000 C 
ATOM      6  C   UNL     1       7.161  17.075  18.941  0.00  0.00    +0.000 C 
ATOM      7  O   UNL     1       8.421  17.454  18.358  0.00  0.00    +0.000 OA
ATOM      8  C   UNL     1       9.346  17.975  19.304  0.00  0.00    +0.000 C 
ATOM      9  C   UNL     1      10.263  16.902  19.906  0.00  0.00    +0.000 C 
ATOM     10  N   UNL     1       9.697  15.558  20.023  0.00  0.00    +0.000 N 
ATOM     11  C   UNL     1      10.666  14.518  20.015  0.00  0.00    +0.000 C 
ATOM     12  O   UNL     1      11.865  14.740  20.133  0.00  0.00    +0.000 OA
ATOM     13  C   UNL     1       8.310  15.429  20.561  0.00  0.00    +0.000 C 
ATOM     14  C   UNL     1       5.730  15.328  20.243  0.00  0.00    +0.000 C 
ENDROOT
BRANCH  11  15
ATOM     15  C   UNL     1      10.239  13.110  19.784  0.00  0.00    +0.000 A 
ATOM     16  C   UNL     1       9.770  12.395  20.888  0.00  0.00    +0.000 A 
ATOM     17  C   UNL     1       9.446  11.043  20.800  0.00  0.00    +0.000 A 
ATOM     18  C   UNL     1       9.457  10.423  19.557  0.00  0.00    +0.000 A 
ATOM     19  C   UNL     1       9.760  11.170  18.418  0.00  0.00    +0.000 A 
ATOM     20  C   UNL     1      10.145  12.520  18.511  0.00  0.00    +0.000 A 
ATOM     21  C   UNL     1      10.396  13.293  17.247  0.00  0.00    +0.000 C 
ENDBRANCH  11  15
BRANCH   1  25
ATOM     22  N   UNL     1       0.945  16.478  19.913  0.00  0.00    +0.000 NA
ATOM     23  C   UNL     1       1.670  16.140  18.686  0.00  0.00    +0.000 C 
ATOM     24  C   UNL     1       2.186  14.711  18.794  0.00  0.00    +0.000 C 
ATOM     25  C   UNL     1       3.311  14.633  19.852  0.00  0.00    +0.000 C 
ATOM     26  C   UNL     1       2.640  15.080  21.171  0.00  0.00    +0.000 C 
ATOM     27  C   UNL     1       1.837  16.386  21.088  0.00  0.00    +0.000 C 
BRANCH  22  29
ATOM     28  C   UNL     1       0.679  18.621  18.600  0.00  0.00    +0.000 C 
ATOM     29  C   UNL     1       0.325  17.814  19.849  0.00  0.00    +0.000 C 
ENDBRANCH  22  29
ENDBRANCH   1  25
TORSDOF 3
ENDMDL
MODEL 2
REMARK VINA RESULT:      -6.3      0.491      1.346
REMARK  Name = 
REMARK  5 active torsions:
REMARK  status: ('A' for Active; 'I' for Inactive)
REMARK    1  A    between atoms: C_1  and  C_2
REMARK    2  A    between atoms: C_2  and  N_3
REMARK    3  A    between atoms: C_6  and  N_7
REMARK    4  A    between atoms: C_17  and  C_19
REMARK    5  A    between atoms: C_24  and  C_25
REMARK                            x       y       z     vdW  Elec       q    Type
REMARK                         _______ _______ _______ _____ _____    ______ ____
ROOT
ATOM      1  N   UNL     1       4.535  15.238  19.386  0.00  0.00    +0.000 NA
ATOM      2  C   UNL     1       4.860  14.541  18.099  0.00  0.00    +0.000 C 
ATOM      3  C   UNL     1       6.265  14.616  17.520  0.00  0.00    +0.000 C 
ATOM      4  O   UNL     1       7.263  14.615  18.513  0.00  0.00    +0.000 OA
ATOM      5  C   UNL     1       7.109  15.599  19.539  0.00  0.00    +0.000 C 
ATOM      6  C   UNL     1       7.114  17.037  18.955  0.00  0.00    +0.000 C 
ATOM      7  O   UNL     1       8.351  17.435  18.339  0.00  0.00    +0.000 OA
ATOM      8  C   UNL     1       9.303  17.946  19.264  0.00  0.00    +0.000 C 
ATOM      9  C   UNL     1      10.246  16.870  19.817  0.00  0.00    +0.000 C 
ATOM     10  N   UNL     1       9.693  15.520  19.928  0.00  0.00    +0.000 N 
ATOM     11  C   UNL     1      10.668  14.487  19.871  0.00  0.00    +0.000 C 
ATOM     12  O   UNL     1      11.869  14.715  19.954  0.00  0.00    +0.000 OA
ATOM     13  C   UNL     1       8.325  15.371  20.508  0.00  0.00    +0.000 C 
ATOM     14  C   UNL     1       5.736  15.257  20.271  0.00  0.00    +0.000 C 
ENDROOT
BRANCH  11  15
ATOM     15  C   UNL     1      10.243  13.081  19.628  0.00  0.00    +0.000 A 
ATOM     16  C   UNL     1      10.488  12.550  18.359  0.00  0.00    +0.000 A 
ATOM     17  C   UNL     1      10.036  11.283  17.996  0.00  0.00    +0.000 A 
ATOM     18  C   UNL     1       9.449  10.472  18.960  0.00  0.00    +0.000 A 
ATOM     19  C   UNL     1       9.352  10.926  20.275  0.00  0.00    +0.000 A 
ATOM     20  C   UNL     1       9.753  12.226  20.631  0.00  0.00    +0.000 A 
ATOM     21  C   UNL     1       9.687  12.639  22.074  0.00  0.00    +0.000 C 
ENDBRANCH  11  15
BRANCH   1  25
ATOM     22  N   UNL     1       0.835  16.231  19.712  0.00  0.00    +0.000 NA
ATOM     23  C   UNL     1       1.631  15.807  18.558  0.00  0.00    +0.000 C 
ATOM     24  C   UNL     1       2.230  14.436  18.846  0.00  0.00    +0.000 C 
ATOM     25  C   UNL     1       3.311  14.552  19.945  0.00  0.00    +0.000 C 
ATOM     26  C   UNL     1       2.558  15.096  21.180  0.00  0.00    +0.000 C 
ATOM     27  C   UNL     1       1.680  16.329  20.921  0.00  0.00    +0.000 C 
BRANCH  22  29
ATOM     28  C   UNL     1      -0.797  17.505  18.263  0.00  0.00    +0.000 C 
ATOM     29  C   UNL     1       0.135  17.507  19.475  0.00  0.00    +0.000 C 
ENDBRANCH  22  29
ENDBRANCH   1  25
TORSDOF 3
ENDMDL
MODEL 3
REMARK VINA RESULT:      -6.2      1.015      1.417
REMARK  Name = 
REMARK  5 active torsions:
REMARK  status: ('A' for Active; 'I' for Inactive)
REMARK    1  A    between atoms: C_1  and  C_2
REMARK    2  A    between atoms: C_2  and  N_3
REMARK    3  A    between atoms: C_6  and  N_7
REMARK    4  A    between atoms: C_17  and  C_19
REMARK    5  A    between atoms: C_24  and  C_25
REMARK                            x       y       z     vdW  Elec       q    Type
REMARK                         _______ _______ _______ _____ _____    ______ ____
ROOT
ATOM      1  N   UNL     1       4.834  15.531  19.187  0.00  0.00    +0.000 NA
ATOM      2  C   UNL     1       5.136  14.745  17.947  0.00  0.00    +0.000 C 
ATOM      3  C   UNL     1       6.554  14.695  17.397  0.00  0.00    +0.000 C 
ATOM      4  O   UNL     1       7.530  14.682  18.411  0.00  0.00    +0.000 OA
ATOM      5  C   UNL     1       7.423  15.728  19.379  0.00  0.00    +0.000 C 
ATOM      6  C   UNL     1       7.536  17.129  18.721  0.00  0.00    +0.000 C 
ATOM      7  O   UNL     1       8.809  17.410  18.113  0.00  0.00    +0.000 OA
ATOM      8  C   UNL     1       9.775  17.906  19.031  0.00  0.00    +0.000 C 
ATOM      9  C   UNL     1      10.632  16.801  19.662  0.00  0.00    +0.000 C 
ATOM     10  N   UNL     1       9.987  15.499  19.832  0.00  0.00    +0.000 N 
ATOM     11  C   UNL     1      10.891  14.402  19.852  0.00  0.00    +0.000 C 
ATOM     12  O   UNL     1      12.103  14.555  19.950  0.00  0.00    +0.000 OA
ATOM     13  C   UNL     1       8.601  15.473  20.387  0.00  0.00    +0.000 C 
ATOM     14  C   UNL     1       6.016  15.519  20.097  0.00  0.00    +0.000 C 
ENDROOT
BRANCH  11  15
ATOM     15  C   UNL     1      10.377  13.016  19.674  0.00  0.00    +0.000 A 
ATOM     16  C   UNL     1       9.895  12.363  20.810  0.00  0.00    +0.000 A 
ATOM     17  C   UNL     1       9.491  11.031  20.772  0.00  0.00    +0.000 A 
ATOM     18  C   UNL     1       9.435  10.375  19.549  0.00  0.00    +0.000 A 
ATOM     19  C   UNL     1       9.752  11.068  18.381  0.00  0.00    +0.000 A 
ATOM     20  C   UNL     1      10.217  12.395  18.422  0.00  0.00    +0.000 A 
ATOM     21  C   UNL     1      10.482  13.114  17.130  0.00  0.00    +0.000 C 
ENDBRANCH  11  15
BRANCH   1  25
ATOM     22  N   UNL     1       2.296  16.749  21.806  0.00  0.00    +0.000 NA
ATOM     23  C   UNL     1       2.539  17.160  20.421  0.00  0.00    +0.000 C 
ATOM     24  C   UNL     1       2.391  15.947  19.512  0.00  0.00    +0.000 C 
ATOM     25  C   UNL     1       3.555  14.959  19.754  0.00  0.00    +0.000 C 
ATOM     26  C   UNL     1       3.425  14.555  21.240  0.00  0.00    +0.000 C 
ATOM     27  C   UNL     1       3.273  15.723  22.225  0.00  0.00    +0.000 C 
BRANCH  22  29
ATOM     28  C   UNL     1       3.655  18.631  22.806  0.00  0.00    +0.000 C 
ATOM     29  C   UNL     1       2.320  17.888  22.742  0.00  0.00    +0.000 C 
ENDBRANCH  22  29
ENDBRANCH   1  25
TORSDOF 3
ENDMDL
MODEL 4
REMARK VINA RESULT:      -6.0      7.457     12.647
REMARK  Name = 
REMARK  5 active torsions:
REMARK  status: ('A' for Active; 'I' for Inactive)
REMARK    1  A    between atoms: C_1  and  C_2
REMARK    2  A    between atoms: C_2  and  N_3
REMARK    3  A    between atoms: C_6  and  N_7
REMARK    4  A    between atoms: C_17  and  C_19
REMARK    5  A    between atoms: C_24  and  C_25
REMARK                            x       y       z     vdW  Elec       q    Type
REMARK                         _______ _______ _______ _____ _____    ______ ____
ROOT
ATOM      1  N   UNL     1      -1.144  14.265  20.439  0.00  0.00    +0.000 NA
ATOM      2  C   UNL     1      -1.295  12.957  19.723  0.00  0.00    +0.000 C 
ATOM      3  C   UNL     1      -2.303  11.928  20.212  0.00  0.00    +0.000 C 
ATOM      4  O   UNL     1      -3.478  12.515  20.718  0.00  0.00    +0.000 OA
ATOM      5  C   UNL     1      -3.282  13.515  21.721  0.00  0.00    +0.000 C 
ATOM      6  C   UNL     1      -2.544  12.942  22.961  0.00  0.00    +0.000 C 
ATOM      7  O   UNL     1      -3.269  11.930  23.681  0.00  0.00    +0.000 OA
ATOM      8  C   UNL     1      -4.184  12.461  24.632  0.00  0.00    +0.000 C 
ATOM      9  C   UNL     1      -5.593  12.672  24.062  0.00  0.00    +0.000 C 
ATOM     10  N   UNL     1      -5.674  12.989  22.636  0.00  0.00    +0.000 N 
ATOM     11  C   UNL     1      -6.903  12.615  22.027  0.00  0.00    +0.000 C 
ATOM     12  O   UNL     1      -7.881  12.275  22.682  0.00  0.00    +0.000 OA
ATOM     13  C   UNL     1      -4.727  14.008  22.092  0.00  0.00    +0.000 C 
ATOM     14  C   UNL     1      -2.453  14.681  21.020  0.00  0.00    +0.000 C 
ENDROOT
BRANCH  11  15
ATOM     15  C   UNL     1      -7.006  12.557  20.542  0.00  0.00    +0.000 A 
ATOM     16  C   UNL     1      -6.826  11.310  19.938  0.00  0.00    +0.000 A 
ATOM     17  C   UNL     1      -6.798  11.166  18.554  0.00  0.00    +0.000 A 
ATOM     18  C   UNL     1      -7.092  12.262  17.752  0.00  0.00    +0.000 A 
ATOM     19  C   UNL     1      -7.442  13.475  18.346  0.00  0.00    +0.000 A 
ATOM     20  C   UNL     1      -7.413  13.640  19.743  0.00  0.00    +0.000 A 
ATOM     21  C   UNL     1      -7.861  14.947  20.331  0.00  0.00    +0.000 C 
ENDBRANCH  11  15
BRANCH   1  25
ATOM     22  N   UNL     1       2.331  15.877  20.101  0.00  0.00    +0.000 NA
ATOM     23  C   UNL     1       1.858  14.517  19.832  0.00  0.00    +0.000 C 
ATOM     24  C   UNL     1       0.728  14.579  18.812  0.00  0.00    +0.000 C 
ATOM     25  C   UNL     1      -0.524  15.224  19.449  0.00  0.00    +0.000 C 
ATOM     26  C   UNL     1      -0.069  16.644  19.857  0.00  0.00    +0.000 C 
ATOM     27  C   UNL     1       1.242  16.707  20.654  0.00  0.00    +0.000 C 
BRANCH  22  29
ATOM     28  C   UNL     1       4.779  15.324  20.402  0.00  0.00    +0.000 C 
ATOM     29  C   UNL     1       3.496  15.897  21.005  0.00  0.00    +0.000 C 
ENDBRANCH  22  29
ENDBRANCH   1  25
TORSDOF 3
ENDMDL
MODEL 5
REMARK VINA RESULT:      -6.0      1.916      3.790
REMARK  Name = 
REMARK  5 active torsions:
REMARK  status: ('A' for Active; 'I' for Inactive)
REMARK    1  A    between atoms: C_1  and  C_2
REMARK    2  A    between atoms: C_2  and  N_3
REMARK    3  A    between atoms: C_6  and  N_7
REMARK    4  A    between atoms: C_17  and  C_19
REMARK    5  A    between atoms: C_24  and  C_25
REMARK                            x       y       z     vdW  Elec       q    Type
REMARK                         _______ _______ _______ _____ _____    ______ ____
ROOT
ATOM      1  N   UNL     1       5.282  16.005  19.772  0.00  0.00    +0.000 NA
ATOM      2  C   UNL     1       6.070  17.196  20.232  0.00  0.00    +0.000 C 
ATOM      3  C   UNL     1       7.433  17.009  20.880  0.00  0.00    +0.000 C 
ATOM      4  O   UNL     1       8.162  15.944  20.317  0.00  0.00    +0.000 OA
ATOM      5  C   UNL     1       7.475  14.691  20.265  0.00  0.00    +0.000 C 
ATOM      6  C   UNL     1       7.067  14.204  21.681  0.00  0.00    +0.000 C 
ATOM      7  O   UNL     1       8.167  13.908  22.558  0.00  0.00    +0.000 OA
ATOM      8  C   UNL     1       8.681  12.592  22.395  0.00  0.00    +0.000 C 
ATOM      9  C   UNL     1       9.830  12.514  21.381  0.00  0.00    +0.000 C 
ATOM     10  N   UNL     1       9.793  13.481  20.284  0.00  0.00    +0.000 N 
ATOM     11  C   UNL     1      11.068  13.784  19.734  0.00  0.00    +0.000 C 
ATOM     12  O   UNL     1      12.067  13.126  19.997  0.00  0.00    +0.000 OA
ATOM     13  C   UNL     1       8.489  13.699  19.589  0.00  0.00    +0.000 C 
ATOM     14  C   UNL     1       6.209  14.925  19.327  0.00  0.00    +0.000 C 
ENDROOT
BRANCH  11  15
ATOM     15  C   UNL     1      11.234  14.981  18.863  0.00  0.00    +0.000 A 
ATOM     16  C   UNL     1      11.549  16.189  19.491  0.00  0.00    +0.000 A 
ATOM     17  C   UNL     1      11.621  17.385  18.782  0.00  0.00    +0.000 A 
ATOM     18  C   UNL     1      11.514  17.359  17.397  0.00  0.00    +0.000 A 
ATOM     19  C   UNL     1      11.369  16.136  16.741  0.00  0.00    +0.000 A 
ATOM     20  C   UNL     1      11.236  14.933  17.458  0.00  0.00    +0.000 A 
ATOM     21  C   UNL     1      11.147  13.640  16.699  0.00  0.00    +0.000 C 
ENDBRANCH  11  15
BRANCH   1  25
ATOM     22  N   UNL     1       1.602  15.237  18.965  0.00  0.00    +0.000 NA
ATOM     23  C   UNL     1       2.221  16.010  20.044  0.00  0.00    +0.000 C 
ATOM     24  C   UNL     1       3.070  17.119  19.435  0.00  0.00    +0.000 C 
ATOM     25  C   UNL     1       4.308  16.513  18.735  0.00  0.00    +0.000 C 
ATOM     26  C   UNL     1       3.728  15.594  17.636  0.00  0.00    +0.000 C 
ATOM     27  C   UNL     1       2.635  14.623  18.105  0.00  0.00    +0.000 C 
BRANCH  22  29
ATOM     28  C   UNL     1       0.247  13.172  18.429  0.00  0.00    +0.000 C 
ATOM     29  C   UNL     1       0.681  14.203  19.471  0.00  0.00    +0.000 C 
ENDBRANCH  22  29
ENDBRANCH   1  25
TORSDOF 3
ENDMDL
MODEL 6
REMARK VINA RESULT:      -6.0      5.227     10.481
REMARK  Name = 
REMARK  5 active torsions:
REMARK  status: ('A' for Active; 'I' for Inactive)
REMARK    1  A    between atoms: C_1  and  C_2
REMARK    2  A    between atoms: C_2  and  N_3
REMARK    3  A    between atoms: C_6  and  N_7
REMARK    4  A    between atoms: C_17  and  C_19
REMARK    5  A    between atoms: C_24  and  C_25
REMARK                            x       y       z     vdW  Elec       q    Type
REMARK                         _______ _______ _______ _____ _____    ______ ____
ROOT
ATOM      1  N   UNL     1       1.563  14.546  19.512  0.00  0.00    +0.000 NA
ATOM      2  C   UNL     1       0.434  14.384  18.538  0.00  0.00    +0.000 C 
ATOM      3  C   UNL     1      -0.701  13.416  18.835  0.00  0.00    +0.000 C 
ATOM      4  O   UNL     1      -1.030  13.367  20.203  0.00  0.00    +0.000 OA
ATOM      5  C   UNL     1       0.064  13.117  21.089  0.00  0.00    +0.000 C 
ATOM      6  C   UNL     1       0.745  11.756  20.784  0.00  0.00    +0.000 C 
ATOM      7  O   UNL     1      -0.087  10.603  20.998  0.00  0.00    +0.000 OA
ATOM      8  C   UNL     1      -0.089  10.152  22.347  0.00  0.00    +0.000 C 
ATOM      9  C   UNL     1      -1.212  10.773  23.189  0.00  0.00    +0.000 C 
ATOM     10  N   UNL     1      -1.631  12.123  22.814  0.00  0.00    +0.000 N 
ATOM     11  C   UNL     1      -2.970  12.435  23.173  0.00  0.00    +0.000 C 
ATOM     12  O   UNL     1      -3.628  11.727  23.926  0.00  0.00    +0.000 OA
ATOM     13  C   UNL     1      -0.566  13.131  22.529  0.00  0.00    +0.000 C 
ATOM     14  C   UNL     1       1.066  14.341  20.903  0.00  0.00    +0.000 C 
ENDROOT
BRANCH  11  15
ATOM     15  C   UNL     1      -3.642  13.619  22.568  0.00  0.00    +0.000 A 
ATOM     16  C   UNL     1      -4.331  13.418  21.369  0.00  0.00    +0.000 A 
ATOM     17  C   UNL     1      -4.903  14.477  20.668  0.00  0.00    +0.000 A 
ATOM     18  C   UNL     1      -4.910  15.743  21.241  0.00  0.00    +0.000 A 
ATOM     19  C   UNL     1      -4.376  15.924  22.516  0.00  0.00    +0.000 A 
ATOM     20  C   UNL     1      -3.744  14.870  23.201  0.00  0.00    +0.000 A 
ATOM     21  C   UNL     1      -3.244  15.106  24.598  0.00  0.00    +0.000 C 
ENDBRANCH  11  15
BRANCH   1  25
ATOM     22  N   UNL     1       5.157  15.735  18.840  0.00  0.00    +0.000 NA
ATOM     23  C   UNL     1       4.199  15.010  18.003  0.00  0.00    +0.000 C 
ATOM     24  C   UNL     1       2.930  15.842  17.869  0.00  0.00    +0.000 C 
ATOM     25  C   UNL     1       2.185  15.893  19.222  0.00  0.00    +0.000 C 
ATOM     26  C   UNL     1       3.183  16.561  20.195  0.00  0.00    +0.000 C 
ATOM     27  C   UNL     1       4.600  15.967  20.189  0.00  0.00    +0.000 C 
BRANCH  22  29
ATOM     28  C   UNL     1       6.891  14.326  17.660  0.00  0.00    +0.000 C 
ATOM     29  C   UNL     1       6.455  15.043  18.938  0.00  0.00    +0.000 C 
ENDBRANCH  22  29
ENDBRANCH   1  25
TORSDOF 3
ENDMDL
MODEL 7
REMARK VINA RESULT:      -6.0      7.296     12.414
REMARK  Name = 
REMARK  5 active torsions:
REMARK  status: ('A' for Active; 'I' for Inactive)
REMARK    1  A    between atoms: C_1  and  C_2
REMARK    2  A    between atoms: C_2  and  N_3
REMARK    3  A    between atoms: C_6  and  N_7
REMARK    4  A    between atoms: C_17  and  C_19
REMARK    5  A    between atoms: C_24  and  C_25
REMARK                            x       y       z     vdW  Elec       q    Type
REMARK                         _______ _______ _______ _____ _____    ______ ____
ROOT
ATOM      1  N   UNL     1      -0.900  14.158  19.907  0.00  0.00    +0.000 NA
ATOM      2  C   UNL     1      -1.132  12.830  19.250  0.00  0.00    +0.000 C 
ATOM      3  C   UNL     1      -2.153  11.859  19.823  0.00  0.00    +0.000 C 
ATOM      4  O   UNL     1      -3.281  12.508  20.358  0.00  0.00    +0.000 OA
ATOM      5  C   UNL     1      -3.003  13.537  21.312  0.00  0.00    +0.000 C 
ATOM      6  C   UNL     1      -2.230  12.983  22.538  0.00  0.00    +0.000 C 
ATOM      7  O   UNL     1      -2.957  12.026  23.329  0.00  0.00    +0.000 OA
ATOM      8  C   UNL     1      -3.807  12.626  24.299  0.00  0.00    +0.000 C 
ATOM      9  C   UNL     1      -5.232  12.869  23.785  0.00  0.00    +0.000 C 
ATOM     10  N   UNL     1      -5.368  13.137  22.352  0.00  0.00    +0.000 N 
ATOM     11  C   UNL     1      -6.636  12.788  21.814  0.00  0.00    +0.000 C 
ATOM     12  O   UNL     1      -7.594  12.509  22.525  0.00  0.00    +0.000 OA
ATOM     13  C   UNL     1      -4.410  14.098  21.728  0.00  0.00    +0.000 C 
ATOM     14  C   UNL     1      -2.166  14.644  20.530  0.00  0.00    +0.000 C 
ENDROOT
BRANCH  11  15
ATOM     15  C   UNL     1      -6.809  12.678  20.339  0.00  0.00    +0.000 A 
ATOM     16  C   UNL     1      -6.593  11.424  19.762  0.00  0.00    +0.000 A 
ATOM     17  C   UNL     1      -6.626  11.239  18.382  0.00  0.00    +0.000 A 
ATOM     18  C   UNL     1      -7.019  12.293  17.566  0.00  0.00    +0.000 A 
ATOM     19  C   UNL     1      -7.403  13.504  18.143  0.00  0.00    +0.000 A 
ATOM     20  C   UNL     1      -7.314  13.713  19.532  0.00  0.00    +0.000 A 
ATOM     21  C   UNL     1      -7.802  15.013  20.105  0.00  0.00    +0.000 C 
ENDBRANCH  11  15
BRANCH   1  25
ATOM     22  N   UNL     1       1.634  17.048  20.003  0.00  0.00    +0.000 NA
ATOM     23  C   UNL     1       1.805  15.599  20.131  0.00  0.00    +0.000 C 
ATOM     24  C   UNL     1       1.247  14.924  18.884  0.00  0.00    +0.000 C 
ATOM     25  C   UNL     1      -0.293  15.055  18.854  0.00  0.00    +0.000 C 
ATOM     26  C   UNL     1      -0.556  16.577  18.823  0.00  0.00    +0.000 C 
ATOM     27  C   UNL     1       0.203  17.395  19.877  0.00  0.00    +0.000 C 
BRANCH  22  29
ATOM     28  C   UNL     1       2.266  17.021  22.450  0.00  0.00    +0.000 C 
ATOM     29  C   UNL     1       2.240  17.786  21.126  0.00  0.00    +0.000 C 
ENDBRANCH  22  29
ENDBRANCH   1  25
TORSDOF 3
ENDMDL
MODEL 8
REMARK VINA RESULT:      -5.8      3.793      5.578
REMARK  Name = 
REMARK  5 active torsions:
REMARK  status: ('A' for Active; 'I' for Inactive)
REMARK    1  A    between atoms: C_1  and  C_2
REMARK    2  A    between atoms: C_2  and  N_3
REMARK    3  A    between atoms: C_6  and  N_7
REMARK    4  A    between atoms: C_17  and  C_19
REMARK    5  A    between atoms: C_24  and  C_25
REMARK                            x       y       z     vdW  Elec       q    Type
REMARK                         _______ _______ _______ _____ _____    ______ ____
ROOT
ATOM      1  N   UNL     1       6.922  14.393  23.583  0.00  0.00    +0.000 NA
ATOM      2  C   UNL     1       6.082  14.245  22.351  0.00  0.00    +0.000 C 
ATOM      3  C   UNL     1       6.587  14.761  21.012  0.00  0.00    +0.000 C 
ATOM      4  O   UNL     1       7.977  14.599  20.856  0.00  0.00    +0.000 OA
ATOM      5  C   UNL     1       8.779  15.131  21.914  0.00  0.00    +0.000 C 
ATOM      6  C   UNL     1       8.561  16.659  22.082  0.00  0.00    +0.000 C 
ATOM      7  O   UNL     1       8.976  17.456  20.959  0.00  0.00    +0.000 OA
ATOM      8  C   UNL     1      10.360  17.782  20.979  0.00  0.00    +0.000 C 
ATOM      9  C   UNL     1      11.231  16.767  20.227  0.00  0.00    +0.000 C 
ATOM     10  N   UNL     1      10.753  15.384  20.218  0.00  0.00    +0.000 N 
ATOM     11  C   UNL     1      11.199  14.623  19.104  0.00  0.00    +0.000 C 
ATOM     12  O   UNL     1      12.083  15.019  18.353  0.00  0.00    +0.000 OA
ATOM     13  C   UNL     1      10.261  14.807  21.505  0.00  0.00    +0.000 C 
ATOM     14  C   UNL     1       8.368  14.323  23.224  0.00  0.00    +0.000 C 
ENDROOT
BRANCH  11  15
ATOM     15  C   UNL     1      10.534  13.332  18.775  0.00  0.00    +0.000 A 
ATOM     16  C   UNL     1       9.441  13.379  17.906  0.00  0.00    +0.000 A 
ATOM     17  C   UNL     1       8.686  12.245  17.618  0.00  0.00    +0.000 A 
ATOM     18  C   UNL     1       9.109  11.010  18.095  0.00  0.00    +0.000 A 
ATOM     19  C   UNL     1      10.295  10.924  18.824  0.00  0.00    +0.000 A 
ATOM     20  C   UNL     1      11.028  12.075  19.167  0.00  0.00    +0.000 A 
ATOM     21  C   UNL     1      12.332  11.917  19.897  0.00  0.00    +0.000 C 
ENDBRANCH  11  15
BRANCH   1  25
ATOM     22  N   UNL     1       7.252  13.940  27.388  0.00  0.00    +0.000 NA
ATOM     23  C   UNL     1       6.432  14.848  26.583  0.00  0.00    +0.000 C 
ATOM     24  C   UNL     1       5.557  14.025  25.645  0.00  0.00    +0.000 C 
ATOM     25  C   UNL     1       6.431  13.352  24.562  0.00  0.00    +0.000 C 
ATOM     26  C   UNL     1       7.403  12.444  25.350  0.00  0.00    +0.000 C 
ATOM     27  C   UNL     1       8.127  13.123  26.522  0.00  0.00    +0.000 C 
BRANCH  22  29
ATOM     28  C   UNL     1       9.569  14.510  28.221  0.00  0.00    +0.000 C 
ATOM     29  C   UNL     1       8.057  14.654  28.396  0.00  0.00    +0.000 C 
ENDBRANCH  22  29
ENDBRANCH   1  25
TORSDOF 3
ENDMDL
MODEL 9
REMARK VINA RESULT:      -5.8      7.754     12.901
REMARK  Name = 
REMARK  5 active torsions:
REMARK  status: ('A' for Active; 'I' for Inactive)
REMARK    1  A    between atoms: C_1  and  C_2
REMARK    2  A    between atoms: C_2  and  N_3
REMARK    3  A    between atoms: C_6  and  N_7
REMARK    4  A    between atoms: C_17  and  C_19
REMARK    5  A    between atoms: C_24  and  C_25
REMARK                            x       y       z     vdW  Elec       q    Type
REMARK                         _______ _______ _______ _____ _____    ______ ____
ROOT
ATOM      1  N   UNL     1      -1.258  12.320  21.663  0.00  0.00    +0.000 NA
ATOM      2  C   UNL     1      -1.908  11.641  22.831  0.00  0.00    +0.000 C 
ATOM      3  C   UNL     1      -3.108  12.277  23.517  0.00  0.00    +0.000 C 
ATOM      4  O   UNL     1      -3.959  12.944  22.616  0.00  0.00    +0.000 OA
ATOM      5  C   UNL     1      -3.323  13.902  21.767  0.00  0.00    +0.000 C 
ATOM      6  C   UNL     1      -2.636  15.026  22.588  0.00  0.00    +0.000 C 
ATOM      7  O   UNL     1      -3.532  15.849  23.354  0.00  0.00    +0.000 OA
ATOM      8  C   UNL     1      -4.094  16.919  22.605  0.00  0.00    +0.000 C 
ATOM      9  C   UNL     1      -5.432  16.558  21.946  0.00  0.00    +0.000 C 
ATOM     10  N   UNL     1      -5.608  15.157  21.562  0.00  0.00    +0.000 N 
ATOM     11  C   UNL     1      -6.964  14.735  21.513  0.00  0.00    +0.000 C 
ATOM     12  O   UNL     1      -7.898  15.526  21.561  0.00  0.00    +0.000 OA
ATOM     13  C   UNL     1      -4.476  14.476  20.866  0.00  0.00    +0.000 C 
ATOM     14  C   UNL     1      -2.278  13.083  20.887  0.00  0.00    +0.000 C 
ENDROOT
BRANCH  11  15
ATOM     15  C   UNL     1      -7.286  13.281  21.478  0.00  0.00    +0.000 A 
ATOM     16  C   UNL     1      -7.156  12.627  20.250  0.00  0.00    +0.000 A 
ATOM     17  C   UNL     1      -7.532  11.297  20.086  0.00  0.00    +0.000 A 
ATOM     18  C   UNL     1      -7.917  10.560  21.199  0.00  0.00    +0.000 A 
ATOM     19  C   UNL     1      -7.888  11.153  22.462  0.00  0.00    +0.000 A 
ATOM     20  C   UNL     1      -7.566  12.513  22.622  0.00  0.00    +0.000 A 
ATOM     21  C   UNL     1      -7.487  13.083  24.010  0.00  0.00    +0.000 C 
ENDBRANCH  11  15
BRANCH   1  25
ATOM     22  N   UNL     1       1.514  12.367  18.999  0.00  0.00    +0.000 NA
ATOM     23  C   UNL     1       1.548  12.609  20.444  0.00  0.00    +0.000 C 
ATOM     24  C   UNL     1       1.004  11.381  21.163  0.00  0.00    +0.000 C 
ATOM     25  C   UNL     1      -0.514  11.246  20.904  0.00  0.00    +0.000 C 
ATOM     26  C   UNL     1      -0.639  11.089  19.372  0.00  0.00    +0.000 C 
ATOM     27  C   UNL     1       0.130  12.127  18.543  0.00  0.00    +0.000 C 
BRANCH  22  29
ATOM     28  C   UNL     1       3.231  14.222  18.965  0.00  0.00    +0.000 C 
ATOM     29  C   UNL     1       2.120  13.470  18.231  0.00  0.00    +0.000 C 
ENDBRANCH  22  29
ENDBRANCH   1  25
TORSDOF 3
ENDMDL
