MODEL 1
REMARK VINA RESULT:      -6.1      0.000      0.000
REMARK  Name = 
REMARK  10 active torsions:
REMARK  status: ('A' for Active; 'I' for Inactive)
REMARK    1  A    between atoms: C_1  and  O_2
REMARK    2  A    between atoms: O_2  and  C_3
REMARK    3  A    between atoms: C_6  and  C_7
REMARK    4  A    between atoms: C_7  and  C_9
REMARK    5  A    between atoms: C_9  and  C_10
REMARK    6  A    between atoms: C_10  and  N_11
REMARK    7  A    between atoms: N_11  and  C_12
REMARK    8  A    between atoms: N_11  and  C_13
REMARK    9  A    between atoms: C_15  and  O_16
REMARK   10  A    between atoms: O_16  and  C_17
REMARK                            x       y       z     vdW  Elec       q    Type
REMARK                         _______ _______ _______ _____ _____    ______ ____
ROOT
ATOM      1  C   UNL     1       6.656   5.948  17.120  0.00  0.00    +0.000 A 
ATOM      2  C   UNL     1       6.225   5.669  18.425  0.00  0.00    +0.000 A 
ATOM      3  C   UNL     1       5.175   4.783  18.663  0.00  0.00    +0.000 A 
ATOM      4  C   UNL     1       4.504   4.198  17.590  0.00  0.00    +0.000 A 
ATOM      5  C   UNL     1       4.885   4.530  16.285  0.00  0.00    +0.000 A 
ATOM      6  C   UNL     1       5.949   5.409  16.035  0.00  0.00    +0.000 A 
ENDROOT
BRANCH   1   8
ATOM      7  C   UNL     1       7.730   7.997  17.616  0.00  0.00    +0.000 C 
ATOM      8  O   UNL     1       7.735   6.761  16.900  0.00  0.00    +0.000 OA
ENDBRANCH   1   8
BRANCH   4   9
ATOM      9  C   UNL     1       3.383   3.232  17.781  0.00  0.00    +0.000 C 
ATOM     10  O   UNL     1       3.636   2.038  17.917  0.00  0.00    +0.000 OA
BRANCH   9  11
ATOM     11  C   UNL     1       1.958   3.745  17.824  0.00  0.00    +0.000 C 
BRANCH  11  12
ATOM     12  C   UNL     1       1.274   3.323  19.126  0.00  0.00    +0.000 C 
BRANCH  12  13
ATOM     13  N   UNL     1       2.029   3.665  20.342  0.00  0.00    +0.000 NA
ATOM     14  C   UNL     1       1.885   5.077  20.714  0.00  0.00    +0.000 C 
ATOM     15  C   UNL     1       1.583   2.820  21.452  0.00  0.00    +0.000 C 
ENDBRANCH  12  13
ENDBRANCH  11  12
ENDBRANCH   9  11
ENDBRANCH   4   9
BRANCH   6  16
ATOM     16  O   UNL     1       6.151   5.601  14.695  0.00  0.00    +0.000 OA
ATOM     17  C   UNL     1       6.814   4.596  13.945  0.00  0.00    +0.000 C 
ENDBRANCH   6  16
TORSDOF 6
ENDMDL
MODEL 2
REMARK VINA RESULT:      -6.1      0.728      1.080
REMARK  Name = 
REMARK  10 active torsions:
REMARK  status: ('A' for Active; 'I' for Inactive)
REMARK    1  A    between atoms: C_1  and  O_2
REMARK    2  A    between atoms: O_2  and  C_3
REMARK    3  A    between atoms: C_6  and  C_7
REMARK    4  A    between atoms: C_7  and  C_9
REMARK    5  A    between atoms: C_9  and  C_10
REMARK    6  A    between atoms: C_10  and  N_11
REMARK    7  A    between atoms: N_11  and  C_12
REMARK    8  A    between atoms: N_11  and  C_13
REMARK    9  A    between atoms: C_15  and  O_16
REMARK   10  A    between atoms: O_16  and  C_17
REMARK                            x       y       z     vdW  Elec       q    Type
REMARK                         _______ _______ _______ _____ _____    ______ ____
ROOT
ATOM      1  C   UNL     1       6.574   5.496  17.898  0.00  0.00    +0.000 A 
ATOM      2  C   UNL     1       5.907   5.249  19.106  0.00  0.00    +0.000 A 
ATOM      3  C   UNL     1       4.779   4.430  19.153  0.00  0.00    +0.000 A 
ATOM      4  C   UNL     1       4.272   3.882  17.976  0.00  0.00    +0.000 A 
ATOM      5  C   UNL     1       4.892   4.184  16.758  0.00  0.00    +0.000 A 
ATOM      6  C   UNL     1       6.035   4.996  16.703  0.00  0.00    +0.000 A 
ENDROOT
BRANCH   1   8
ATOM      7  C   UNL     1       7.550   7.625  17.559  0.00  0.00    +0.000 C 
ATOM      8  O   UNL     1       7.721   6.242  17.873  0.00  0.00    +0.000 OA
ENDBRANCH   1   8
BRANCH   4   9
ATOM      9  C   UNL     1       3.077   2.986  17.964  0.00  0.00    +0.000 C 
ATOM     10  O   UNL     1       3.232   1.784  17.770  0.00  0.00    +0.000 OA
BRANCH   9  11
ATOM     11  C   UNL     1       1.703   3.575  18.210  0.00  0.00    +0.000 C 
BRANCH  11  12
ATOM     12  C   UNL     1       0.950   2.758  19.262  0.00  0.00    +0.000 C 
BRANCH  12  13
ATOM     13  N   UNL     1       0.980   3.340  20.613  0.00  0.00    +0.000 NA
ATOM     14  C   UNL     1       1.943   2.668  21.493  0.00  0.00    +0.000 C 
ATOM     15  C   UNL     1       1.307   4.764  20.529  0.00  0.00    +0.000 C 
ENDBRANCH  12  13
ENDBRANCH  11  12
ENDBRANCH   9  11
ENDBRANCH   4   9
BRANCH   6  16
ATOM     16  O   UNL     1       6.478   5.168  15.419  0.00  0.00    +0.000 OA
ATOM     17  C   UNL     1       6.382   4.090  14.503  0.00  0.00    +0.000 C 
ENDBRANCH   6  16
TORSDOF 6
ENDMDL
MODEL 3
REMARK VINA RESULT:      -6.1      1.496      1.617
REMARK  Name = 
REMARK  10 active torsions:
REMARK  status: ('A' for Active; 'I' for Inactive)
REMARK    1  A    between atoms: C_1  and  O_2
REMARK    2  A    between atoms: O_2  and  C_3
REMARK    3  A    between atoms: C_6  and  C_7
REMARK    4  A    between atoms: C_7  and  C_9
REMARK    5  A    between atoms: C_9  and  C_10
REMARK    6  A    between atoms: C_10  and  N_11
REMARK    7  A    between atoms: N_11  and  C_12
REMARK    8  A    between atoms: N_11  and  C_13
REMARK    9  A    between atoms: C_15  and  O_16
REMARK   10  A    between atoms: O_16  and  C_17
REMARK                            x       y       z     vdW  Elec       q    Type
REMARK                         _______ _______ _______ _____ _____    ______ ____
ROOT
ATOM      1  C   UNL     1       6.006   5.907  16.729  0.00  0.00    +0.000 A 
ATOM      2  C   UNL     1       5.011   6.477  17.535  0.00  0.00    +0.000 A 
ATOM      3  C   UNL     1       3.829   5.792  17.814  0.00  0.00    +0.000 A 
ATOM      4  C   UNL     1       3.604   4.538  17.247  0.00  0.00    +0.000 A 
ATOM      5  C   UNL     1       4.563   3.997  16.384  0.00  0.00    +0.000 A 
ATOM      6  C   UNL     1       5.762   4.673  16.108  0.00  0.00    +0.000 A 
ENDROOT
BRANCH   1   8
ATOM      7  C   UNL     1       7.556   7.511  17.517  0.00  0.00    +0.000 C 
ATOM      8  O   UNL     1       7.193   6.556  16.520  0.00  0.00    +0.000 OA
ENDBRANCH   1   8
BRANCH   4   9
ATOM      9  C   UNL     1       2.366   3.750  17.519  0.00  0.00    +0.000 C 
ATOM     10  O   UNL     1       1.272   4.243  17.260  0.00  0.00    +0.000 OA
BRANCH   9  11
ATOM     11  C   UNL     1       2.484   2.353  18.093  0.00  0.00    +0.000 C 
BRANCH  11  12
ATOM     12  C   UNL     1       1.734   2.253  19.423  0.00  0.00    +0.000 C 
BRANCH  12  13
ATOM     13  N   UNL     1       2.569   2.507  20.608  0.00  0.00    +0.000 NA
ATOM     14  C   UNL     1       4.004   2.463  20.305  0.00  0.00    +0.000 C 
ATOM     15  C   UNL     1       2.231   3.812  21.178  0.00  0.00    +0.000 C 
ENDBRANCH  12  13
ENDBRANCH  11  12
ENDBRANCH   9  11
ENDBRANCH   4   9
BRANCH   6  16
ATOM     16  O   UNL     1       6.555   3.972  15.240  0.00  0.00    +0.000 OA
ATOM     17  C   UNL     1       6.193   3.906  13.870  0.00  0.00    +0.000 C 
ENDBRANCH   6  16
TORSDOF 6
ENDMDL
MODEL 4
REMARK VINA RESULT:      -5.9      1.181      2.321
REMARK  Name = 
REMARK  10 active torsions:
REMARK  status: ('A' for Active; 'I' for Inactive)
REMARK    1  A    between atoms: C_1  and  O_2
REMARK    2  A    between atoms: O_2  and  C_3
REMARK    3  A    between atoms: C_6  and  C_7
REMARK    4  A    between atoms: C_7  and  C_9
REMARK    5  A    between atoms: C_9  and  C_10
REMARK    6  A    between atoms: C_10  and  N_11
REMARK    7  A    between atoms: N_11  and  C_12
REMARK    8  A    between atoms: N_11  and  C_13
REMARK    9  A    between atoms: C_15  and  O_16
REMARK   10  A    between atoms: O_16  and  C_17
REMARK                            x       y       z     vdW  Elec       q    Type
REMARK                         _______ _______ _______ _____ _____    ______ ____
ROOT
ATOM      1  C   UNL     1       6.709   6.114  16.978  0.00  0.00    +0.000 A 
ATOM      2  C   UNL     1       5.516   6.211  16.248  0.00  0.00    +0.000 A 
ATOM      3  C   UNL     1       4.429   5.385  16.532  0.00  0.00    +0.000 A 
ATOM      4  C   UNL     1       4.538   4.411  17.524  0.00  0.00    +0.000 A 
ATOM      5  C   UNL     1       5.751   4.264  18.205  0.00  0.00    +0.000 A 
ATOM      6  C   UNL     1       6.846   5.099  17.936  0.00  0.00    +0.000 A 
ENDROOT
BRANCH   1   8
ATOM      7  C   UNL     1       7.732   8.180  17.512  0.00  0.00    +0.000 C 
ATOM      8  O   UNL     1       7.744   6.978  16.741  0.00  0.00    +0.000 OA
ENDBRANCH   1   8
BRANCH   4   9
ATOM      9  C   UNL     1       3.406   3.508  17.882  0.00  0.00    +0.000 C 
ATOM     10  O   UNL     1       3.613   2.304  18.001  0.00  0.00    +0.000 OA
BRANCH   9  11
ATOM     11  C   UNL     1       2.029   4.096  18.112  0.00  0.00    +0.000 C 
BRANCH  11  12
ATOM     12  C   UNL     1       1.191   3.173  18.999  0.00  0.00    +0.000 C 
BRANCH  12  13
ATOM     13  N   UNL     1       0.994   3.668  20.370  0.00  0.00    +0.000 NA
ATOM     14  C   UNL     1       1.549   2.760  21.381  0.00  0.00    +0.000 C 
ATOM     15  C   UNL     1       1.609   4.989  20.510  0.00  0.00    +0.000 C 
ENDBRANCH  12  13
ENDBRANCH  11  12
ENDBRANCH   9  11
ENDBRANCH   4   9
BRANCH   6  16
ATOM     16  O   UNL     1       7.932   4.784  18.708  0.00  0.00    +0.000 OA
ATOM     17  C   UNL     1       8.133   5.469  19.933  0.00  0.00    +0.000 C 
ENDBRANCH   6  16
TORSDOF 6
ENDMDL
MODEL 5
REMARK VINA RESULT:      -5.9      1.012      2.629
REMARK  Name = 
REMARK  10 active torsions:
REMARK  status: ('A' for Active; 'I' for Inactive)
REMARK    1  A    between atoms: C_1  and  O_2
REMARK    2  A    between atoms: O_2  and  C_3
REMARK    3  A    between atoms: C_6  and  C_7
REMARK    4  A    between atoms: C_7  and  C_9
REMARK    5  A    between atoms: C_9  and  C_10
REMARK    6  A    between atoms: C_10  and  N_11
REMARK    7  A    between atoms: N_11  and  C_12
REMARK    8  A    between atoms: N_11  and  C_13
REMARK    9  A    between atoms: C_15  and  O_16
REMARK   10  A    between atoms: O_16  and  C_17
REMARK                            x       y       z     vdW  Elec       q    Type
REMARK                         _______ _______ _______ _____ _____    ______ ____
ROOT
ATOM      1  C   UNL     1       6.867   5.039  15.562  0.00  0.00    +0.000 A 
ATOM      2  C   UNL     1       5.873   4.104  15.238  0.00  0.00    +0.000 A 
ATOM      3  C   UNL     1       4.920   3.712  16.178  0.00  0.00    +0.000 A 
ATOM      4  C   UNL     1       4.979   4.215  17.477  0.00  0.00    +0.000 A 
ATOM      5  C   UNL     1       6.011   5.093  17.823  0.00  0.00    +0.000 A 
ATOM      6  C   UNL     1       6.967   5.504  16.881  0.00  0.00    +0.000 A 
ENDROOT
BRANCH   1   8
ATOM      7  C   UNL     1       7.509   5.006  13.285  0.00  0.00    +0.000 C 
ATOM      8  O   UNL     1       7.752   5.473  14.613  0.00  0.00    +0.000 OA
ENDBRANCH   1   8
BRANCH   4   9
ATOM      9  C   UNL     1       3.979   3.844  18.522  0.00  0.00    +0.000 C 
ATOM     10  O   UNL     1       4.319   3.102  19.440  0.00  0.00    +0.000 OA
BRANCH   9  11
ATOM     11  C   UNL     1       2.574   4.403  18.439  0.00  0.00    +0.000 C 
BRANCH  11  12
ATOM     12  C   UNL     1       1.564   3.402  19.003  0.00  0.00    +0.000 C 
BRANCH  12  13
ATOM     13  N   UNL     1       1.017   3.771  20.318  0.00  0.00    +0.000 NA
ATOM     14  C   UNL     1       1.369   2.806  21.365  0.00  0.00    +0.000 C 
ATOM     15  C   UNL     1       1.500   5.100  20.697  0.00  0.00    +0.000 C 
ENDBRANCH  12  13
ENDBRANCH  11  12
ENDBRANCH   9  11
ENDBRANCH   4   9
BRANCH   6  16
ATOM     16  O   UNL     1       7.889   6.357  17.426  0.00  0.00    +0.000 OA
ATOM     17  C   UNL     1       7.581   7.738  17.523  0.00  0.00    +0.000 C 
ENDBRANCH   6  16
TORSDOF 6
ENDMDL
MODEL 6
REMARK VINA RESULT:      -5.9      1.186      2.752
REMARK  Name = 
REMARK  10 active torsions:
REMARK  status: ('A' for Active; 'I' for Inactive)
REMARK    1  A    between atoms: C_1  and  O_2
REMARK    2  A    between atoms: O_2  and  C_3
REMARK    3  A    between atoms: C_6  and  C_7
REMARK    4  A    between atoms: C_7  and  C_9
REMARK    5  A    between atoms: C_9  and  C_10
REMARK    6  A    between atoms: C_10  and  N_11
REMARK    7  A    between atoms: N_11  and  C_12
REMARK    8  A    between atoms: N_11  and  C_13
REMARK    9  A    between atoms: C_15  and  O_16
REMARK   10  A    between atoms: O_16  and  C_17
REMARK                            x       y       z     vdW  Elec       q    Type
REMARK                         _______ _______ _______ _____ _____    ______ ____
ROOT
ATOM      1  C   UNL     1       6.743   5.090  15.831  0.00  0.00    +0.000 A 
ATOM      2  C   UNL     1       5.773   4.086  15.696  0.00  0.00    +0.000 A 
ATOM      3  C   UNL     1       5.017   3.664  16.789  0.00  0.00    +0.000 A 
ATOM      4  C   UNL     1       5.256   4.209  18.050  0.00  0.00    +0.000 A 
ATOM      5  C   UNL     1       6.271   5.159  18.202  0.00  0.00    +0.000 A 
ATOM      6  C   UNL     1       7.029   5.600  17.106  0.00  0.00    +0.000 A 
ENDROOT
BRANCH   1   8
ATOM      7  C   UNL     1       7.199   4.837  13.523  0.00  0.00    +0.000 C 
ATOM      8  O   UNL     1       7.428   5.550  14.739  0.00  0.00    +0.000 OA
ENDBRANCH   1   8
BRANCH   4   9
ATOM      9  C   UNL     1       4.470   3.808  19.254  0.00  0.00    +0.000 C 
ATOM     10  O   UNL     1       4.758   2.767  19.838  0.00  0.00    +0.000 OA
BRANCH   9  11
ATOM     11  C   UNL     1       3.347   4.700  19.741  0.00  0.00    +0.000 C 
BRANCH  11  12
ATOM     12  C   UNL     1       2.115   4.551  18.846  0.00  0.00    +0.000 C 
BRANCH  12  13
ATOM     13  N   UNL     1       1.065   3.685  19.404  0.00  0.00    +0.000 NA
ATOM     14  C   UNL     1       1.046   2.354  18.788  0.00  0.00    +0.000 C 
ATOM     15  C   UNL     1       1.253   3.552  20.850  0.00  0.00    +0.000 C 
ENDBRANCH  12  13
ENDBRANCH  11  12
ENDBRANCH   9  11
ENDBRANCH   4   9
BRANCH   6  16
ATOM     16  O   UNL     1       7.969   6.525  17.473  0.00  0.00    +0.000 OA
ATOM     17  C   UNL     1       7.601   7.891  17.558  0.00  0.00    +0.000 C 
ENDBRANCH   6  16
TORSDOF 6
ENDMDL
MODEL 7
REMARK VINA RESULT:      -5.8      1.842      3.071
REMARK  Name = 
REMARK  10 active torsions:
REMARK  status: ('A' for Active; 'I' for Inactive)
REMARK    1  A    between atoms: C_1  and  O_2
REMARK    2  A    between atoms: O_2  and  C_3
REMARK    3  A    between atoms: C_6  and  C_7
REMARK    4  A    between atoms: C_7  and  C_9
REMARK    5  A    between atoms: C_9  and  C_10
REMARK    6  A    between atoms: C_10  and  N_11
REMARK    7  A    between atoms: N_11  and  C_12
REMARK    8  A    between atoms: N_11  and  C_13
REMARK    9  A    between atoms: C_15  and  O_16
REMARK   10  A    between atoms: O_16  and  C_17
REMARK                            x       y       z     vdW  Elec       q    Type
REMARK                         _______ _______ _______ _____ _____    ______ ____
ROOT
ATOM      1  C   UNL     1       5.820   5.392  15.879  0.00  0.00    +0.000 A 
ATOM      2  C   UNL     1       4.892   4.365  16.104  0.00  0.00    +0.000 A 
ATOM      3  C   UNL     1       3.890   4.496  17.065  0.00  0.00    +0.000 A 
ATOM      4  C   UNL     1       3.832   5.645  17.853  0.00  0.00    +0.000 A 
ATOM      5  C   UNL     1       4.798   6.642  17.680  0.00  0.00    +0.000 A 
ATOM      6  C   UNL     1       5.803   6.524  16.707  0.00  0.00    +0.000 A 
ENDROOT
BRANCH   1   8
ATOM      7  C   UNL     1       6.543   4.221  13.954  0.00  0.00    +0.000 C 
ATOM      8  O   UNL     1       6.754   5.284  14.884  0.00  0.00    +0.000 OA
ENDBRANCH   1   8
BRANCH   4   9
ATOM      9  C   UNL     1       2.775   5.850  18.886  0.00  0.00    +0.000 C 
ATOM     10  O   UNL     1       2.634   6.961  19.388  0.00  0.00    +0.000 OA
BRANCH   9  11
ATOM     11  C   UNL     1       1.886   4.688  19.282  0.00  0.00    +0.000 C 
BRANCH  11  12
ATOM     12  C   UNL     1       2.452   3.972  20.509  0.00  0.00    +0.000 C 
BRANCH  12  13
ATOM     13  N   UNL     1       2.776   2.554  20.285  0.00  0.00    +0.000 NA
ATOM     14  C   UNL     1       2.042   1.982  19.150  0.00  0.00    +0.000 C 
ATOM     15  C   UNL     1       4.215   2.407  20.060  0.00  0.00    +0.000 C 
ENDBRANCH  12  13
ENDBRANCH  11  12
ENDBRANCH   9  11
ENDBRANCH   4   9
BRANCH   6  16
ATOM     16  O   UNL     1       6.645   7.604  16.708  0.00  0.00    +0.000 OA
ATOM     17  C   UNL     1       7.709   7.650  17.645  0.00  0.00    +0.000 C 
ENDBRANCH   6  16
TORSDOF 6
ENDMDL
MODEL 8
REMARK VINA RESULT:      -5.8      1.591      2.842
REMARK  Name = 
REMARK  10 active torsions:
REMARK  status: ('A' for Active; 'I' for Inactive)
REMARK    1  A    between atoms: C_1  and  O_2
REMARK    2  A    between atoms: O_2  and  C_3
REMARK    3  A    between atoms: C_6  and  C_7
REMARK    4  A    between atoms: C_7  and  C_9
REMARK    5  A    between atoms: C_9  and  C_10
REMARK    6  A    between atoms: C_10  and  N_11
REMARK    7  A    between atoms: N_11  and  C_12
REMARK    8  A    between atoms: N_11  and  C_13
REMARK    9  A    between atoms: C_15  and  O_16
REMARK   10  A    between atoms: O_16  and  C_17
REMARK                            x       y       z     vdW  Elec       q    Type
REMARK                         _______ _______ _______ _____ _____    ______ ____
ROOT
ATOM      1  C   UNL     1       6.574   5.182  15.671  0.00  0.00    +0.000 A 
ATOM      2  C   UNL     1       5.636   4.140  15.714  0.00  0.00    +0.000 A 
ATOM      3  C   UNL     1       4.552   4.183  16.590  0.00  0.00    +0.000 A 
ATOM      4  C   UNL     1       4.417   5.252  17.475  0.00  0.00    +0.000 A 
ATOM      5  C   UNL     1       5.390   6.258  17.484  0.00  0.00    +0.000 A 
ATOM      6  C   UNL     1       6.477   6.230  16.598  0.00  0.00    +0.000 A 
ENDROOT
BRANCH   1   8
ATOM      7  C   UNL     1       7.221   4.809  13.426  0.00  0.00    +0.000 C 
ATOM      8  O   UNL     1       7.594   5.166  14.758  0.00  0.00    +0.000 OA
ENDBRANCH   1   8
BRANCH   4   9
ATOM      9  C   UNL     1       3.271   5.360  18.425  0.00  0.00    +0.000 C 
ATOM     10  O   UNL     1       3.309   6.205  19.315  0.00  0.00    +0.000 OA
BRANCH   9  11
ATOM     11  C   UNL     1       2.079   4.441  18.261  0.00  0.00    +0.000 C 
BRANCH  11  12
ATOM     12  C   UNL     1       2.324   3.110  18.974  0.00  0.00    +0.000 C 
BRANCH  12  13
ATOM     13  N   UNL     1       3.122   3.223  20.206  0.00  0.00    +0.000 NA
ATOM     14  C   UNL     1       2.333   2.958  21.413  0.00  0.00    +0.000 C 
ATOM     15  C   UNL     1       4.252   2.294  20.147  0.00  0.00    +0.000 C 
ENDBRANCH  12  13
ENDBRANCH  11  12
ENDBRANCH   9  11
ENDBRANCH   4   9
BRANCH   6  16
ATOM     16  O   UNL     1       7.310   7.302  16.776  0.00  0.00    +0.000 OA
ATOM     17  C   UNL     1       7.849   7.553  18.063  0.00  0.00    +0.000 C 
ENDBRANCH   6  16
TORSDOF 6
ENDMDL
MODEL 9
REMARK VINA RESULT:      -5.8      1.680      3.047
REMARK  Name = 
REMARK  10 active torsions:
REMARK  status: ('A' for Active; 'I' for Inactive)
REMARK    1  A    between atoms: C_1  and  O_2
REMARK    2  A    between atoms: O_2  and  C_3
REMARK    3  A    between atoms: C_6  and  C_7
REMARK    4  A    between atoms: C_7  and  C_9
REMARK    5  A    between atoms: C_9  and  C_10
REMARK    6  A    between atoms: C_10  and  N_11
REMARK    7  A    between atoms: N_11  and  C_12
REMARK    8  A    between atoms: N_11  and  C_13
REMARK    9  A    between atoms: C_15  and  O_16
REMARK   10  A    between atoms: O_16  and  C_17
REMARK                            x       y       z     vdW  Elec       q    Type
REMARK                         _______ _______ _______ _____ _____    ______ ____
ROOT
ATOM      1  C   UNL     1       5.879   4.397  16.028  0.00  0.00    +0.000 A 
ATOM      2  C   UNL     1       4.728   3.688  16.401  0.00  0.00    +0.000 A 
ATOM      3  C   UNL     1       3.832   4.207  17.334  0.00  0.00    +0.000 A 
ATOM      4  C   UNL     1       4.102   5.430  17.949  0.00  0.00    +0.000 A 
ATOM      5  C   UNL     1       5.284   6.107  17.632  0.00  0.00    +0.000 A 
ATOM      6  C   UNL     1       6.186   5.599  16.684  0.00  0.00    +0.000 A 
ENDROOT
BRANCH   1   8
ATOM      7  C   UNL     1       6.186   3.923  13.730  0.00  0.00    +0.000 C 
ATOM      8  O   UNL     1       6.714   3.913  15.058  0.00  0.00    +0.000 OA
ENDBRANCH   1   8
BRANCH   4   9
ATOM      9  C   UNL     1       3.174   6.044  18.944  0.00  0.00    +0.000 C 
ATOM     10  O   UNL     1       2.623   7.107  18.674  0.00  0.00    +0.000 OA
BRANCH   9  11
ATOM     11  C   UNL     1       2.917   5.334  20.257  0.00  0.00    +0.000 C 
BRANCH  11  12
ATOM     12  C   UNL     1       1.444   4.938  20.374  0.00  0.00    +0.000 C 
BRANCH  12  13
ATOM     13  N   UNL     1       1.221   3.503  20.615  0.00  0.00    +0.000 NA
ATOM     14  C   UNL     1       0.942   2.762  19.381  0.00  0.00    +0.000 C 
ATOM     15  C   UNL     1       2.394   2.928  21.276  0.00  0.00    +0.000 C 
ENDBRANCH  12  13
ENDBRANCH  11  12
ENDBRANCH   9  11
ENDBRANCH   4   9
BRANCH   6  16
ATOM     16  O   UNL     1       7.276   6.411  16.528  0.00  0.00    +0.000 OA
ATOM     17  C   UNL     1       7.566   7.380  17.523  0.00  0.00    +0.000 C 
ENDBRANCH   6  16
TORSDOF 6
ENDMDL
