MODEL 1
REMARK VINA RESULT:      -7.8      0.000      0.000
REMARK  Name = 
REMARK  3 active torsions:
REMARK  status: ('A' for Active; 'I' for Inactive)
REMARK    1  A    between atoms: C_7  and  S_8
REMARK    2  A    between atoms: S_8  and  N_11
REMARK    3  A    between atoms: N_20  and  C_21
REMARK                            x       y       z     vdW  Elec       q    Type
REMARK                         _______ _______ _______ _____ _____    ______ ____
ROOT
ATOM      1  O   UNL     1       0.620  12.735  19.187  0.00  0.00    +0.000 OA
ATOM      2  C   UNL     1       0.919  11.573  19.049  0.00  0.00    +0.000 C 
ATOM      3  N   UNL     1       1.596  11.015  17.981  0.00  0.00    +0.000 N 
ATOM      4  C   UNL     1       1.918   9.682  18.235  0.00  0.00    +0.000 A 
ATOM      5  C   UNL     1       2.585   8.797  17.417  0.00  0.00    +0.000 A 
ATOM      6  C   UNL     1       2.766   7.490  17.896  0.00  0.00    +0.000 A 
ATOM      7  C   UNL     1       2.297   7.114  19.181  0.00  0.00    +0.000 A 
ATOM      8  C   UNL     1       1.665   8.036  20.015  0.00  0.00    +0.000 A 
ATOM      9  C   UNL     1       1.458   9.293  19.491  0.00  0.00    +0.000 A 
ATOM     10  C   UNL     1       0.658  10.400  20.012  0.00  0.00    +0.000 C 
ATOM     11  N   UNL     1      -0.163  10.230  20.999  0.00  0.00    +0.000 NA
ATOM     12  H   UNL     1       1.863  11.542  17.161  0.00  0.00    +0.000 HD
ENDROOT
BRANCH  11  13
ATOM     13  C   UNL     1      -1.076  11.188  21.444  0.00  0.00    +0.000 A 
ATOM     14  C   UNL     1      -2.027  11.813  20.633  0.00  0.00    +0.000 A 
ATOM     15  C   UNL     1      -2.904  12.767  21.155  0.00  0.00    +0.000 A 
ATOM     16  C   UNL     1      -2.891  13.044  22.518  0.00  0.00    +0.000 A 
ATOM     17 CL   UNL     1      -3.959  14.228  23.161  0.00  0.00    +0.000 Cl
ATOM     18  C   UNL     1      -2.024  12.357  23.361  0.00  0.00    +0.000 A 
ATOM     19  C   UNL     1      -1.119  11.438  22.821  0.00  0.00    +0.000 A 
ENDBRANCH  11  13
BRANCH   7  20
ATOM     20  S   UNL     1       2.587   5.463  19.784  0.00  0.00    +0.000 S 
ATOM     21  O   UNL     1       4.022   5.311  19.897  0.00  0.00    +0.000 OA
ATOM     22  O   UNL     1       1.721   5.244  20.921  0.00  0.00    +0.000 OA
BRANCH  20  23
ATOM     23  N   UNL     1       2.048   4.473  18.505  0.00  0.00    +0.000 NA
ATOM     24  C   UNL     1       1.106   3.349  18.836  0.00  0.00    +0.000 C 
ATOM     25  C   UNL     1       1.829   2.056  19.265  0.00  0.00    +0.000 C 
ATOM     26  O   UNL     1       2.903   1.691  18.387  0.00  0.00    +0.000 OA
ATOM     27  C   UNL     1       3.840   2.770  18.261  0.00  0.00    +0.000 C 
ATOM     28  C   UNL     1       3.141   3.965  17.616  0.00  0.00    +0.000 C 
ENDBRANCH  20  23
ENDBRANCH   7  20
TORSDOF 3
ENDMDL
MODEL 2
REMARK VINA RESULT:      -7.7      0.877      1.042
REMARK  Name = 
REMARK  3 active torsions:
REMARK  status: ('A' for Active; 'I' for Inactive)
REMARK    1  A    between atoms: C_7  and  S_8
REMARK    2  A    between atoms: S_8  and  N_11
REMARK    3  A    between atoms: N_20  and  C_21
REMARK                            x       y       z     vdW  Elec       q    Type
REMARK                         _______ _______ _______ _____ _____    ______ ____
ROOT
ATOM      1  O   UNL     1       1.114  12.451  19.169  0.00  0.00    +0.000 OA
ATOM      2  C   UNL     1       1.303  11.267  19.018  0.00  0.00    +0.000 C 
ATOM      3  N   UNL     1       1.977  10.664  17.974  0.00  0.00    +0.000 N 
ATOM      4  C   UNL     1       2.149   9.300  18.211  0.00  0.00    +0.000 A 
ATOM      5  C   UNL     1       2.767   8.368  17.407  0.00  0.00    +0.000 A 
ATOM      6  C   UNL     1       2.791   7.041  17.863  0.00  0.00    +0.000 A 
ATOM      7  C   UNL     1       2.217   6.689  19.112  0.00  0.00    +0.000 A 
ATOM      8  C   UNL     1       1.637   7.654  19.935  0.00  0.00    +0.000 A 
ATOM      9  C   UNL     1       1.586   8.936  19.432  0.00  0.00    +0.000 A 
ATOM     10  C   UNL     1       0.874  10.108  19.938  0.00  0.00    +0.000 C 
ATOM     11  N   UNL     1      -0.012  10.003  20.876  0.00  0.00    +0.000 NA
ATOM     12  H   UNL     1       2.339  11.177  17.181  0.00  0.00    +0.000 HD
ENDROOT
BRANCH  11  13
ATOM     13  C   UNL     1      -0.847  11.040  21.297  0.00  0.00    +0.000 A 
ATOM     14  C   UNL     1      -1.738  11.726  20.468  0.00  0.00    +0.000 A 
ATOM     15  C   UNL     1      -2.538  12.757  20.966  0.00  0.00    +0.000 A 
ATOM     16  C   UNL     1      -2.512  13.057  22.323  0.00  0.00    +0.000 A 
ATOM     17 CL   UNL     1      -3.485  14.335  22.936  0.00  0.00    +0.000 Cl
ATOM     18  C   UNL     1      -1.709  12.318  23.186  0.00  0.00    +0.000 A 
ATOM     19  C   UNL     1      -0.879  11.318  22.669  0.00  0.00    +0.000 A 
ENDBRANCH  11  13
BRANCH   7  20
ATOM     20  S   UNL     1       2.307   5.006  19.689  0.00  0.00    +0.000 S 
ATOM     21  O   UNL     1       2.840   5.059  21.033  0.00  0.00    +0.000 OA
ATOM     22  O   UNL     1       1.038   4.371  19.414  0.00  0.00    +0.000 OA
BRANCH  20  23
ATOM     23  N   UNL     1       3.485   4.303  18.678  0.00  0.00    +0.000 NA
ATOM     24  C   UNL     1       3.011   3.461  17.526  0.00  0.00    +0.000 C 
ATOM     25  C   UNL     1       2.754   1.990  17.912  0.00  0.00    +0.000 C 
ATOM     26  O   UNL     1       3.826   1.410  18.670  0.00  0.00    +0.000 OA
ATOM     27  C   UNL     1       4.099   2.194  19.839  0.00  0.00    +0.000 C 
ATOM     28  C   UNL     1       4.575   3.581  19.410  0.00  0.00    +0.000 C 
ENDBRANCH  20  23
ENDBRANCH   7  20
TORSDOF 3
ENDMDL
MODEL 3
REMARK VINA RESULT:      -7.5      3.048      4.364
REMARK  Name = 
REMARK  3 active torsions:
REMARK  status: ('A' for Active; 'I' for Inactive)
REMARK    1  A    between atoms: C_7  and  S_8
REMARK    2  A    between atoms: S_8  and  N_11
REMARK    3  A    between atoms: N_20  and  C_21
REMARK                            x       y       z     vdW  Elec       q    Type
REMARK                         _______ _______ _______ _____ _____    ______ ____
ROOT
ATOM      1  O   UNL     1      -0.200   9.808  21.102  0.00  0.00    +0.000 OA
ATOM      2  C   UNL     1       0.575   8.952  20.748  0.00  0.00    +0.000 C 
ATOM      3  N   UNL     1       0.940   7.823  21.455  0.00  0.00    +0.000 N 
ATOM      4  C   UNL     1       1.722   6.974  20.673  0.00  0.00    +0.000 A 
ATOM      5  C   UNL     1       2.274   5.761  21.023  0.00  0.00    +0.000 A 
ATOM      6  C   UNL     1       3.048   5.103  20.055  0.00  0.00    +0.000 A 
ATOM      7  C   UNL     1       3.231   5.663  18.765  0.00  0.00    +0.000 A 
ATOM      8  C   UNL     1       2.625   6.870  18.411  0.00  0.00    +0.000 A 
ATOM      9  C   UNL     1       1.916   7.511  19.403  0.00  0.00    +0.000 A 
ATOM     10  C   UNL     1       1.353   8.860  19.421  0.00  0.00    +0.000 C 
ATOM     11  N   UNL     1       1.658   9.729  18.511  0.00  0.00    +0.000 NA
ATOM     12  H   UNL     1       0.620   7.633  22.395  0.00  0.00    +0.000 HD
ENDROOT
BRANCH  11  13
ATOM     13  C   UNL     1       1.295  11.077  18.549  0.00  0.00    +0.000 A 
ATOM     14  C   UNL     1       2.200  12.141  18.567  0.00  0.00    +0.000 A 
ATOM     15  C   UNL     1       1.756  13.465  18.609  0.00  0.00    +0.000 A 
ATOM     16  C   UNL     1       0.394  13.737  18.550  0.00  0.00    +0.000 A 
ATOM     17 CL   UNL     1      -0.156  15.365  18.617  0.00  0.00    +0.000 Cl
ATOM     18  C   UNL     1      -0.522  12.697  18.427  0.00  0.00    +0.000 A 
ATOM     19  C   UNL     1      -0.068  11.374  18.431  0.00  0.00    +0.000 A 
ENDBRANCH  11  13
BRANCH   7  20
ATOM     20  S   UNL     1       4.176   4.782  17.539  0.00  0.00    +0.000 S 
ATOM     21  O   UNL     1       5.264   4.136  18.243  0.00  0.00    +0.000 OA
ATOM     22  O   UNL     1       3.254   4.017  16.728  0.00  0.00    +0.000 OA
BRANCH  20  23
ATOM     23  N   UNL     1       4.831   6.025  16.574  0.00  0.00    +0.000 NA
ATOM     24  C   UNL     1       5.302   5.667  15.191  0.00  0.00    +0.000 C 
ATOM     25  C   UNL     1       6.754   5.150  15.159  0.00  0.00    +0.000 C 
ATOM     26  O   UNL     1       7.664   5.975  15.901  0.00  0.00    +0.000 OA
ATOM     27  C   UNL     1       7.218   6.125  17.255  0.00  0.00    +0.000 C 
ATOM     28  C   UNL     1       5.875   6.852  17.259  0.00  0.00    +0.000 C 
ENDBRANCH  20  23
ENDBRANCH   7  20
TORSDOF 3
ENDMDL
MODEL 4
REMARK VINA RESULT:      -7.5      0.458      1.035
REMARK  Name = 
REMARK  3 active torsions:
REMARK  status: ('A' for Active; 'I' for Inactive)
REMARK    1  A    between atoms: C_7  and  S_8
REMARK    2  A    between atoms: S_8  and  N_11
REMARK    3  A    between atoms: N_20  and  C_21
REMARK                            x       y       z     vdW  Elec       q    Type
REMARK                         _______ _______ _______ _____ _____    ______ ____
ROOT
ATOM      1  O   UNL     1       0.613  12.598  19.020  0.00  0.00    +0.000 OA
ATOM      2  C   UNL     1       0.946  11.441  18.906  0.00  0.00    +0.000 C 
ATOM      3  N   UNL     1       1.594  10.870  17.828  0.00  0.00    +0.000 N 
ATOM      4  C   UNL     1       1.971   9.557  18.110  0.00  0.00    +0.000 A 
ATOM      5  C   UNL     1       2.632   8.667  17.292  0.00  0.00    +0.000 A 
ATOM      6  C   UNL     1       2.878   7.384  17.805  0.00  0.00    +0.000 A 
ATOM      7  C   UNL     1       2.477   7.036  19.120  0.00  0.00    +0.000 A 
ATOM      8  C   UNL     1       1.851   7.965  19.952  0.00  0.00    +0.000 A 
ATOM      9  C   UNL     1       1.580   9.196  19.397  0.00  0.00    +0.000 A 
ATOM     10  C   UNL     1       0.766  10.293  19.917  0.00  0.00    +0.000 C 
ATOM     11  N   UNL     1      -0.006  10.130  20.944  0.00  0.00    +0.000 NA
ATOM     12  H   UNL     1       1.807  11.378  16.980  0.00  0.00    +0.000 HD
ENDROOT
BRANCH  11  13
ATOM     13  C   UNL     1      -0.931  11.072  21.398  0.00  0.00    +0.000 A 
ATOM     14  C   UNL     1      -0.922  11.639  22.676  0.00  0.00    +0.000 A 
ATOM     15  C   UNL     1      -1.887  12.575  23.055  0.00  0.00    +0.000 A 
ATOM     16  C   UNL     1      -2.825  13.015  22.128  0.00  0.00    +0.000 A 
ATOM     17 CL   UNL     1      -4.023  14.155  22.597  0.00  0.00    +0.000 Cl
ATOM     18  C   UNL     1      -2.788  12.542  20.820  0.00  0.00    +0.000 A 
ATOM     19  C   UNL     1      -1.845  11.571  20.464  0.00  0.00    +0.000 A 
ENDBRANCH  11  13
BRANCH   7  20
ATOM     20  S   UNL     1       2.848   5.416  19.763  0.00  0.00    +0.000 S 
ATOM     21  O   UNL     1       4.268   5.400  20.044  0.00  0.00    +0.000 OA
ATOM     22  O   UNL     1       1.880   5.111  20.792  0.00  0.00    +0.000 OA
BRANCH  20  23
ATOM     23  N   UNL     1       2.558   4.387  18.435  0.00  0.00    +0.000 NA
ATOM     24  C   UNL     1       1.202   3.746  18.327  0.00  0.00    +0.000 C 
ATOM     25  C   UNL     1       1.088   2.427  19.118  0.00  0.00    +0.000 C 
ATOM     26  O   UNL     1       2.188   1.534  18.888  0.00  0.00    +0.000 OA
ATOM     27  C   UNL     1       3.433   2.183  19.176  0.00  0.00    +0.000 C 
ATOM     28  C   UNL     1       3.619   3.354  18.213  0.00  0.00    +0.000 C 
ENDBRANCH  20  23
ENDBRANCH   7  20
TORSDOF 3
ENDMDL
MODEL 5
REMARK VINA RESULT:      -7.4      2.919      4.089
REMARK  Name = 
REMARK  3 active torsions:
REMARK  status: ('A' for Active; 'I' for Inactive)
REMARK    1  A    between atoms: C_7  and  S_8
REMARK    2  A    between atoms: S_8  and  N_11
REMARK    3  A    between atoms: N_20  and  C_21
REMARK                            x       y       z     vdW  Elec       q    Type
REMARK                         _______ _______ _______ _____ _____    ______ ____
ROOT
ATOM      1  O   UNL     1      -0.610  10.923  21.050  0.00  0.00    +0.000 OA
ATOM      2  C   UNL     1       0.158  10.059  20.699  0.00  0.00    +0.000 C 
ATOM      3  N   UNL     1       0.390   8.853  21.331  0.00  0.00    +0.000 N 
ATOM      4  C   UNL     1       1.211   8.033  20.558  0.00  0.00    +0.000 A 
ATOM      5  C   UNL     1       1.664   6.764  20.848  0.00  0.00    +0.000 A 
ATOM      6  C   UNL     1       2.507   6.151  19.908  0.00  0.00    +0.000 A 
ATOM      7  C   UNL     1       2.854   6.812  18.702  0.00  0.00    +0.000 A 
ATOM      8  C   UNL     1       2.348   8.077  18.402  0.00  0.00    +0.000 A 
ATOM      9  C   UNL     1       1.567   8.668  19.371  0.00  0.00    +0.000 A 
ATOM     10  C   UNL     1       1.070  10.040  19.457  0.00  0.00    +0.000 C 
ATOM     11  N   UNL     1       1.512  10.967  18.669  0.00  0.00    +0.000 NA
ATOM     12  H   UNL     1      -0.039   8.599  22.211  0.00  0.00    +0.000 HD
ENDROOT
BRANCH  11  13
ATOM     13  C   UNL     1       1.212  12.325  18.796  0.00  0.00    +0.000 A 
ATOM     14  C   UNL     1      -0.017  12.899  18.459  0.00  0.00    +0.000 A 
ATOM     15  C   UNL     1      -0.238  14.270  18.611  0.00  0.00    +0.000 A 
ATOM     16  C   UNL     1       0.747  15.068  19.182  0.00  0.00    +0.000 A 
ATOM     17 CL   UNL     1       0.483  16.758  19.357  0.00  0.00    +0.000 Cl
ATOM     18  C   UNL     1       1.939  14.500  19.620  0.00  0.00    +0.000 A 
ATOM     19  C   UNL     1       2.166  13.135  19.421  0.00  0.00    +0.000 A 
ENDBRANCH  11  13
BRANCH   7  20
ATOM     20  S   UNL     1       3.883   5.989  17.503  0.00  0.00    +0.000 S 
ATOM     21  O   UNL     1       3.243   4.725  17.207  0.00  0.00    +0.000 OA
ATOM     22  O   UNL     1       4.189   6.934  16.452  0.00  0.00    +0.000 OA
BRANCH  20  23
ATOM     23  N   UNL     1       5.318   5.669  18.366  0.00  0.00    +0.000 NA
ATOM     24  C   UNL     1       6.439   6.666  18.261  0.00  0.00    +0.000 C 
ATOM     25  C   UNL     1       7.355   6.425  17.044  0.00  0.00    +0.000 C 
ATOM     26  O   UNL     1       7.763   5.056  16.906  0.00  0.00    +0.000 OA
ATOM     27  C   UNL     1       6.620   4.193  16.849  0.00  0.00    +0.000 C 
ATOM     28  C   UNL     1       5.859   4.286  18.171  0.00  0.00    +0.000 C 
ENDBRANCH  20  23
ENDBRANCH   7  20
TORSDOF 3
ENDMDL
MODEL 6
REMARK VINA RESULT:      -7.3      4.109      8.825
REMARK  Name = 
REMARK  3 active torsions:
REMARK  status: ('A' for Active; 'I' for Inactive)
REMARK    1  A    between atoms: C_7  and  S_8
REMARK    2  A    between atoms: S_8  and  N_11
REMARK    3  A    between atoms: N_20  and  C_21
REMARK                            x       y       z     vdW  Elec       q    Type
REMARK                         _______ _______ _______ _____ _____    ______ ____
ROOT
ATOM      1  O   UNL     1       2.321   8.289  17.181  0.00  0.00    +0.000 OA
ATOM      2  C   UNL     1       1.939   9.118  17.973  0.00  0.00    +0.000 C 
ATOM      3  N   UNL     1       1.850  10.481  17.765  0.00  0.00    +0.000 N 
ATOM      4  C   UNL     1       1.211  11.109  18.833  0.00  0.00    +0.000 A 
ATOM      5  C   UNL     1       0.938  12.449  18.993  0.00  0.00    +0.000 A 
ATOM      6  C   UNL     1       0.298  12.839  20.180  0.00  0.00    +0.000 A 
ATOM      7  C   UNL     1      -0.067  11.879  21.159  0.00  0.00    +0.000 A 
ATOM      8  C   UNL     1       0.175  10.520  20.960  0.00  0.00    +0.000 A 
ATOM      9  C   UNL     1       0.850  10.181  19.808  0.00  0.00    +0.000 A 
ATOM     10  C   UNL     1       1.431   8.900  19.411  0.00  0.00    +0.000 C 
ATOM     11  N   UNL     1       1.553   7.926  20.256  0.00  0.00    +0.000 NA
ATOM     12  H   UNL     1       2.162  10.930  16.915  0.00  0.00    +0.000 HD
ENDROOT
BRANCH  11  13
ATOM     13  C   UNL     1       2.241   6.738  20.002  0.00  0.00    +0.000 A 
ATOM     14  C   UNL     1       3.487   6.663  19.375  0.00  0.00    +0.000 A 
ATOM     15  C   UNL     1       4.110   5.432  19.153  0.00  0.00    +0.000 A 
ATOM     16  C   UNL     1       3.524   4.266  19.633  0.00  0.00    +0.000 A 
ATOM     17 CL   UNL     1       4.280   2.749  19.348  0.00  0.00    +0.000 Cl
ATOM     18  C   UNL     1       2.334   4.327  20.351  0.00  0.00    +0.000 A 
ATOM     19  C   UNL     1       1.697   5.560  20.527  0.00  0.00    +0.000 A 
ENDBRANCH  11  13
BRANCH   7  20
ATOM     20  S   UNL     1      -0.924  12.396  22.633  0.00  0.00    +0.000 S 
ATOM     21  O   UNL     1      -1.126  11.205  23.431  0.00  0.00    +0.000 OA
ATOM     22  O   UNL     1      -0.233  13.546  23.172  0.00  0.00    +0.000 OA
BRANCH  20  23
ATOM     23  N   UNL     1      -2.441  12.909  22.050  0.00  0.00    +0.000 NA
ATOM     24  C   UNL     1      -2.606  14.363  21.705  0.00  0.00    +0.000 C 
ATOM     25  C   UNL     1      -3.000  15.234  22.915  0.00  0.00    +0.000 C 
ATOM     26  O   UNL     1      -4.079  14.680  23.682  0.00  0.00    +0.000 OA
ATOM     27  C   UNL     1      -3.762  13.348  24.108  0.00  0.00    +0.000 C 
ATOM     28  C   UNL     1      -3.605  12.456  22.878  0.00  0.00    +0.000 C 
ENDBRANCH  20  23
ENDBRANCH   7  20
TORSDOF 3
ENDMDL
MODEL 7
REMARK VINA RESULT:      -7.3      2.916      4.090
REMARK  Name = 
REMARK  3 active torsions:
REMARK  status: ('A' for Active; 'I' for Inactive)
REMARK    1  A    between atoms: C_7  and  S_8
REMARK    2  A    between atoms: S_8  and  N_11
REMARK    3  A    between atoms: N_20  and  C_21
REMARK                            x       y       z     vdW  Elec       q    Type
REMARK                         _______ _______ _______ _____ _____    ______ ____
ROOT
ATOM      1  O   UNL     1      -0.534  10.515  21.275  0.00  0.00    +0.000 OA
ATOM      2  C   UNL     1       0.242   9.676  20.883  0.00  0.00    +0.000 C 
ATOM      3  N   UNL     1       0.544   8.477  21.499  0.00  0.00    +0.000 N 
ATOM      4  C   UNL     1       1.350   7.684  20.683  0.00  0.00    +0.000 A 
ATOM      5  C   UNL     1       1.857   6.431  20.946  0.00  0.00    +0.000 A 
ATOM      6  C   UNL     1       2.669   5.846  19.963  0.00  0.00    +0.000 A 
ATOM      7  C   UNL     1       2.933   6.518  18.742  0.00  0.00    +0.000 A 
ATOM      8  C   UNL     1       2.373   7.767  18.471  0.00  0.00    +0.000 A 
ATOM      9  C   UNL     1       1.624   8.332  19.481  0.00  0.00    +0.000 A 
ATOM     10  C   UNL     1       1.089   9.687  19.596  0.00  0.00    +0.000 C 
ATOM     11  N   UNL     1       1.460  10.629  18.788  0.00  0.00    +0.000 NA
ATOM     12  H   UNL     1       0.170   8.210  22.400  0.00  0.00    +0.000 HD
ENDROOT
BRANCH  11  13
ATOM     13  C   UNL     1       1.124  11.976  18.933  0.00  0.00    +0.000 A 
ATOM     14  C   UNL     1       1.964  12.948  19.483  0.00  0.00    +0.000 A 
ATOM     15  C   UNL     1       1.550  14.277  19.597  0.00  0.00    +0.000 A 
ATOM     16  C   UNL     1       0.317  14.662  19.084  0.00  0.00    +0.000 A 
ATOM     17 CL   UNL     1      -0.201  16.295  19.236  0.00  0.00    +0.000 Cl
ATOM     18  C   UNL     1      -0.493  13.732  18.439  0.00  0.00    +0.000 A 
ATOM     19  C   UNL     1      -0.088  12.395  18.371  0.00  0.00    +0.000 A 
ENDBRANCH  11  13
BRANCH   7  20
ATOM     20  S   UNL     1       3.925   5.730  17.490  0.00  0.00    +0.000 S 
ATOM     21  O   UNL     1       3.142   4.625  16.978  0.00  0.00    +0.000 OA
ATOM     22  O   UNL     1       4.431   6.757  16.607  0.00  0.00    +0.000 OA
BRANCH  20  23
ATOM     23  N   UNL     1       5.237   5.088  18.369  0.00  0.00    +0.000 NA
ATOM     24  C   UNL     1       6.301   6.041  18.838  0.00  0.00    +0.000 C 
ATOM     25  C   UNL     1       7.395   6.300  17.782  0.00  0.00    +0.000 C 
ATOM     26  O   UNL     1       7.898   5.096  17.184  0.00  0.00    +0.000 OA
ATOM     27  C   UNL     1       6.827   4.330  16.617  0.00  0.00    +0.000 C 
ATOM     28  C   UNL     1       5.880   3.894  17.733  0.00  0.00    +0.000 C 
ENDBRANCH  20  23
ENDBRANCH   7  20
TORSDOF 3
ENDMDL
MODEL 8
REMARK VINA RESULT:      -7.2      3.092      4.336
REMARK  Name = 
REMARK  3 active torsions:
REMARK  status: ('A' for Active; 'I' for Inactive)
REMARK    1  A    between atoms: C_7  and  S_8
REMARK    2  A    between atoms: S_8  and  N_11
REMARK    3  A    between atoms: N_20  and  C_21
REMARK                            x       y       z     vdW  Elec       q    Type
REMARK                         _______ _______ _______ _____ _____    ______ ____
ROOT
ATOM      1  O   UNL     1      -0.033   9.520  21.217  0.00  0.00    +0.000 OA
ATOM      2  C   UNL     1       0.714   8.655  20.826  0.00  0.00    +0.000 C 
ATOM      3  N   UNL     1       1.153   7.556  21.540  0.00  0.00    +0.000 N 
ATOM      4  C   UNL     1       1.868   6.681  20.723  0.00  0.00    +0.000 A 
ATOM      5  C   UNL     1       2.461   5.487  21.067  0.00  0.00    +0.000 A 
ATOM      6  C   UNL     1       3.149   4.795  20.058  0.00  0.00    +0.000 A 
ATOM      7  C   UNL     1       3.206   5.305  18.736  0.00  0.00    +0.000 A 
ATOM      8  C   UNL     1       2.560   6.493  18.392  0.00  0.00    +0.000 A 
ATOM      9  C   UNL     1       1.939   7.169  19.420  0.00  0.00    +0.000 A 
ATOM     10  C   UNL     1       1.368   8.514  19.438  0.00  0.00    +0.000 C 
ATOM     11  N   UNL     1       1.579   9.348  18.470  0.00  0.00    +0.000 NA
ATOM     12  H   UNL     1       0.922   7.403  22.512  0.00  0.00    +0.000 HD
ENDROOT
BRANCH  11  13
ATOM     13  C   UNL     1       1.209  10.694  18.489  0.00  0.00    +0.000 A 
ATOM     14  C   UNL     1      -0.109  11.152  18.560  0.00  0.00    +0.000 A 
ATOM     15  C   UNL     1      -0.398  12.519  18.570  0.00  0.00    +0.000 A 
ATOM     16  C   UNL     1       0.640  13.444  18.591  0.00  0.00    +0.000 A 
ATOM     17 CL   UNL     1       0.288  15.126  18.588  0.00  0.00    +0.000 Cl
ATOM     18  C   UNL     1       1.961  13.009  18.625  0.00  0.00    +0.000 A 
ATOM     19  C   UNL     1       2.239  11.639  18.569  0.00  0.00    +0.000 A 
ENDBRANCH  11  13
BRANCH   7  20
ATOM     20  S   UNL     1       4.043   4.381  17.463  0.00  0.00    +0.000 S 
ATOM     21  O   UNL     1       4.835   3.374  18.138  0.00  0.00    +0.000 OA
ATOM     22  O   UNL     1       3.066   4.013  16.462  0.00  0.00    +0.000 OA
BRANCH  20  23
ATOM     23  N   UNL     1       5.106   5.523  16.778  0.00  0.00    +0.000 NA
ATOM     24  C   UNL     1       5.506   5.336  15.340  0.00  0.00    +0.000 C 
ATOM     25  C   UNL     1       6.719   4.400  15.163  0.00  0.00    +0.000 C 
ATOM     26  O   UNL     1       7.806   4.710  16.047  0.00  0.00    +0.000 OA
ATOM     27  C   UNL     1       7.364   4.703  17.411  0.00  0.00    +0.000 C 
ATOM     28  C   UNL     1       6.324   5.805  17.604  0.00  0.00    +0.000 C 
ENDBRANCH  20  23
ENDBRANCH   7  20
TORSDOF 3
ENDMDL
MODEL 9
REMARK VINA RESULT:      -7.2      3.129      4.604
REMARK  Name = 
REMARK  3 active torsions:
REMARK  status: ('A' for Active; 'I' for Inactive)
REMARK    1  A    between atoms: C_7  and  S_8
REMARK    2  A    between atoms: S_8  and  N_11
REMARK    3  A    between atoms: N_20  and  C_21
REMARK                            x       y       z     vdW  Elec       q    Type
REMARK                         _______ _______ _______ _____ _____    ______ ____
ROOT
ATOM      1  O   UNL     1       0.063   9.143  21.078  0.00  0.00    +0.000 OA
ATOM      2  C   UNL     1       0.856   8.323  20.679  0.00  0.00    +0.000 C 
ATOM      3  N   UNL     1       1.299   7.203  21.356  0.00  0.00    +0.000 N 
ATOM      4  C   UNL     1       2.077   6.394  20.529  0.00  0.00    +0.000 A 
ATOM      5  C   UNL     1       2.694   5.202  20.839  0.00  0.00    +0.000 A 
ATOM      6  C   UNL     1       3.449   4.586  19.829  0.00  0.00    +0.000 A 
ATOM      7  C   UNL     1       3.547   5.165  18.538  0.00  0.00    +0.000 A 
ATOM      8  C   UNL     1       2.878   6.349  18.226  0.00  0.00    +0.000 A 
ATOM      9  C   UNL     1       2.190   6.951  19.257  0.00  0.00    +0.000 A 
ATOM     10  C   UNL     1       1.574   8.275  19.317  0.00  0.00    +0.000 C 
ATOM     11  N   UNL     1       1.800   9.165  18.403  0.00  0.00    +0.000 NA
ATOM     12  H   UNL     1       1.031   6.991  22.307  0.00  0.00    +0.000 HD
ENDROOT
BRANCH  11  13
ATOM     13  C   UNL     1       1.384  10.496  18.473  0.00  0.00    +0.000 A 
ATOM     14  C   UNL     1       2.243  11.597  18.428  0.00  0.00    +0.000 A 
ATOM     15  C   UNL     1       1.748  12.901  18.508  0.00  0.00    +0.000 A 
ATOM     16  C   UNL     1       0.375  13.116  18.551  0.00  0.00    +0.000 A 
ATOM     17 CL   UNL     1      -0.237  14.719  18.665  0.00  0.00    +0.000 Cl
ATOM     18  C   UNL     1      -0.503  12.038  18.493  0.00  0.00    +0.000 A 
ATOM     19  C   UNL     1       0.006  10.736  18.458  0.00  0.00    +0.000 A 
ENDBRANCH  11  13
BRANCH   7  20
ATOM     20  S   UNL     1       4.469   4.335  17.260  0.00  0.00    +0.000 S 
ATOM     21  O   UNL     1       4.173   2.924  17.388  0.00  0.00    +0.000 OA
ATOM     22  O   UNL     1       4.240   5.035  16.016  0.00  0.00    +0.000 OA
BRANCH  20  23
ATOM     23  N   UNL     1       6.092   4.581  17.718  0.00  0.00    +0.000 NA
ATOM     24  C   UNL     1       6.450   5.893  18.360  0.00  0.00    +0.000 C 
ATOM     25  C   UNL     1       6.782   6.999  17.337  0.00  0.00    +0.000 C 
ATOM     26  O   UNL     1       7.693   6.569  16.315  0.00  0.00    +0.000 OA
ATOM     27  C   UNL     1       7.189   5.406  15.647  0.00  0.00    +0.000 C 
ATOM     28  C   UNL     1       7.091   4.257  16.650  0.00  0.00    +0.000 C 
ENDBRANCH  20  23
ENDBRANCH   7  20
TORSDOF 3
ENDMDL
