MODEL 1
REMARK VINA RESULT:      -7.3      0.000      0.000
REMARK  Name = 
REMARK  13 active torsions:
REMARK  status: ('A' for Active; 'I' for Inactive)
REMARK    1  A    between atoms: C_1  and  N_2
REMARK    2  A    between atoms: C_3  and  C_5
REMARK    3  A    between atoms: C_5  and  C_6
REMARK    4  A    between atoms: C_6  and  C_7
REMARK    5  A    between atoms: C_7  and  C_8
REMARK    6  A    between atoms: C_8  and  C_9
REMARK    7  A    between atoms: C_9  and  C_10
REMARK    8  A    between atoms: C_10  and  C_11
REMARK    9  A    between atoms: C_11  and  N_12
REMARK   10  A    between atoms: C_13  and  C_15
REMARK   11  A    between atoms: C_17  and  C_18
REMARK   12  A    between atoms: C_21  and  N_22
REMARK   13  A    between atoms: N_27  and  O_28
REMARK                            x       y       z     vdW  Elec       q    Type
REMARK                         _______ _______ _______ _____ _____    ______ ____
ROOT
ATOM      1  N   UNL     1       6.224   4.976  16.640  0.00  0.00    +0.000 N 
ATOM      2  C   UNL     1       7.198   5.367  17.523  0.00  0.00    +0.000 C 
ATOM      3  O   UNL     1       7.856   4.562  18.205  0.00  0.00    +0.000 OA
ATOM      4  H   UNL     1       5.833   5.686  16.026  0.00  0.00    +0.000 HD
ENDROOT
BRANCH   2   5
ATOM      5  C   UNL     1       7.418   6.804  17.598  0.00  0.00    +0.000 A 
ATOM      6  C   UNL     1       8.280   7.498  18.473  0.00  0.00    +0.000 A 
ATOM      7  C   UNL     1       8.164   8.816  18.113  0.00  0.00    +0.000 A 
ATOM      8  O   UNL     1       7.240   8.925  17.121  0.00  0.00    +0.000 OA
ATOM      9  N   UNL     1       6.779   7.666  16.777  0.00  0.00    +0.000 NA
BRANCH   7  10
ATOM     10  C   UNL     1       8.803  10.032  18.584  0.00  0.00    +0.000 A 
ATOM     11  C   UNL     1       9.389  10.047  19.856  0.00  0.00    +0.000 A 
ATOM     12  C   UNL     1       9.899  11.227  20.393  0.00  0.00    +0.000 A 
ATOM     13  C   UNL     1       9.884  12.409  19.650  0.00  0.00    +0.000 A 
ATOM     14  C   UNL     1       9.311  12.392  18.375  0.00  0.00    +0.000 A 
ATOM     15  C   UNL     1       8.801  11.209  17.830  0.00  0.00    +0.000 A 
BRANCH  13  16
ATOM     16  N   UNL     1      10.205  13.620  20.265  0.00  0.00    +0.000 N 
ATOM     17  H   UNL     1      10.033  13.640  21.265  0.00  0.00    +0.000 HD
ATOM     18  H   UNL     1      11.119  13.986  20.018  0.00  0.00    +0.000 HD
ENDBRANCH  13  16
ENDBRANCH   7  10
ENDBRANCH   2   5
BRANCH   1  19
ATOM     19  C   UNL     1       5.874   3.591  16.447  0.00  0.00    +0.000 C 
BRANCH  19  20
ATOM     20  C   UNL     1       4.786   3.171  17.423  0.00  0.00    +0.000 C 
BRANCH  20  21
ATOM     21  C   UNL     1       3.508   3.964  17.199  0.00  0.00    +0.000 C 
BRANCH  21  22
ATOM     22  C   UNL     1       2.260   3.078  17.284  0.00  0.00    +0.000 C 
BRANCH  22  23
ATOM     23  C   UNL     1       1.317   3.727  18.302  0.00  0.00    +0.000 C 
BRANCH  23  24
ATOM     24  C   UNL     1       1.280   3.125  19.703  0.00  0.00    +0.000 C 
BRANCH  24  25
ATOM     25  C   UNL     1       1.980   3.978  20.794  0.00  0.00    +0.000 C 
ATOM     26  N   UNL     1       2.191   3.521  21.994  0.00  0.00    +0.000 NA
BRANCH  25  29
ATOM     27  C   UNL     1       1.840   7.877  20.543  0.00  0.00    +0.000 C 
ATOM     28  N   UNL     1       1.505   6.489  20.777  0.00  0.00    +0.000 N 
ATOM     29  C   UNL     1       2.428   5.457  20.509  0.00  0.00    +0.000 C 
ATOM     30  O   UNL     1       3.520   5.680  20.069  0.00  0.00    +0.000 OA
ATOM     31  H   UNL     1       0.580   6.308  21.145  0.00  0.00    +0.000 HD
ENDBRANCH  25  29
BRANCH  26  32
ATOM     32  O   UNL     1       1.748   2.197  22.126  0.00  0.00    +0.000 OA
ATOM     33  H   UNL     1       1.388   2.005  21.243  0.00  0.00    +0.000 HD
ENDBRANCH  26  32
ENDBRANCH  24  25
ENDBRANCH  23  24
ENDBRANCH  22  23
ENDBRANCH  21  22
ENDBRANCH  20  21
ENDBRANCH  19  20
ENDBRANCH   1  19
TORSDOF 12
ENDMDL
MODEL 2
REMARK VINA RESULT:      -7.2      1.018      1.094
REMARK  Name = 
REMARK  13 active torsions:
REMARK  status: ('A' for Active; 'I' for Inactive)
REMARK    1  A    between atoms: C_1  and  N_2
REMARK    2  A    between atoms: C_3  and  C_5
REMARK    3  A    between atoms: C_5  and  C_6
REMARK    4  A    between atoms: C_6  and  C_7
REMARK    5  A    between atoms: C_7  and  C_8
REMARK    6  A    between atoms: C_8  and  C_9
REMARK    7  A    between atoms: C_9  and  C_10
REMARK    8  A    between atoms: C_10  and  C_11
REMARK    9  A    between atoms: C_11  and  N_12
REMARK   10  A    between atoms: C_13  and  C_15
REMARK   11  A    between atoms: C_17  and  C_18
REMARK   12  A    between atoms: C_21  and  N_22
REMARK   13  A    between atoms: N_27  and  O_28
REMARK                            x       y       z     vdW  Elec       q    Type
REMARK                         _______ _______ _______ _____ _____    ______ ____
ROOT
ATOM      1  N   UNL     1       5.879   5.180  17.508  0.00  0.00    +0.000 N 
ATOM      2  C   UNL     1       7.135   5.501  17.959  0.00  0.00    +0.000 C 
ATOM      3  O   UNL     1       7.933   4.656  18.399  0.00  0.00    +0.000 OA
ATOM      4  H   UNL     1       5.347   5.908  17.040  0.00  0.00    +0.000 HD
ENDROOT
BRANCH   2   5
ATOM      5  C   UNL     1       7.474   6.914  17.873  0.00  0.00    +0.000 A 
ATOM      6  C   UNL     1       8.246   7.670  18.781  0.00  0.00    +0.000 A 
ATOM      7  C   UNL     1       8.313   8.924  18.230  0.00  0.00    +0.000 A 
ATOM      8  O   UNL     1       7.574   8.947  17.089  0.00  0.00    +0.000 OA
ATOM      9  N   UNL     1       7.058   7.686  16.845  0.00  0.00    +0.000 NA
BRANCH   7  10
ATOM     10  C   UNL     1       8.980  10.149  18.633  0.00  0.00    +0.000 A 
ATOM     11  C   UNL     1       9.557  10.225  19.907  0.00  0.00    +0.000 A 
ATOM     12  C   UNL     1      10.093  11.422  20.377  0.00  0.00    +0.000 A 
ATOM     13  C   UNL     1      10.114  12.557  19.566  0.00  0.00    +0.000 A 
ATOM     14  C   UNL     1       9.550  12.479  18.289  0.00  0.00    +0.000 A 
ATOM     15  C   UNL     1       9.013  11.279  17.811  0.00  0.00    +0.000 A 
BRANCH  13  16
ATOM     16  N   UNL     1      10.462  13.795  20.110  0.00  0.00    +0.000 N 
ATOM     17  H   UNL     1       9.674  14.405  20.299  0.00  0.00    +0.000 HD
ATOM     18  H   UNL     1      11.112  13.743  20.887  0.00  0.00    +0.000 HD
ENDBRANCH  13  16
ENDBRANCH   7  10
ENDBRANCH   2   5
BRANCH   1  19
ATOM     19  C   UNL     1       5.380   3.827  17.528  0.00  0.00    +0.000 C 
BRANCH  19  20
ATOM     20  C   UNL     1       4.812   3.484  18.896  0.00  0.00    +0.000 C 
BRANCH  20  21
ATOM     21  C   UNL     1       3.931   2.245  18.832  0.00  0.00    +0.000 C 
BRANCH  21  22
ATOM     22  C   UNL     1       2.624   2.510  18.077  0.00  0.00    +0.000 C 
BRANCH  22  23
ATOM     23  C   UNL     1       1.479   2.055  18.988  0.00  0.00    +0.000 C 
BRANCH  23  24
ATOM     24  C   UNL     1       0.716   3.138  19.745  0.00  0.00    +0.000 C 
BRANCH  24  25
ATOM     25  C   UNL     1       1.608   4.105  20.569  0.00  0.00    +0.000 C 
ATOM     26  N   UNL     1       2.145   3.749  21.700  0.00  0.00    +0.000 NA
BRANCH  25  29
ATOM     27  C   UNL     1       2.575   7.101  18.251  0.00  0.00    +0.000 C 
ATOM     28  N   UNL     1       2.315   5.775  18.768  0.00  0.00    +0.000 N 
ATOM     29  C   UNL     1       1.869   5.579  20.092  0.00  0.00    +0.000 C 
ATOM     30  O   UNL     1       1.696   6.495  20.846  0.00  0.00    +0.000 OA
ATOM     31  H   UNL     1       2.465   5.008  18.127  0.00  0.00    +0.000 HD
ENDBRANCH  25  29
BRANCH  26  32
ATOM     32  O   UNL     1       1.840   2.418  22.018  0.00  0.00    +0.000 OA
ATOM     33  H   UNL     1       0.936   2.319  21.673  0.00  0.00    +0.000 HD
ENDBRANCH  26  32
ENDBRANCH  24  25
ENDBRANCH  23  24
ENDBRANCH  22  23
ENDBRANCH  21  22
ENDBRANCH  20  21
ENDBRANCH  19  20
ENDBRANCH   1  19
TORSDOF 12
ENDMDL
MODEL 3
REMARK VINA RESULT:      -7.2      1.282      1.424
REMARK  Name = 
REMARK  13 active torsions:
REMARK  status: ('A' for Active; 'I' for Inactive)
REMARK    1  A    between atoms: C_1  and  N_2
REMARK    2  A    between atoms: C_3  and  C_5
REMARK    3  A    between atoms: C_5  and  C_6
REMARK    4  A    between atoms: C_6  and  C_7
REMARK    5  A    between atoms: C_7  and  C_8
REMARK    6  A    between atoms: C_8  and  C_9
REMARK    7  A    between atoms: C_9  and  C_10
REMARK    8  A    between atoms: C_10  and  C_11
REMARK    9  A    between atoms: C_11  and  N_12
REMARK   10  A    between atoms: C_13  and  C_15
REMARK   11  A    between atoms: C_17  and  C_18
REMARK   12  A    between atoms: C_21  and  N_22
REMARK   13  A    between atoms: N_27  and  O_28
REMARK                            x       y       z     vdW  Elec       q    Type
REMARK                         _______ _______ _______ _____ _____    ______ ____
ROOT
ATOM      1  N   UNL     1       5.233   5.861  17.699  0.00  0.00    +0.000 N 
ATOM      2  C   UNL     1       5.997   6.673  16.898  0.00  0.00    +0.000 C 
ATOM      3  O   UNL     1       5.801   6.798  15.677  0.00  0.00    +0.000 OA
ATOM      4  H   UNL     1       5.375   5.923  18.703  0.00  0.00    +0.000 HD
ENDROOT
BRANCH   2   5
ATOM      5  C   UNL     1       7.056   7.394  17.589  0.00  0.00    +0.000 A 
ATOM      6  C   UNL     1       7.394   8.757  17.459  0.00  0.00    +0.000 A 
ATOM      7  C   UNL     1       8.418   8.955  18.350  0.00  0.00    +0.000 A 
ATOM      8  O   UNL     1       8.727   7.769  18.939  0.00  0.00    +0.000 OA
ATOM      9  N   UNL     1       7.867   6.786  18.483  0.00  0.00    +0.000 NA
BRANCH   7  10
ATOM     10  C   UNL     1       9.184  10.127  18.736  0.00  0.00    +0.000 A 
ATOM     11  C   UNL     1       9.330  10.429  20.096  0.00  0.00    +0.000 A 
ATOM     12  C   UNL     1       9.948  11.609  20.502  0.00  0.00    +0.000 A 
ATOM     13  C   UNL     1      10.482  12.491  19.560  0.00  0.00    +0.000 A 
ATOM     14  C   UNL     1      10.348  12.184  18.203  0.00  0.00    +0.000 A 
ATOM     15  C   UNL     1       9.732  10.998  17.790  0.00  0.00    +0.000 A 
BRANCH  13  16
ATOM     16  N   UNL     1      10.913  13.757  19.959  0.00  0.00    +0.000 N 
ATOM     17  H   UNL     1      10.163  14.422  20.121  0.00  0.00    +0.000 HD
ATOM     18  H   UNL     1      11.598  13.751  20.707  0.00  0.00    +0.000 HD
ENDBRANCH  13  16
ENDBRANCH   7  10
ENDBRANCH   2   5
BRANCH   1  19
ATOM     19  C   UNL     1       4.147   5.071  17.176  0.00  0.00    +0.000 C 
BRANCH  19  20
ATOM     20  C   UNL     1       4.597   3.641  16.918  0.00  0.00    +0.000 C 
BRANCH  20  21
ATOM     21  C   UNL     1       3.506   2.646  17.282  0.00  0.00    +0.000 C 
BRANCH  21  22
ATOM     22  C   UNL     1       3.106   2.748  18.758  0.00  0.00    +0.000 C 
BRANCH  22  23
ATOM     23  C   UNL     1       1.590   2.534  18.828  0.00  0.00    +0.000 C 
BRANCH  23  24
ATOM     24  C   UNL     1       0.829   3.282  19.919  0.00  0.00    +0.000 C 
BRANCH  24  25
ATOM     25  C   UNL     1       1.708   4.199  20.810  0.00  0.00    +0.000 C 
ATOM     26  N   UNL     1       2.245   3.773  21.916  0.00  0.00    +0.000 NA
BRANCH  25  29
ATOM     27  C   UNL     1       1.504   8.101  20.952  0.00  0.00    +0.000 C 
ATOM     28  N   UNL     1       1.328   6.692  21.228  0.00  0.00    +0.000 N 
ATOM     29  C   UNL     1       1.952   5.706  20.436  0.00  0.00    +0.000 C 
ATOM     30  O   UNL     1       2.644   5.988  19.499  0.00  0.00    +0.000 OA
ATOM     31  H   UNL     1       0.741   6.461  22.018  0.00  0.00    +0.000 HD
ENDBRANCH  25  29
BRANCH  26  32
ATOM     32  O   UNL     1       1.955   2.420  22.141  0.00  0.00    +0.000 OA
ATOM     33  H   UNL     1       1.548   2.434  23.025  0.00  0.00    +0.000 HD
ENDBRANCH  26  32
ENDBRANCH  24  25
ENDBRANCH  23  24
ENDBRANCH  22  23
ENDBRANCH  21  22
ENDBRANCH  20  21
ENDBRANCH  19  20
ENDBRANCH   1  19
TORSDOF 12
ENDMDL
MODEL 4
REMARK VINA RESULT:      -7.1      4.677      7.363
REMARK  Name = 
REMARK  13 active torsions:
REMARK  status: ('A' for Active; 'I' for Inactive)
REMARK    1  A    between atoms: C_1  and  N_2
REMARK    2  A    between atoms: C_3  and  C_5
REMARK    3  A    between atoms: C_5  and  C_6
REMARK    4  A    between atoms: C_6  and  C_7
REMARK    5  A    between atoms: C_7  and  C_8
REMARK    6  A    between atoms: C_8  and  C_9
REMARK    7  A    between atoms: C_9  and  C_10
REMARK    8  A    between atoms: C_10  and  C_11
REMARK    9  A    between atoms: C_11  and  N_12
REMARK   10  A    between atoms: C_13  and  C_15
REMARK   11  A    between atoms: C_17  and  C_18
REMARK   12  A    between atoms: C_21  and  N_22
REMARK   13  A    between atoms: N_27  and  O_28
REMARK                            x       y       z     vdW  Elec       q    Type
REMARK                         _______ _______ _______ _____ _____    ______ ____
ROOT
ATOM      1  N   UNL     1       1.332   5.381  20.573  0.00  0.00    +0.000 N 
ATOM      2  C   UNL     1       2.219   6.357  20.195  0.00  0.00    +0.000 C 
ATOM      3  O   UNL     1       3.387   6.111  19.847  0.00  0.00    +0.000 OA
ATOM      4  H   UNL     1       0.362   5.654  20.709  0.00  0.00    +0.000 HD
ENDROOT
BRANCH   2   5
ATOM      5  C   UNL     1       1.687   7.711  20.217  0.00  0.00    +0.000 A 
ATOM      6  C   UNL     1       0.989   8.343  21.268  0.00  0.00    +0.000 A 
ATOM      7  C   UNL     1       0.750   9.617  20.819  0.00  0.00    +0.000 A 
ATOM      8  O   UNL     1       1.218   9.733  19.547  0.00  0.00    +0.000 OA
ATOM      9  N   UNL     1       1.825   8.549  19.166  0.00  0.00    +0.000 NA
BRANCH   7  10
ATOM     10  C   UNL     1       0.117  10.777  21.419  0.00  0.00    +0.000 A 
ATOM     11  C   UNL     1       0.480  12.057  20.979  0.00  0.00    +0.000 A 
ATOM     12  C   UNL     1      -0.009  13.195  21.616  0.00  0.00    +0.000 A 
ATOM     13  C   UNL     1      -0.915  13.084  22.672  0.00  0.00    +0.000 A 
ATOM     14  C   UNL     1      -1.288  11.808  23.103  0.00  0.00    +0.000 A 
ATOM     15  C   UNL     1      -0.802  10.661  22.466  0.00  0.00    +0.000 A 
BRANCH  13  16
ATOM     16  N   UNL     1      -1.239  14.209  23.431  0.00  0.00    +0.000 N 
ATOM     17  H   UNL     1      -0.437  14.744  23.749  0.00  0.00    +0.000 HD
ATOM     18  H   UNL     1      -1.963  14.793  23.027  0.00  0.00    +0.000 HD
ENDBRANCH  13  16
ENDBRANCH   7  10
ENDBRANCH   2   5
BRANCH   1  19
ATOM     19  C   UNL     1       1.696   3.987  20.615  0.00  0.00    +0.000 C 
BRANCH  19  20
ATOM     20  C   UNL     1       1.173   3.257  19.387  0.00  0.00    +0.000 C 
BRANCH  20  21
ATOM     21  C   UNL     1       1.967   1.988  19.120  0.00  0.00    +0.000 C 
BRANCH  21  22
ATOM     22  C   UNL     1       3.479   2.242  19.144  0.00  0.00    +0.000 C 
BRANCH  22  23
ATOM     23  C   UNL     1       3.874   2.729  17.746  0.00  0.00    +0.000 C 
BRANCH  23  24
ATOM     24  C   UNL     1       4.321   4.181  17.613  0.00  0.00    +0.000 C 
BRANCH  24  25
ATOM     25  C   UNL     1       5.856   4.380  17.496  0.00  0.00    +0.000 C 
ATOM     26  N   UNL     1       6.599   4.623  18.536  0.00  0.00    +0.000 NA
BRANCH  25  29
ATOM     27  C   UNL     1       6.389   3.983  13.643  0.00  0.00    +0.000 C 
ATOM     28  N   UNL     1       5.800   4.038  14.964  0.00  0.00    +0.000 N 
ATOM     29  C   UNL     1       6.578   4.339  16.101  0.00  0.00    +0.000 C 
ATOM     30  O   UNL     1       7.756   4.552  16.027  0.00  0.00    +0.000 OA
ATOM     31  H   UNL     1       4.808   3.854  15.019  0.00  0.00    +0.000 HD
ENDBRANCH  25  29
BRANCH  26  32
ATOM     32  O   UNL     1       5.843   4.636  19.717  0.00  0.00    +0.000 OA
ATOM     33  H   UNL     1       5.227   5.374  19.566  0.00  0.00    +0.000 HD
ENDBRANCH  26  32
ENDBRANCH  24  25
ENDBRANCH  23  24
ENDBRANCH  22  23
ENDBRANCH  21  22
ENDBRANCH  20  21
ENDBRANCH  19  20
ENDBRANCH   1  19
TORSDOF 12
ENDMDL
MODEL 5
REMARK VINA RESULT:      -7.0      4.905      8.123
REMARK  Name = 
REMARK  13 active torsions:
REMARK  status: ('A' for Active; 'I' for Inactive)
REMARK    1  A    between atoms: C_1  and  N_2
REMARK    2  A    between atoms: C_3  and  C_5
REMARK    3  A    between atoms: C_5  and  C_6
REMARK    4  A    between atoms: C_6  and  C_7
REMARK    5  A    between atoms: C_7  and  C_8
REMARK    6  A    between atoms: C_8  and  C_9
REMARK    7  A    between atoms: C_9  and  C_10
REMARK    8  A    between atoms: C_10  and  C_11
REMARK    9  A    between atoms: C_11  and  N_12
REMARK   10  A    between atoms: C_13  and  C_15
REMARK   11  A    between atoms: C_17  and  C_18
REMARK   12  A    between atoms: C_21  and  N_22
REMARK   13  A    between atoms: N_27  and  O_28
REMARK                            x       y       z     vdW  Elec       q    Type
REMARK                         _______ _______ _______ _____ _____    ______ ____
ROOT
ATOM      1  N   UNL     1       2.113   7.501  19.444  0.00  0.00    +0.000 N 
ATOM      2  C   UNL     1       1.899   8.572  18.613  0.00  0.00    +0.000 C 
ATOM      3  O   UNL     1       2.423   8.673  17.491  0.00  0.00    +0.000 OA
ATOM      4  H   UNL     1       1.540   7.434  20.281  0.00  0.00    +0.000 HD
ENDROOT
BRANCH   2   5
ATOM      5  C   UNL     1       0.996   9.585  19.139  0.00  0.00    +0.000 A 
ATOM      6  C   UNL     1       1.070  10.238  20.387  0.00  0.00    +0.000 A 
ATOM      7  C   UNL     1       0.027  11.129  20.383  0.00  0.00    +0.000 A 
ATOM      8  O   UNL     1      -0.676  10.982  19.229  0.00  0.00    +0.000 OA
ATOM      9  N   UNL     1      -0.067  10.029  18.432  0.00  0.00    +0.000 NA
BRANCH   7  10
ATOM     10  C   UNL     1      -0.431  12.123  21.337  0.00  0.00    +0.000 A 
ATOM     11  C   UNL     1       0.222  13.361  21.399  0.00  0.00    +0.000 A 
ATOM     12  C   UNL     1      -0.104  14.291  22.383  0.00  0.00    +0.000 A 
ATOM     13  C   UNL     1      -1.126  14.029  23.297  0.00  0.00    +0.000 A 
ATOM     14  C   UNL     1      -1.787  12.799  23.227  0.00  0.00    +0.000 A 
ATOM     15  C   UNL     1      -1.466  11.863  22.239  0.00  0.00    +0.000 A 
BRANCH  13  16
ATOM     16  N   UNL     1      -1.308  14.868  24.397  0.00  0.00    +0.000 N 
ATOM     17  H   UNL     1      -1.897  15.675  24.214  0.00  0.00    +0.000 HD
ATOM     18  H   UNL     1      -1.560  14.387  25.254  0.00  0.00    +0.000 HD
ENDBRANCH  13  16
ENDBRANCH   7  10
ENDBRANCH   2   5
BRANCH   1  19
ATOM     19  C   UNL     1       2.985   6.411  19.082  0.00  0.00    +0.000 C 
BRANCH  19  20
ATOM     20  C   UNL     1       2.416   5.085  19.563  0.00  0.00    +0.000 C 
BRANCH  20  21
ATOM     21  C   UNL     1       3.099   3.912  18.876  0.00  0.00    +0.000 C 
BRANCH  21  22
ATOM     22  C   UNL     1       3.126   4.077  17.352  0.00  0.00    +0.000 C 
BRANCH  22  23
ATOM     23  C   UNL     1       4.549   3.743  16.890  0.00  0.00    +0.000 C 
BRANCH  23  24
ATOM     24  C   UNL     1       5.551   4.892  16.834  0.00  0.00    +0.000 C 
BRANCH  24  25
ATOM     25  C   UNL     1       6.890   4.550  16.126  0.00  0.00    +0.000 C 
ATOM     26  N   UNL     1       7.970   4.273  16.796  0.00  0.00    +0.000 NA
BRANCH  25  29
ATOM     27  C   UNL     1       6.362   3.532  12.389  0.00  0.00    +0.000 C 
ATOM     28  N   UNL     1       6.305   3.584  13.833  0.00  0.00    +0.000 N 
ATOM     29  C   UNL     1       7.010   4.567  14.559  0.00  0.00    +0.000 C 
ATOM     30  O   UNL     1       7.691   5.391  14.017  0.00  0.00    +0.000 OA
ATOM     31  H   UNL     1       5.731   2.884  14.284  0.00  0.00    +0.000 HD
ENDBRANCH  25  29
BRANCH  26  32
ATOM     32  O   UNL     1       7.738   4.291  18.178  0.00  0.00    +0.000 OA
ATOM     33  H   UNL     1       8.529   4.744  18.521  0.00  0.00    +0.000 HD
ENDBRANCH  26  32
ENDBRANCH  24  25
ENDBRANCH  23  24
ENDBRANCH  22  23
ENDBRANCH  21  22
ENDBRANCH  20  21
ENDBRANCH  19  20
ENDBRANCH   1  19
TORSDOF 12
ENDMDL
MODEL 6
REMARK VINA RESULT:      -7.0      4.711      9.057
REMARK  Name = 
REMARK  13 active torsions:
REMARK  status: ('A' for Active; 'I' for Inactive)
REMARK    1  A    between atoms: C_1  and  N_2
REMARK    2  A    between atoms: C_3  and  C_5
REMARK    3  A    between atoms: C_5  and  C_6
REMARK    4  A    between atoms: C_6  and  C_7
REMARK    5  A    between atoms: C_7  and  C_8
REMARK    6  A    between atoms: C_8  and  C_9
REMARK    7  A    between atoms: C_9  and  C_10
REMARK    8  A    between atoms: C_10  and  C_11
REMARK    9  A    between atoms: C_11  and  N_12
REMARK   10  A    between atoms: C_13  and  C_15
REMARK   11  A    between atoms: C_17  and  C_18
REMARK   12  A    between atoms: C_21  and  N_22
REMARK   13  A    between atoms: N_27  and  O_28
REMARK                            x       y       z     vdW  Elec       q    Type
REMARK                         _______ _______ _______ _____ _____    ______ ____
ROOT
ATOM      1  N   UNL     1       1.812   8.088  20.007  0.00  0.00    +0.000 N 
ATOM      2  C   UNL     1       1.269   9.319  19.732  0.00  0.00    +0.000 C 
ATOM      3  O   UNL     1       1.262   9.816  18.593  0.00  0.00    +0.000 OA
ATOM      4  H   UNL     1       1.653   7.701  20.934  0.00  0.00    +0.000 HD
ENDROOT
BRANCH   2   5
ATOM      5  C   UNL     1       0.685  10.001  20.878  0.00  0.00    +0.000 A 
ATOM      6  C   UNL     1      -0.256  11.052  20.864  0.00  0.00    +0.000 A 
ATOM      7  C   UNL     1      -0.521  11.308  22.185  0.00  0.00    +0.000 A 
ATOM      8  O   UNL     1       0.259  10.504  22.956  0.00  0.00    +0.000 OA
ATOM      9  N   UNL     1       1.006   9.667  22.147  0.00  0.00    +0.000 NA
BRANCH   7  10
ATOM     10  C   UNL     1      -1.418  12.231  22.856  0.00  0.00    +0.000 A 
ATOM     11  C   UNL     1      -0.954  13.508  23.196  0.00  0.00    +0.000 A 
ATOM     12  C   UNL     1      -1.740  14.376  23.951  0.00  0.00    +0.000 A 
ATOM     13  C   UNL     1      -3.030  14.009  24.338  0.00  0.00    +0.000 A 
ATOM     14  C   UNL     1      -3.499  12.740  23.987  0.00  0.00    +0.000 A 
ATOM     15  C   UNL     1      -2.715  11.866  23.227  0.00  0.00    +0.000 A 
BRANCH  13  16
ATOM     16  N   UNL     1      -3.729  14.792  25.258  0.00  0.00    +0.000 N 
ATOM     17  H   UNL     1      -3.597  14.516  26.226  0.00  0.00    +0.000 HD
ATOM     18  H   UNL     1      -3.629  15.791  25.119  0.00  0.00    +0.000 HD
ENDBRANCH  13  16
ENDBRANCH   7  10
ENDBRANCH   2   5
BRANCH   1  19
ATOM     19  C   UNL     1       2.437   7.281  18.990  0.00  0.00    +0.000 C 
BRANCH  19  20
ATOM     20  C   UNL     1       2.945   5.974  19.578  0.00  0.00    +0.000 C 
BRANCH  20  21
ATOM     21  C   UNL     1       3.706   5.162  18.540  0.00  0.00    +0.000 C 
BRANCH  21  22
ATOM     22  C   UNL     1       4.911   4.437  19.151  0.00  0.00    +0.000 C 
BRANCH  22  23
ATOM     23  C   UNL     1       6.002   5.489  19.376  0.00  0.00    +0.000 C 
BRANCH  23  24
ATOM     24  C   UNL     1       7.235   5.420  18.479  0.00  0.00    +0.000 C 
BRANCH  24  25
ATOM     25  C   UNL     1       7.142   6.267  17.182  0.00  0.00    +0.000 C 
ATOM     26  N   UNL     1       7.619   7.475  17.115  0.00  0.00    +0.000 NA
BRANCH  25  29
ATOM     27  C   UNL     1       6.322   3.955  14.138  0.00  0.00    +0.000 C 
ATOM     28  N   UNL     1       6.927   4.530  15.320  0.00  0.00    +0.000 N 
ATOM     29  C   UNL     1       6.425   5.714  15.898  0.00  0.00    +0.000 C 
ATOM     30  O   UNL     1       5.486   6.299  15.435  0.00  0.00    +0.000 OA
ATOM     31  H   UNL     1       7.720   4.033  15.703  0.00  0.00    +0.000 HD
ENDBRANCH  25  29
BRANCH  26  32
ATOM     32  O   UNL     1       8.232   7.855  18.318  0.00  0.00    +0.000 OA
ATOM     33  H   UNL     1       8.410   8.801  18.176  0.00  0.00    +0.000 HD
ENDBRANCH  26  32
ENDBRANCH  24  25
ENDBRANCH  23  24
ENDBRANCH  22  23
ENDBRANCH  21  22
ENDBRANCH  20  21
ENDBRANCH  19  20
ENDBRANCH   1  19
TORSDOF 12
ENDMDL
MODEL 7
REMARK VINA RESULT:      -6.9      3.775      7.541
REMARK  Name = 
REMARK  13 active torsions:
REMARK  status: ('A' for Active; 'I' for Inactive)
REMARK    1  A    between atoms: C_1  and  N_2
REMARK    2  A    between atoms: C_3  and  C_5
REMARK    3  A    between atoms: C_5  and  C_6
REMARK    4  A    between atoms: C_6  and  C_7
REMARK    5  A    between atoms: C_7  and  C_8
REMARK    6  A    between atoms: C_8  and  C_9
REMARK    7  A    between atoms: C_9  and  C_10
REMARK    8  A    between atoms: C_10  and  C_11
REMARK    9  A    between atoms: C_11  and  N_12
REMARK   10  A    between atoms: C_13  and  C_15
REMARK   11  A    between atoms: C_17  and  C_18
REMARK   12  A    between atoms: C_21  and  N_22
REMARK   13  A    between atoms: N_27  and  O_28
REMARK                            x       y       z     vdW  Elec       q    Type
REMARK                         _______ _______ _______ _____ _____    ______ ____
ROOT
ATOM      1  N   UNL     1       2.852   5.248  20.377  0.00  0.00    +0.000 N 
ATOM      2  C   UNL     1       3.125   6.307  19.548  0.00  0.00    +0.000 C 
ATOM      3  O   UNL     1       4.057   6.300  18.726  0.00  0.00    +0.000 OA
ATOM      4  H   UNL     1       1.992   5.284  20.918  0.00  0.00    +0.000 HD
ENDROOT
BRANCH   2   5
ATOM      5  C   UNL     1       2.228   7.444  19.691  0.00  0.00    +0.000 A 
ATOM      6  C   UNL     1       1.467   7.801  20.825  0.00  0.00    +0.000 A 
ATOM      7  C   UNL     1       0.835   8.966  20.474  0.00  0.00    +0.000 A 
ATOM      8  O   UNL     1       1.143   9.266  19.183  0.00  0.00    +0.000 OA
ATOM      9  N   UNL     1       2.031   8.328  18.689  0.00  0.00    +0.000 NA
BRANCH   7  10
ATOM     10  C   UNL     1      -0.054   9.866  21.188  0.00  0.00    +0.000 A 
ATOM     11  C   UNL     1      -0.571  10.985  20.522  0.00  0.00    +0.000 A 
ATOM     12  C   UNL     1      -1.322  11.938  21.207  0.00  0.00    +0.000 A 
ATOM     13  C   UNL     1      -1.621  11.768  22.560  0.00  0.00    +0.000 A 
ATOM     14  C   UNL     1      -1.117  10.644  23.221  0.00  0.00    +0.000 A 
ATOM     15  C   UNL     1      -0.364   9.683  22.538  0.00  0.00    +0.000 A 
BRANCH  13  16
ATOM     16  N   UNL     1      -2.194  12.815  23.282  0.00  0.00    +0.000 N 
ATOM     17  H   UNL     1      -2.278  13.684  22.764  0.00  0.00    +0.000 HD
ATOM     18  H   UNL     1      -3.047  12.569  23.772  0.00  0.00    +0.000 HD
ENDBRANCH  13  16
ENDBRANCH   7  10
ENDBRANCH   2   5
BRANCH   1  19
ATOM     19  C   UNL     1       3.645   4.044  20.370  0.00  0.00    +0.000 C 
BRANCH  19  20
ATOM     20  C   UNL     1       3.078   3.032  19.386  0.00  0.00    +0.000 C 
BRANCH  20  21
ATOM     21  C   UNL     1       3.975   2.887  18.167  0.00  0.00    +0.000 C 
BRANCH  21  22
ATOM     22  C   UNL     1       3.279   3.356  16.884  0.00  0.00    +0.000 C 
BRANCH  22  23
ATOM     23  C   UNL     1       4.265   4.269  16.147  0.00  0.00    +0.000 C 
BRANCH  23  24
ATOM     24  C   UNL     1       5.703   3.778  16.010  0.00  0.00    +0.000 C 
BRANCH  24  25
ATOM     25  C   UNL     1       6.762   4.903  15.870  0.00  0.00    +0.000 C 
ATOM     26  N   UNL     1       7.309   5.195  14.726  0.00  0.00    +0.000 NA
BRANCH  25  29
ATOM     27  C   UNL     1       7.814   5.708  19.548  0.00  0.00    +0.000 C 
ATOM     28  N   UNL     1       7.365   5.033  18.350  0.00  0.00    +0.000 N 
ATOM     29  C   UNL     1       7.257   5.716  17.121  0.00  0.00    +0.000 C 
ATOM     30  O   UNL     1       7.520   6.880  17.016  0.00  0.00    +0.000 OA
ATOM     31  H   UNL     1       7.142   4.051  18.447  0.00  0.00    +0.000 HD
ENDBRANCH  25  29
BRANCH  26  32
ATOM     32  O   UNL     1       6.790   4.405  13.691  0.00  0.00    +0.000 OA
ATOM     33  H   UNL     1       6.279   3.731  14.174  0.00  0.00    +0.000 HD
ENDBRANCH  26  32
ENDBRANCH  24  25
ENDBRANCH  23  24
ENDBRANCH  22  23
ENDBRANCH  21  22
ENDBRANCH  20  21
ENDBRANCH  19  20
ENDBRANCH   1  19
TORSDOF 12
ENDMDL
MODEL 8
REMARK VINA RESULT:      -6.9      4.587      7.168
REMARK  Name = 
REMARK  13 active torsions:
REMARK  status: ('A' for Active; 'I' for Inactive)
REMARK    1  A    between atoms: C_1  and  N_2
REMARK    2  A    between atoms: C_3  and  C_5
REMARK    3  A    between atoms: C_5  and  C_6
REMARK    4  A    between atoms: C_6  and  C_7
REMARK    5  A    between atoms: C_7  and  C_8
REMARK    6  A    between atoms: C_8  and  C_9
REMARK    7  A    between atoms: C_9  and  C_10
REMARK    8  A    between atoms: C_10  and  C_11
REMARK    9  A    between atoms: C_11  and  N_12
REMARK   10  A    between atoms: C_13  and  C_15
REMARK   11  A    between atoms: C_17  and  C_18
REMARK   12  A    between atoms: C_21  and  N_22
REMARK   13  A    between atoms: N_27  and  O_28
REMARK                            x       y       z     vdW  Elec       q    Type
REMARK                         _______ _______ _______ _____ _____    ______ ____
ROOT
ATOM      1  N   UNL     1       1.825   5.021  19.844  0.00  0.00    +0.000 N 
ATOM      2  C   UNL     1       2.801   5.965  19.647  0.00  0.00    +0.000 C 
ATOM      3  O   UNL     1       4.010   5.737  19.824  0.00  0.00    +0.000 OA
ATOM      4  H   UNL     1       0.881   5.251  19.546  0.00  0.00    +0.000 HD
ENDROOT
BRANCH   2   5
ATOM      5  C   UNL     1       2.316   7.263  19.199  0.00  0.00    +0.000 A 
ATOM      6  C   UNL     1       1.481   8.157  19.901  0.00  0.00    +0.000 A 
ATOM      7  C   UNL     1       1.358   9.247  19.077  0.00  0.00    +0.000 A 
ATOM      8  O   UNL     1       2.026   9.003  17.918  0.00  0.00    +0.000 OA
ATOM      9  N   UNL     1       2.646   7.769  17.990  0.00  0.00    +0.000 NA
BRANCH   7  10
ATOM     10  C   UNL     1       0.675  10.521  19.214  0.00  0.00    +0.000 A 
ATOM     11  C   UNL     1      -0.478  10.763  18.455  0.00  0.00    +0.000 A 
ATOM     12  C   UNL     1      -1.087  12.016  18.463  0.00  0.00    +0.000 A 
ATOM     13  C   UNL     1      -0.591  13.041  19.270  0.00  0.00    +0.000 A 
ATOM     14  C   UNL     1       0.552  12.797  20.037  0.00  0.00    +0.000 A 
ATOM     15  C   UNL     1       1.166  11.540  20.035  0.00  0.00    +0.000 A 
BRANCH  13  16
ATOM     16  N   UNL     1      -1.076  14.341  19.120  0.00  0.00    +0.000 N 
ATOM     17  H   UNL     1      -1.473  14.536  18.206  0.00  0.00    +0.000 HD
ATOM     18  H   UNL     1      -1.670  14.657  19.879  0.00  0.00    +0.000 HD
ENDBRANCH  13  16
ENDBRANCH   7  10
ENDBRANCH   2   5
BRANCH   1  19
ATOM     19  C   UNL     1       2.130   3.686  20.294  0.00  0.00    +0.000 C 
BRANCH  19  20
ATOM     20  C   UNL     1       2.966   2.947  19.260  0.00  0.00    +0.000 C 
BRANCH  20  21
ATOM     21  C   UNL     1       2.224   2.826  17.937  0.00  0.00    +0.000 C 
BRANCH  21  22
ATOM     22  C   UNL     1       2.968   3.530  16.796  0.00  0.00    +0.000 C 
BRANCH  22  23
ATOM     23  C   UNL     1       4.463   3.458  17.124  0.00  0.00    +0.000 C 
BRANCH  23  24
ATOM     24  C   UNL     1       5.284   4.728  16.923  0.00  0.00    +0.000 C 
BRANCH  24  25
ATOM     25  C   UNL     1       6.664   4.509  16.247  0.00  0.00    +0.000 C 
ATOM     26  N   UNL     1       7.756   4.374  16.941  0.00  0.00    +0.000 NA
BRANCH  25  29
ATOM     27  C   UNL     1       7.900   5.433  12.656  0.00  0.00    +0.000 C 
ATOM     28  N   UNL     1       7.707   5.394  14.088  0.00  0.00    +0.000 N 
ATOM     29  C   UNL     1       6.809   4.483  14.682  0.00  0.00    +0.000 C 
ATOM     30  O   UNL     1       6.161   3.713  14.031  0.00  0.00    +0.000 OA
ATOM     31  H   UNL     1       8.254   6.048  14.631  0.00  0.00    +0.000 HD
ENDBRANCH  25  29
BRANCH  26  32
ATOM     32  O   UNL     1       7.499   4.415  18.319  0.00  0.00    +0.000 OA
ATOM     33  H   UNL     1       8.095   3.729  18.667  0.00  0.00    +0.000 HD
ENDBRANCH  26  32
ENDBRANCH  24  25
ENDBRANCH  23  24
ENDBRANCH  22  23
ENDBRANCH  21  22
ENDBRANCH  20  21
ENDBRANCH  19  20
ENDBRANCH   1  19
TORSDOF 12
ENDMDL
MODEL 9
REMARK VINA RESULT:      -6.9      4.829      8.999
REMARK  Name = 
REMARK  13 active torsions:
REMARK  status: ('A' for Active; 'I' for Inactive)
REMARK    1  A    between atoms: C_1  and  N_2
REMARK    2  A    between atoms: C_3  and  C_5
REMARK    3  A    between atoms: C_5  and  C_6
REMARK    4  A    between atoms: C_6  and  C_7
REMARK    5  A    between atoms: C_7  and  C_8
REMARK    6  A    between atoms: C_8  and  C_9
REMARK    7  A    between atoms: C_9  and  C_10
REMARK    8  A    between atoms: C_10  and  C_11
REMARK    9  A    between atoms: C_11  and  N_12
REMARK   10  A    between atoms: C_13  and  C_15
REMARK   11  A    between atoms: C_17  and  C_18
REMARK   12  A    between atoms: C_21  and  N_22
REMARK   13  A    between atoms: N_27  and  O_28
REMARK                            x       y       z     vdW  Elec       q    Type
REMARK                         _______ _______ _______ _____ _____    ______ ____
ROOT
ATOM      1  N   UNL     1       1.504   7.650  21.059  0.00  0.00    +0.000 N 
ATOM      2  C   UNL     1       1.021   8.849  20.597  0.00  0.00    +0.000 C 
ATOM      3  O   UNL     1       1.096   9.194  19.405  0.00  0.00    +0.000 OA
ATOM      4  H   UNL     1       1.280   7.391  22.016  0.00  0.00    +0.000 HD
ENDROOT
BRANCH   2   5
ATOM      5  C   UNL     1       0.400   9.690  21.609  0.00  0.00    +0.000 A 
ATOM      6  C   UNL     1      -0.458  10.791  21.402  0.00  0.00    +0.000 A 
ATOM      7  C   UNL     1      -0.808  11.209  22.661  0.00  0.00    +0.000 A 
ATOM      8  O   UNL     1      -0.152  10.448  23.578  0.00  0.00    +0.000 OA
ATOM      9  N   UNL     1       0.594   9.480  22.929  0.00  0.00    +0.000 NA
BRANCH   7  10
ATOM     10  C   UNL     1      -1.686  12.257  23.150  0.00  0.00    +0.000 A 
ATOM     11  C   UNL     1      -1.167  13.543  23.351  0.00  0.00    +0.000 A 
ATOM     12  C   UNL     1      -1.943  14.541  23.937  0.00  0.00    +0.000 A 
ATOM     13  C   UNL     1      -3.271  14.294  24.287  0.00  0.00    +0.000 A 
ATOM     14  C   UNL     1      -3.793  13.015  24.074  0.00  0.00    +0.000 A 
ATOM     15  C   UNL     1      -3.020  12.010  23.483  0.00  0.00    +0.000 A 
BRANCH  13  16
ATOM     16  N   UNL     1      -3.973  15.225  25.053  0.00  0.00    +0.000 N 
ATOM     17  H   UNL     1      -4.825  15.567  24.619  0.00  0.00    +0.000 HD
ATOM     18  H   UNL     1      -4.110  14.953  26.021  0.00  0.00    +0.000 HD
ENDBRANCH  13  16
ENDBRANCH   7  10
ENDBRANCH   2   5
BRANCH   1  19
ATOM     19  C   UNL     1       2.155   6.700  20.193  0.00  0.00    +0.000 C 
BRANCH  19  20
ATOM     20  C   UNL     1       1.712   5.282  20.520  0.00  0.00    +0.000 C 
BRANCH  20  21
ATOM     21  C   UNL     1       2.176   4.300  19.454  0.00  0.00    +0.000 C 
BRANCH  21  22
ATOM     22  C   UNL     1       3.619   3.838  19.690  0.00  0.00    +0.000 C 
BRANCH  22  23
ATOM     23  C   UNL     1       4.515   4.680  18.776  0.00  0.00    +0.000 C 
BRANCH  23  24
ATOM     24  C   UNL     1       4.574   4.289  17.302  0.00  0.00    +0.000 C 
BRANCH  24  25
ATOM     25  C   UNL     1       5.782   4.875  16.524  0.00  0.00    +0.000 C 
ATOM     26  N   UNL     1       6.495   4.148  15.713  0.00  0.00    +0.000 NA
BRANCH  25  29
ATOM     27  C   UNL     1       7.855   7.969  17.711  0.00  0.00    +0.000 C 
ATOM     28  N   UNL     1       7.378   6.621  17.489  0.00  0.00    +0.000 N 
ATOM     29  C   UNL     1       6.226   6.369  16.715  0.00  0.00    +0.000 C 
ATOM     30  O   UNL     1       5.589   7.255  16.218  0.00  0.00    +0.000 OA
ATOM     31  H   UNL     1       7.919   5.880  17.914  0.00  0.00    +0.000 HD
ENDBRANCH  25  29
BRANCH  26  32
ATOM     32  O   UNL     1       6.003   2.838  15.628  0.00  0.00    +0.000 OA
ATOM     33  H   UNL     1       5.341   2.813  16.341  0.00  0.00    +0.000 HD
ENDBRANCH  26  32
ENDBRANCH  24  25
ENDBRANCH  23  24
ENDBRANCH  22  23
ENDBRANCH  21  22
ENDBRANCH  20  21
ENDBRANCH  19  20
ENDBRANCH   1  19
TORSDOF 12
ENDMDL
