MODEL 1
REMARK VINA RESULT:      -8.1      0.000      0.000
REMARK  Name = 
REMARK  5 active torsions:
REMARK  status: ('A' for Active; 'I' for Inactive)
REMARK    1  A    between atoms: N_3  and  C_4
REMARK    2  A    between atoms: N_10  and  C_11
REMARK    3  A    between atoms: N_14  and  C_15
REMARK    4  A    between atoms: C_15  and  C_16
REMARK    5  A    between atoms: C_16  and  C_17
REMARK                            x       y       z     vdW  Elec       q    Type
REMARK                         _______ _______ _______ _____ _____    ______ ____
ROOT
ATOM      1  C   UNL     1       5.145   5.736  17.307  0.00  0.00    +0.000 C 
ATOM      2  C   UNL     1       5.948   5.110  18.442  0.00  0.00    +0.000 C 
ATOM      3  C   UNL     1       6.847   6.121  19.144  0.00  0.00    +0.000 C 
ATOM      4  N   UNL     1       7.727   6.813  18.192  0.00  0.00    +0.000 NA
ATOM      5  C   UNL     1       6.936   7.521  17.170  0.00  0.00    +0.000 C 
ATOM      6  C   UNL     1       6.054   6.549  16.383  0.00  0.00    +0.000 C 
ENDROOT
BRANCH   1  10
ATOM      7  O   UNL     1       1.999   7.045  18.565  0.00  0.00    +0.000 OA
ATOM      8  C   UNL     1       2.825   6.192  18.274  0.00  0.00    +0.000 C 
ATOM      9  N   UNL     1       2.629   4.853  18.410  0.00  0.00    +0.000 N 
ATOM     10  N   UNL     1       4.052   6.564  17.817  0.00  0.00    +0.000 N 
ATOM     11  H   UNL     1       3.193   4.263  17.823  0.00  0.00    +0.000 HD
ATOM     12  H   UNL     1       4.109   7.568  17.692  0.00  0.00    +0.000 HD
BRANCH   9  13
ATOM     13  C   UNL     1       1.376   4.286  18.887  0.00  0.00    +0.000 C 
ATOM     14  C   UNL     1       1.357   2.760  18.727  0.00  0.00    +0.000 C 
ATOM     15  C   UNL     1       2.333   2.061  19.673  0.00  0.00    +0.000 C 
ATOM     16  C   UNL     1       2.127   2.481  21.127  0.00  0.00    +0.000 C 
ATOM     17  C   UNL     1       2.137   3.997  21.299  0.00  0.00    +0.000 C 
ATOM     18  C   UNL     1       1.149   4.679  20.352  0.00  0.00    +0.000 C 
ENDBRANCH   9  13
ENDBRANCH   1  10
BRANCH   4  19
ATOM     19  C   UNL     1       8.624   7.765  18.886  0.00  0.00    +0.000 C 
BRANCH  19  20
ATOM     20  C   UNL     1       8.523   9.204  18.346  0.00  0.00    +0.000 C 
BRANCH  20  21
ATOM     21  C   UNL     1       9.222  10.195  19.220  0.00  0.00    +0.000 A 
ATOM     22  C   UNL     1       9.044  10.344  20.581  0.00  0.00    +0.000 A 
ATOM     23  N   UNL     1       9.852  11.360  21.010  0.00  0.00    +0.000 N 
ATOM     24  C   UNL     1      10.561  11.884  19.956  0.00  0.00    +0.000 A 
ATOM     25  C   UNL     1      11.495  12.927  19.929  0.00  0.00    +0.000 A 
ATOM     26  C   UNL     1      12.065  13.257  18.697  0.00  0.00    +0.000 A 
ATOM     27  C   UNL     1      11.707  12.576  17.537  0.00  0.00    +0.000 A 
ATOM     28  C   UNL     1      10.768  11.535  17.579  0.00  0.00    +0.000 A 
ATOM     29  C   UNL     1      10.184  11.177  18.813  0.00  0.00    +0.000 A 
ATOM     30  H   UNL     1       9.921  11.687  21.963  0.00  0.00    +0.000 HD
ENDBRANCH  20  21
ENDBRANCH  19  20
ENDBRANCH   4  19
TORSDOF 5
ENDMDL
MODEL 2
REMARK VINA RESULT:      -8.1      5.614      9.337
REMARK  Name = 
REMARK  5 active torsions:
REMARK  status: ('A' for Active; 'I' for Inactive)
REMARK    1  A    between atoms: N_3  and  C_4
REMARK    2  A    between atoms: N_10  and  C_11
REMARK    3  A    between atoms: N_14  and  C_15
REMARK    4  A    between atoms: C_15  and  C_16
REMARK    5  A    between atoms: C_16  and  C_17
REMARK                            x       y       z     vdW  Elec       q    Type
REMARK                         _______ _______ _______ _____ _____    ______ ____
ROOT
ATOM      1  C   UNL     1       0.499   9.690  19.808  0.00  0.00    +0.000 C 
ATOM      2  C   UNL     1       0.849   8.335  20.411  0.00  0.00    +0.000 C 
ATOM      3  C   UNL     1       2.192   7.808  19.918  0.00  0.00    +0.000 C 
ATOM      4  N   UNL     1       2.248   7.765  18.450  0.00  0.00    +0.000 NA
ATOM      5  C   UNL     1       2.033   9.107  17.880  0.00  0.00    +0.000 C 
ATOM      6  C   UNL     1       0.670   9.669  18.288  0.00  0.00    +0.000 C 
ENDROOT
BRANCH   1  10
ATOM      7  O   UNL     1       1.730  12.781  21.267  0.00  0.00    +0.000 OA
ATOM      8  C   UNL     1       0.896  11.964  20.903  0.00  0.00    +0.000 C 
ATOM      9  N   UNL     1      -0.450  12.144  20.995  0.00  0.00    +0.000 N 
ATOM     10  N   UNL     1       1.297  10.763  20.403  0.00  0.00    +0.000 N 
ATOM     11  H   UNL     1      -1.011  11.604  20.358  0.00  0.00    +0.000 HD
ATOM     12  H   UNL     1       2.305  10.719  20.315  0.00  0.00    +0.000 HD
BRANCH   9  13
ATOM     13  C   UNL     1      -1.046  13.368  21.508  0.00  0.00    +0.000 C 
ATOM     14  C   UNL     1      -2.285  13.768  20.698  0.00  0.00    +0.000 C 
ATOM     15  C   UNL     1      -3.455  12.805  20.904  0.00  0.00    +0.000 C 
ATOM     16  C   UNL     1      -3.784  12.608  22.383  0.00  0.00    +0.000 C 
ATOM     17  C   UNL     1      -2.558  12.217  23.202  0.00  0.00    +0.000 C 
ATOM     18  C   UNL     1      -1.402  13.194  22.990  0.00  0.00    +0.000 C 
ENDBRANCH   9  13
ENDBRANCH   1  10
BRANCH   4  19
ATOM     19  C   UNL     1       3.541   7.217  17.979  0.00  0.00    +0.000 C 
BRANCH  19  20
ATOM     20  C   UNL     1       3.423   5.801  17.384  0.00  0.00    +0.000 C 
BRANCH  20  21
ATOM     21  C   UNL     1       3.785   4.734  18.366  0.00  0.00    +0.000 A 
ATOM     22  C   UNL     1       5.016   4.120  18.480  0.00  0.00    +0.000 A 
ATOM     23  N   UNL     1       4.943   3.195  19.484  0.00  0.00    +0.000 N 
ATOM     24  C   UNL     1       3.683   3.188  20.036  0.00  0.00    +0.000 A 
ATOM     25  C   UNL     1       3.161   2.411  21.076  0.00  0.00    +0.000 A 
ATOM     26  C   UNL     1       1.825   2.615  21.432  0.00  0.00    +0.000 A 
ATOM     27  C   UNL     1       1.042   3.554  20.766  0.00  0.00    +0.000 A 
ATOM     28  C   UNL     1       1.579   4.323  19.724  0.00  0.00    +0.000 A 
ATOM     29  C   UNL     1       2.928   4.141  19.351  0.00  0.00    +0.000 A 
ATOM     30  H   UNL     1       5.699   2.596  19.781  0.00  0.00    +0.000 HD
ENDBRANCH  20  21
ENDBRANCH  19  20
ENDBRANCH   4  19
TORSDOF 5
ENDMDL
MODEL 3
REMARK VINA RESULT:      -7.8      4.101      7.958
REMARK  Name = 
REMARK  5 active torsions:
REMARK  status: ('A' for Active; 'I' for Inactive)
REMARK    1  A    between atoms: N_3  and  C_4
REMARK    2  A    between atoms: N_10  and  C_11
REMARK    3  A    between atoms: N_14  and  C_15
REMARK    4  A    between atoms: C_15  and  C_16
REMARK    5  A    between atoms: C_16  and  C_17
REMARK                            x       y       z     vdW  Elec       q    Type
REMARK                         _______ _______ _______ _____ _____    ______ ____
ROOT
ATOM      1  C   UNL     1       3.552   2.912  18.630  0.00  0.00    +0.000 C 
ATOM      2  C   UNL     1       2.088   2.725  19.013  0.00  0.00    +0.000 C 
ATOM      3  C   UNL     1       1.372   4.050  19.241  0.00  0.00    +0.000 C 
ATOM      4  N   UNL     1       2.074   4.879  20.230  0.00  0.00    +0.000 NA
ATOM      5  C   UNL     1       3.452   5.161  19.791  0.00  0.00    +0.000 C 
ATOM      6  C   UNL     1       4.248   3.868  19.601  0.00  0.00    +0.000 C 
ENDROOT
BRANCH   1  10
ATOM      7  O   UNL     1       4.657   4.371  15.492  0.00  0.00    +0.000 OA
ATOM      8  C   UNL     1       4.767   3.937  16.631  0.00  0.00    +0.000 C 
ATOM      9  N   UNL     1       5.927   3.922  17.341  0.00  0.00    +0.000 N 
ATOM     10  N   UNL     1       3.689   3.386  17.252  0.00  0.00    +0.000 N 
ATOM     11  H   UNL     1       5.831   3.894  18.341  0.00  0.00    +0.000 HD
ATOM     12  H   UNL     1       2.852   3.478  16.689  0.00  0.00    +0.000 HD
BRANCH   9  13
ATOM     13  C   UNL     1       7.173   4.470  16.822  0.00  0.00    +0.000 C 
ATOM     14  C   UNL     1       6.963   5.870  16.231  0.00  0.00    +0.000 C 
ATOM     15  C   UNL     1       6.648   6.916  17.302  0.00  0.00    +0.000 C 
ATOM     16  C   UNL     1       7.684   6.923  18.423  0.00  0.00    +0.000 C 
ATOM     17  C   UNL     1       7.907   5.535  19.015  0.00  0.00    +0.000 C 
ATOM     18  C   UNL     1       8.230   4.505  17.933  0.00  0.00    +0.000 C 
ENDBRANCH   9  13
ENDBRANCH   1  10
BRANCH   4  19
ATOM     19  C   UNL     1       1.352   6.149  20.476  0.00  0.00    +0.000 C 
BRANCH  19  20
ATOM     20  C   UNL     1       2.201   7.400  20.187  0.00  0.00    +0.000 C 
BRANCH  20  21
ATOM     21  C   UNL     1       1.372   8.636  20.045  0.00  0.00    +0.000 A 
ATOM     22  C   UNL     1       1.195   9.365  18.887  0.00  0.00    +0.000 A 
ATOM     23  N   UNL     1       0.380  10.426  19.169  0.00  0.00    +0.000 N 
ATOM     24  C   UNL     1       0.016  10.409  20.494  0.00  0.00    +0.000 A 
ATOM     25  C   UNL     1      -0.798  11.292  21.215  0.00  0.00    +0.000 A 
ATOM     26  C   UNL     1      -0.996  11.030  22.573  0.00  0.00    +0.000 A 
ATOM     27  C   UNL     1      -0.397   9.933  23.186  0.00  0.00    +0.000 A 
ATOM     28  C   UNL     1       0.418   9.060  22.451  0.00  0.00    +0.000 A 
ATOM     29  C   UNL     1       0.628   9.298  21.076  0.00  0.00    +0.000 A 
ATOM     30  H   UNL     1       0.087  11.129  18.505  0.00  0.00    +0.000 HD
ENDBRANCH  20  21
ENDBRANCH  19  20
ENDBRANCH   4  19
TORSDOF 5
ENDMDL
MODEL 4
REMARK VINA RESULT:      -7.8      4.762      8.790
REMARK  Name = 
REMARK  5 active torsions:
REMARK  status: ('A' for Active; 'I' for Inactive)
REMARK    1  A    between atoms: N_3  and  C_4
REMARK    2  A    between atoms: N_10  and  C_11
REMARK    3  A    between atoms: N_14  and  C_15
REMARK    4  A    between atoms: C_15  and  C_16
REMARK    5  A    between atoms: C_16  and  C_17
REMARK                            x       y       z     vdW  Elec       q    Type
REMARK                         _______ _______ _______ _____ _____    ______ ____
ROOT
ATOM      1  C   UNL     1       7.028   4.410  15.841  0.00  0.00    +0.000 C 
ATOM      2  C   UNL     1       5.518   4.427  15.627  0.00  0.00    +0.000 C 
ATOM      3  C   UNL     1       4.880   5.735  16.080  0.00  0.00    +0.000 C 
ATOM      4  N   UNL     1       5.220   6.045  17.476  0.00  0.00    +0.000 NA
ATOM      5  C   UNL     1       6.680   6.152  17.647  0.00  0.00    +0.000 C 
ATOM      6  C   UNL     1       7.378   4.844  17.265  0.00  0.00    +0.000 C 
ENDROOT
BRANCH   1  10
ATOM      7  O   UNL     1       8.490   5.876  12.857  0.00  0.00    +0.000 OA
ATOM      8  C   UNL     1       7.770   5.130  13.506  0.00  0.00    +0.000 C 
ATOM      9  N   UNL     1       6.956   4.183  12.966  0.00  0.00    +0.000 N 
ATOM     10  N   UNL     1       7.717   5.250  14.860  0.00  0.00    +0.000 N 
ATOM     11  H   UNL     1       6.708   3.419  13.570  0.00  0.00    +0.000 HD
ATOM     12  H   UNL     1       8.384   5.934  15.196  0.00  0.00    +0.000 HD
BRANCH   9  13
ATOM     13  C   UNL     1       6.890   3.928  11.534  0.00  0.00    +0.000 C 
ATOM     14  C   UNL     1       7.376   2.513  11.197  0.00  0.00    +0.000 C 
ATOM     15  C   UNL     1       6.418   1.430  11.697  0.00  0.00    +0.000 C 
ATOM     16  C   UNL     1       4.985   1.666  11.222  0.00  0.00    +0.000 C 
ATOM     17  C   UNL     1       4.492   3.073  11.546  0.00  0.00    +0.000 C 
ATOM     18  C   UNL     1       5.456   4.141  11.031  0.00  0.00    +0.000 C 
ENDBRANCH   9  13
ENDBRANCH   1  10
BRANCH   4  19
ATOM     19  C   UNL     1       4.566   7.297  17.922  0.00  0.00    +0.000 C 
BRANCH  19  20
ATOM     20  C   UNL     1       3.028   7.236  17.864  0.00  0.00    +0.000 C 
BRANCH  20  21
ATOM     21  C   UNL     1       2.444   6.429  18.978  0.00  0.00    +0.000 A 
ATOM     22  C   UNL     1       2.205   6.873  20.263  0.00  0.00    +0.000 A 
ATOM     23  N   UNL     1       1.678   5.838  20.984  0.00  0.00    +0.000 N 
ATOM     24  C   UNL     1       1.564   4.717  20.196  0.00  0.00    +0.000 A 
ATOM     25  C   UNL     1       1.083   3.441  20.512  0.00  0.00    +0.000 A 
ATOM     26  C   UNL     1       1.089   2.477  19.500  0.00  0.00    +0.000 A 
ATOM     27  C   UNL     1       1.564   2.777  18.227  0.00  0.00    +0.000 A 
ATOM     28  C   UNL     1       2.045   4.059  17.927  0.00  0.00    +0.000 A 
ATOM     29  C   UNL     1       2.043   5.053  18.929  0.00  0.00    +0.000 A 
ATOM     30  H   UNL     1       1.412   5.881  21.957  0.00  0.00    +0.000 HD
ENDBRANCH  20  21
ENDBRANCH  19  20
ENDBRANCH   4  19
TORSDOF 5
ENDMDL
MODEL 5
REMARK VINA RESULT:      -7.8      5.843      9.803
REMARK  Name = 
REMARK  5 active torsions:
REMARK  status: ('A' for Active; 'I' for Inactive)
REMARK    1  A    between atoms: N_3  and  C_4
REMARK    2  A    between atoms: N_10  and  C_11
REMARK    3  A    between atoms: N_14  and  C_15
REMARK    4  A    between atoms: C_15  and  C_16
REMARK    5  A    between atoms: C_16  and  C_17
REMARK                            x       y       z     vdW  Elec       q    Type
REMARK                         _______ _______ _______ _____ _____    ______ ____
ROOT
ATOM      1  C   UNL     1       0.025  10.109  20.196  0.00  0.00    +0.000 C 
ATOM      2  C   UNL     1       0.585   8.771  20.668  0.00  0.00    +0.000 C 
ATOM      3  C   UNL     1       1.854   8.376  19.922  0.00  0.00    +0.000 C 
ATOM      4  N   UNL     1       1.647   8.379  18.467  0.00  0.00    +0.000 NA
ATOM      5  C   UNL     1       1.227   9.713  18.002  0.00  0.00    +0.000 C 
ATOM      6  C   UNL     1      -0.080  10.145  18.670  0.00  0.00    +0.000 C 
ENDROOT
BRANCH   1  10
ATOM      7  O   UNL     1       1.255  13.270  21.496  0.00  0.00    +0.000 OA
ATOM      8  C   UNL     1       0.429  12.404  21.241  0.00  0.00    +0.000 C 
ATOM      9  N   UNL     1      -0.900  12.503  21.513  0.00  0.00    +0.000 N 
ATOM     10  N   UNL     1       0.831  11.229  20.685  0.00  0.00    +0.000 N 
ATOM     11  H   UNL     1      -1.508  11.930  20.955  0.00  0.00    +0.000 HD
ATOM     12  H   UNL     1       1.819  11.245  20.463  0.00  0.00    +0.000 HD
BRANCH   9  13
ATOM     13  C   UNL     1      -1.494  13.691  22.110  0.00  0.00    +0.000 C 
ATOM     14  C   UNL     1      -2.563  14.300  21.194  0.00  0.00    +0.000 C 
ATOM     15  C   UNL     1      -3.808  13.418  21.082  0.00  0.00    +0.000 C 
ATOM     16  C   UNL     1      -4.377  13.048  22.450  0.00  0.00    +0.000 C 
ATOM     17  C   UNL     1      -3.321  12.448  23.373  0.00  0.00    +0.000 C 
ATOM     18  C   UNL     1      -2.089  13.346  23.481  0.00  0.00    +0.000 C 
ENDBRANCH   9  13
ENDBRANCH   1  10
BRANCH   4  19
ATOM     19  C   UNL     1       2.872   7.956  17.750  0.00  0.00    +0.000 C 
BRANCH  19  20
ATOM     20  C   UNL     1       3.732   6.957  18.546  0.00  0.00    +0.000 C 
BRANCH  20  21
ATOM     21  C   UNL     1       3.554   5.548  18.079  0.00  0.00    +0.000 A 
ATOM     22  C   UNL     1       4.251   4.939  17.055  0.00  0.00    +0.000 A 
ATOM     23  N   UNL     1       3.793   3.658  16.926  0.00  0.00    +0.000 N 
ATOM     24  C   UNL     1       2.804   3.410  17.849  0.00  0.00    +0.000 A 
ATOM     25  C   UNL     1       2.058   2.248  18.078  0.00  0.00    +0.000 A 
ATOM     26  C   UNL     1       1.100   2.281  19.094  0.00  0.00    +0.000 A 
ATOM     27  C   UNL     1       0.892   3.435  19.846  0.00  0.00    +0.000 A 
ATOM     28  C   UNL     1       1.646   4.591  19.603  0.00  0.00    +0.000 A 
ATOM     29  C   UNL     1       2.625   4.581  18.587  0.00  0.00    +0.000 A 
ATOM     30  H   UNL     1       4.124   2.985  16.251  0.00  0.00    +0.000 HD
ENDBRANCH  20  21
ENDBRANCH  19  20
ENDBRANCH   4  19
TORSDOF 5
ENDMDL
MODEL 6
REMARK VINA RESULT:      -7.7      0.617      1.220
REMARK  Name = 
REMARK  5 active torsions:
REMARK  status: ('A' for Active; 'I' for Inactive)
REMARK    1  A    between atoms: N_3  and  C_4
REMARK    2  A    between atoms: N_10  and  C_11
REMARK    3  A    between atoms: N_14  and  C_15
REMARK    4  A    between atoms: C_15  and  C_16
REMARK    5  A    between atoms: C_16  and  C_17
REMARK                            x       y       z     vdW  Elec       q    Type
REMARK                         _______ _______ _______ _____ _____    ______ ____
ROOT
ATOM      1  C   UNL     1       4.977   5.896  17.496  0.00  0.00    +0.000 C 
ATOM      2  C   UNL     1       6.008   5.168  18.351  0.00  0.00    +0.000 C 
ATOM      3  C   UNL     1       6.990   6.124  19.017  0.00  0.00    +0.000 C 
ATOM      4  N   UNL     1       7.642   7.001  18.034  0.00  0.00    +0.000 NA
ATOM      5  C   UNL     1       6.642   7.794  17.299  0.00  0.00    +0.000 C 
ATOM      6  C   UNL     1       5.658   6.890  16.553  0.00  0.00    +0.000 C 
ENDROOT
BRANCH   1  10
ATOM      7  O   UNL     1       2.272   6.763  19.761  0.00  0.00    +0.000 OA
ATOM      8  C   UNL     1       3.116   6.048  19.240  0.00  0.00    +0.000 C 
ATOM      9  N   UNL     1       3.302   4.733  19.538  0.00  0.00    +0.000 N 
ATOM     10  N   UNL     1       3.976   6.571  18.324  0.00  0.00    +0.000 N 
ATOM     11  H   UNL     1       3.741   4.178  18.825  0.00  0.00    +0.000 HD
ATOM     12  H   UNL     1       3.747   7.535  18.112  0.00  0.00    +0.000 HD
BRANCH   9  13
ATOM     13  C   UNL     1       2.471   4.020  20.497  0.00  0.00    +0.000 C 
ATOM     14  C   UNL     1       0.996   4.031  20.075  0.00  0.00    +0.000 C 
ATOM     15  C   UNL     1       0.738   3.183  18.829  0.00  0.00    +0.000 C 
ATOM     16  C   UNL     1       1.274   1.760  18.981  0.00  0.00    +0.000 C 
ATOM     17  C   UNL     1       2.738   1.735  19.407  0.00  0.00    +0.000 C 
ATOM     18  C   UNL     1       2.977   2.581  20.658  0.00  0.00    +0.000 C 
ENDBRANCH   9  13
ENDBRANCH   1  10
BRANCH   4  19
ATOM     19  C   UNL     1       8.623   7.900  18.684  0.00  0.00    +0.000 C 
BRANCH  19  20
ATOM     20  C   UNL     1       8.478   9.373  18.257  0.00  0.00    +0.000 C 
BRANCH  20  21
ATOM     21  C   UNL     1       9.227  10.306  19.151  0.00  0.00    +0.000 A 
ATOM     22  C   UNL     1       9.067  10.424  20.517  0.00  0.00    +0.000 A 
ATOM     23  N   UNL     1       9.923  11.390  20.968  0.00  0.00    +0.000 N 
ATOM     24  C   UNL     1      10.647  11.912  19.922  0.00  0.00    +0.000 A 
ATOM     25  C   UNL     1      11.627  12.911  19.916  0.00  0.00    +0.000 A 
ATOM     26  C   UNL     1      12.201  13.251  18.688  0.00  0.00    +0.000 A 
ATOM     27  C   UNL     1      11.804  12.619  17.513  0.00  0.00    +0.000 A 
ATOM     28  C   UNL     1      10.820  11.622  17.535  0.00  0.00    +0.000 A 
ATOM     29  C   UNL     1      10.229  11.255  18.763  0.00  0.00    +0.000 A 
ATOM     30  H   UNL     1      10.014  11.687  21.929  0.00  0.00    +0.000 HD
ENDBRANCH  20  21
ENDBRANCH  19  20
ENDBRANCH   4  19
TORSDOF 5
ENDMDL
MODEL 7
REMARK VINA RESULT:      -7.6      4.116      7.771
REMARK  Name = 
REMARK  5 active torsions:
REMARK  status: ('A' for Active; 'I' for Inactive)
REMARK    1  A    between atoms: N_3  and  C_4
REMARK    2  A    between atoms: N_10  and  C_11
REMARK    3  A    between atoms: N_14  and  C_15
REMARK    4  A    between atoms: C_15  and  C_16
REMARK    5  A    between atoms: C_16  and  C_17
REMARK                            x       y       z     vdW  Elec       q    Type
REMARK                         _______ _______ _______ _____ _____    ______ ____
ROOT
ATOM      1  C   UNL     1       3.562   2.877  18.693  0.00  0.00    +0.000 C 
ATOM      2  C   UNL     1       2.101   2.684  19.081  0.00  0.00    +0.000 C 
ATOM      3  C   UNL     1       1.363   4.008  19.246  0.00  0.00    +0.000 C 
ATOM      4  N   UNL     1       2.050   4.893  20.197  0.00  0.00    +0.000 NA
ATOM      5  C   UNL     1       3.425   5.176  19.747  0.00  0.00    +0.000 C 
ATOM      6  C   UNL     1       4.241   3.887  19.620  0.00  0.00    +0.000 C 
ENDROOT
BRANCH   1  10
ATOM      7  O   UNL     1       4.651   4.209  15.493  0.00  0.00    +0.000 OA
ATOM      8  C   UNL     1       4.765   3.832  16.651  0.00  0.00    +0.000 C 
ATOM      9  N   UNL     1       5.922   3.875  17.365  0.00  0.00    +0.000 N 
ATOM     10  N   UNL     1       3.696   3.288  17.294  0.00  0.00    +0.000 N 
ATOM     11  H   UNL     1       5.822   3.892  18.365  0.00  0.00    +0.000 HD
ATOM     12  H   UNL     1       2.860   3.335  16.725  0.00  0.00    +0.000 HD
BRANCH   9  13
ATOM     13  C   UNL     1       7.158   4.424  16.826  0.00  0.00    +0.000 C 
ATOM     14  C   UNL     1       6.926   5.801  16.191  0.00  0.00    +0.000 C 
ATOM     15  C   UNL     1       6.598   6.876  17.229  0.00  0.00    +0.000 C 
ATOM     16  C   UNL     1       7.637   6.934  18.346  0.00  0.00    +0.000 C 
ATOM     17  C   UNL     1       7.881   5.569  18.982  0.00  0.00    +0.000 C 
ATOM     18  C   UNL     1       8.217   4.510  17.932  0.00  0.00    +0.000 C 
ENDBRANCH   9  13
ENDBRANCH   1  10
BRANCH   4  19
ATOM     19  C   UNL     1       1.308   6.161  20.382  0.00  0.00    +0.000 C 
BRANCH  19  20
ATOM     20  C   UNL     1       2.206   7.410  20.316  0.00  0.00    +0.000 C 
BRANCH  20  21
ATOM     21  C   UNL     1       1.635   8.482  19.445  0.00  0.00    +0.000 A 
ATOM     22  C   UNL     1       1.895   8.659  18.101  0.00  0.00    +0.000 A 
ATOM     23  N   UNL     1       1.195   9.750  17.669  0.00  0.00    +0.000 N 
ATOM     24  C   UNL     1       0.476  10.297  18.705  0.00  0.00    +0.000 A 
ATOM     25  C   UNL     1      -0.372  11.411  18.722  0.00  0.00    +0.000 A 
ATOM     26  C   UNL     1      -0.977  11.747  19.936  0.00  0.00    +0.000 A 
ATOM     27  C   UNL     1      -0.736  11.003  21.088  0.00  0.00    +0.000 A 
ATOM     28  C   UNL     1       0.118   9.891  21.054  0.00  0.00    +0.000 A 
ATOM     29  C   UNL     1       0.735   9.526  19.839  0.00  0.00    +0.000 A 
ATOM     30  H   UNL     1       1.203  10.112  16.726  0.00  0.00    +0.000 HD
ENDBRANCH  20  21
ENDBRANCH  19  20
ENDBRANCH   4  19
TORSDOF 5
ENDMDL
MODEL 8
REMARK VINA RESULT:      -7.6      5.778      8.695
REMARK  Name = 
REMARK  5 active torsions:
REMARK  status: ('A' for Active; 'I' for Inactive)
REMARK    1  A    between atoms: N_3  and  C_4
REMARK    2  A    between atoms: N_10  and  C_11
REMARK    3  A    between atoms: N_14  and  C_15
REMARK    4  A    between atoms: C_15  and  C_16
REMARK    5  A    between atoms: C_16  and  C_17
REMARK                            x       y       z     vdW  Elec       q    Type
REMARK                         _______ _______ _______ _____ _____    ______ ____
ROOT
ATOM      1  C   UNL     1       2.789   6.918  18.589  0.00  0.00    +0.000 C 
ATOM      2  C   UNL     1       2.455   6.829  20.073  0.00  0.00    +0.000 C 
ATOM      3  C   UNL     1       1.203   7.620  20.436  0.00  0.00    +0.000 C 
ATOM      4  N   UNL     1       1.305   9.020  20.000  0.00  0.00    +0.000 NA
ATOM      5  C   UNL     1       1.503   9.099  18.542  0.00  0.00    +0.000 C 
ATOM      6  C   UNL     1       2.782   8.374  18.118  0.00  0.00    +0.000 C 
ENDROOT
BRANCH   1  10
ATOM      7  O   UNL     1       0.887   4.255  17.013  0.00  0.00    +0.000 OA
ATOM      8  C   UNL     1       1.615   4.774  17.847  0.00  0.00    +0.000 C 
ATOM      9  N   UNL     1       2.177   4.116  18.897  0.00  0.00    +0.000 N 
ATOM     10  N   UNL     1       1.873   6.109  17.784  0.00  0.00    +0.000 N 
ATOM     11  H   UNL     1       3.010   4.527  19.280  0.00  0.00    +0.000 HD
ATOM     12  H   UNL     1       1.468   6.523  16.953  0.00  0.00    +0.000 HD
BRANCH   9  13
ATOM     13  C   UNL     1       1.999   2.687  19.114  0.00  0.00    +0.000 C 
ATOM     14  C   UNL     1       3.296   1.915  18.840  0.00  0.00    +0.000 C 
ATOM     15  C   UNL     1       4.379   2.202  19.882  0.00  0.00    +0.000 C 
ATOM     16  C   UNL     1       3.878   1.981  21.308  0.00  0.00    +0.000 C 
ATOM     17  C   UNL     1       2.584   2.738  21.591  0.00  0.00    +0.000 C 
ATOM     18  C   UNL     1       1.511   2.433  20.546  0.00  0.00    +0.000 C 
ENDBRANCH   9  13
ENDBRANCH   1  10
BRANCH   4  19
ATOM     19  C   UNL     1       0.103   9.792  20.390  0.00  0.00    +0.000 C 
BRANCH  19  20
ATOM     20  C   UNL     1       0.017  11.173  19.713  0.00  0.00    +0.000 C 
BRANCH  20  21
ATOM     21  C   UNL     1      -1.374  11.519  19.291  0.00  0.00    +0.000 A 
ATOM     22  C   UNL     1      -2.240  12.359  19.961  0.00  0.00    +0.000 A 
ATOM     23  N   UNL     1      -3.415  12.409  19.265  0.00  0.00    +0.000 N 
ATOM     24  C   UNL     1      -3.340  11.615  18.145  0.00  0.00    +0.000 A 
ATOM     25  C   UNL     1      -4.297  11.366  17.153  0.00  0.00    +0.000 A 
ATOM     26  C   UNL     1      -3.945  10.499  16.116  0.00  0.00    +0.000 A 
ATOM     27  C   UNL     1      -2.688   9.900  16.077  0.00  0.00    +0.000 A 
ATOM     28  C   UNL     1      -1.743  10.158  17.079  0.00  0.00    +0.000 A 
ATOM     29  C   UNL     1      -2.071  11.036  18.134  0.00  0.00    +0.000 A 
ATOM     30  H   UNL     1      -4.228  12.945  19.531  0.00  0.00    +0.000 HD
ENDBRANCH  20  21
ENDBRANCH  19  20
ENDBRANCH   4  19
TORSDOF 5
ENDMDL
MODEL 9
REMARK VINA RESULT:      -7.6      4.968      8.846
REMARK  Name = 
REMARK  5 active torsions:
REMARK  status: ('A' for Active; 'I' for Inactive)
REMARK    1  A    between atoms: N_3  and  C_4
REMARK    2  A    between atoms: N_10  and  C_11
REMARK    3  A    between atoms: N_14  and  C_15
REMARK    4  A    between atoms: C_15  and  C_16
REMARK    5  A    between atoms: C_16  and  C_17
REMARK                            x       y       z     vdW  Elec       q    Type
REMARK                         _______ _______ _______ _____ _____    ______ ____
ROOT
ATOM      1  C   UNL     1       2.598   5.776  19.226  0.00  0.00    +0.000 C 
ATOM      2  C   UNL     1       2.351   6.831  18.154  0.00  0.00    +0.000 C 
ATOM      3  C   UNL     1       2.248   8.237  18.733  0.00  0.00    +0.000 C 
ATOM      4  N   UNL     1       1.231   8.311  19.791  0.00  0.00    +0.000 NA
ATOM      5  C   UNL     1       1.548   7.376  20.885  0.00  0.00    +0.000 C 
ATOM      6  C   UNL     1       1.605   5.933  20.379  0.00  0.00    +0.000 C 
ENDROOT
BRANCH   1  10
ATOM      7  O   UNL     1       6.147   5.303  19.840  0.00  0.00    +0.000 OA
ATOM      8  C   UNL     1       5.093   5.228  19.224  0.00  0.00    +0.000 C 
ATOM      9  N   UNL     1       4.946   4.609  18.022  0.00  0.00    +0.000 N 
ATOM     10  N   UNL     1       3.976   5.826  19.719  0.00  0.00    +0.000 N 
ATOM     11  H   UNL     1       4.017   4.296  17.798  0.00  0.00    +0.000 HD
ATOM     12  H   UNL     1       4.145   6.221  20.637  0.00  0.00    +0.000 HD
BRANCH   9  13
ATOM     13  C   UNL     1       6.041   3.923  17.352  0.00  0.00    +0.000 C 
ATOM     14  C   UNL     1       5.604   3.370  15.990  0.00  0.00    +0.000 C 
ATOM     15  C   UNL     1       5.330   4.477  14.970  0.00  0.00    +0.000 C 
ATOM     16  C   UNL     1       6.507   5.442  14.839  0.00  0.00    +0.000 C 
ATOM     17  C   UNL     1       6.956   5.994  16.188  0.00  0.00    +0.000 C 
ATOM     18  C   UNL     1       7.234   4.875  17.191  0.00  0.00    +0.000 C 
ENDBRANCH   9  13
ENDBRANCH   1  10
BRANCH   4  19
ATOM     19  C   UNL     1       1.110   9.688  20.323  0.00  0.00    +0.000 C 
BRANCH  19  20
ATOM     20  C   UNL     1       1.033  10.763  19.222  0.00  0.00    +0.000 C 
BRANCH  20  21
ATOM     21  C   UNL     1      -0.335  11.349  19.088  0.00  0.00    +0.000 A 
ATOM     22  C   UNL     1      -0.828  12.427  19.795  0.00  0.00    +0.000 A 
ATOM     23  N   UNL     1      -2.117  12.648  19.397  0.00  0.00    +0.000 N 
ATOM     24  C   UNL     1      -2.483  11.734  18.437  0.00  0.00    +0.000 A 
ATOM     25  C   UNL     1      -3.696  11.584  17.753  0.00  0.00    +0.000 A 
ATOM     26  C   UNL     1      -3.791  10.549  16.820  0.00  0.00    +0.000 A 
ATOM     27  C   UNL     1      -2.717   9.694  16.586  0.00  0.00    +0.000 A 
ATOM     28  C   UNL     1      -1.511   9.856  17.281  0.00  0.00    +0.000 A 
ATOM     29  C   UNL     1      -1.386  10.899  18.224  0.00  0.00    +0.000 A 
ATOM     30  H   UNL     1      -2.722  13.373  19.754  0.00  0.00    +0.000 HD
ENDBRANCH  20  21
ENDBRANCH  19  20
ENDBRANCH   4  19
TORSDOF 5
ENDMDL
