MODEL 1
REMARK VINA RESULT:      -7.5      0.000      0.000
REMARK  Name = 
REMARK  7 active torsions:
REMARK  status: ('A' for Active; 'I' for Inactive)
REMARK    1  A    between atoms: C_1  and  N_2
REMARK    2  A    between atoms: N_9  and  S_10
REMARK    3  A    between atoms: S_10  and  C_11
REMARK    4  A    between atoms: C_14  and  C_15
REMARK    5  A    between atoms: C_15  and  O_16
REMARK    6  A    between atoms: O_16  and  C_17
REMARK    7  A    between atoms: C_17  and  C_18
REMARK                            x       y       z     vdW  Elec       q    Type
REMARK                         _______ _______ _______ _____ _____    ______ ____
ROOT
ATOM      1  C   UNL     1       1.312   8.409  20.071  0.00  0.00    +0.000 C 
ATOM      2  N   UNL     1       2.282   7.652  19.332  0.00  0.00    +0.000 N 
ATOM      3  N   UNL     1       2.874   8.185  18.249  0.00  0.00    +0.000 NA
ATOM      4  N   UNL     1       3.572   7.222  17.656  0.00  0.00    +0.000 NA
ATOM      5  C   UNL     1       3.427   6.087  18.397  0.00  0.00    +0.000 A 
ATOM      6  C   UNL     1       2.676   6.364  19.514  0.00  0.00    +0.000 A 
ATOM      7  C   UNL     1       2.311   5.389  20.561  0.00  0.00    +0.000 C 
ATOM      8  C   UNL     1       3.074   4.059  20.312  0.00  0.00    +0.000 C 
ATOM      9  N   UNL     1       3.191   3.673  18.842  0.00  0.00    +0.000 NA
ATOM     10  C   UNL     1       4.011   4.748  18.097  0.00  0.00    +0.000 C 
ENDROOT
BRANCH   9  11
ATOM     11  S   UNL     1       1.764   3.138  18.084  0.00  0.00    +0.000 S 
ATOM     12  C   UNL     1       0.787   2.554  19.454  0.00  0.00    +0.000 C 
ATOM     13  O   UNL     1       1.085   4.278  17.512  0.00  0.00    +0.000 OA
ATOM     14  O   UNL     1       2.083   1.974  17.286  0.00  0.00    +0.000 OA
ENDBRANCH   9  11
BRANCH  10  15
ATOM     15  C   UNL     1       4.281   4.505  16.600  0.00  0.00    +0.000 C 
BRANCH  15  16
ATOM     16  O   UNL     1       5.415   3.660  16.327  0.00  0.00    +0.000 OA
BRANCH  16  17
ATOM     17  C   UNL     1       6.568   4.328  15.834  0.00  0.00    +0.000 C 
BRANCH  17  18
ATOM     18  C   UNL     1       7.081   5.282  16.878  0.00  0.00    +0.000 A 
ATOM     19  C   UNL     1       7.619   4.794  18.080  0.00  0.00    +0.000 A 
ATOM     20  C   UNL     1       8.141   5.672  19.030  0.00  0.00    +0.000 A 
ATOM     21  C   UNL     1       8.133   7.044  18.787  0.00  0.00    +0.000 A 
ATOM     22  C   UNL     1       7.603   7.538  17.596  0.00  0.00    +0.000 A 
ATOM     23  C   UNL     1       7.081   6.661  16.643  0.00  0.00    +0.000 A 
ENDBRANCH  17  18
ENDBRANCH  16  17
ENDBRANCH  15  16
ENDBRANCH  10  15
TORSDOF 5
ENDMDL
MODEL 2
REMARK VINA RESULT:      -7.3      0.230      1.032
REMARK  Name = 
REMARK  7 active torsions:
REMARK  status: ('A' for Active; 'I' for Inactive)
REMARK    1  A    between atoms: C_1  and  N_2
REMARK    2  A    between atoms: N_9  and  S_10
REMARK    3  A    between atoms: S_10  and  C_11
REMARK    4  A    between atoms: C_14  and  C_15
REMARK    5  A    between atoms: C_15  and  O_16
REMARK    6  A    between atoms: O_16  and  C_17
REMARK    7  A    between atoms: C_17  and  C_18
REMARK                            x       y       z     vdW  Elec       q    Type
REMARK                         _______ _______ _______ _____ _____    ______ ____
ROOT
ATOM      1  C   UNL     1       0.975   8.514  20.056  0.00  0.00    +0.000 C 
ATOM      2  N   UNL     1       2.013   7.790  19.378  0.00  0.00    +0.000 N 
ATOM      3  N   UNL     1       2.653   8.343  18.333  0.00  0.00    +0.000 NA
ATOM      4  N   UNL     1       3.417   7.404  17.785  0.00  0.00    +0.000 NA
ATOM      5  C   UNL     1       3.264   6.264  18.515  0.00  0.00    +0.000 A 
ATOM      6  C   UNL     1       2.437   6.514  19.584  0.00  0.00    +0.000 A 
ATOM      7  C   UNL     1       2.040   5.526  20.608  0.00  0.00    +0.000 C 
ATOM      8  C   UNL     1       2.859   4.222  20.406  0.00  0.00    +0.000 C 
ATOM      9  N   UNL     1       3.079   3.843  18.946  0.00  0.00    +0.000 NA
ATOM     10  C   UNL     1       3.908   4.945  18.252  0.00  0.00    +0.000 C 
ENDROOT
BRANCH   9  11
ATOM     11  S   UNL     1       1.720   3.263  18.102  0.00  0.00    +0.000 S 
ATOM     12  C   UNL     1       0.747   2.512  19.392  0.00  0.00    +0.000 C 
ATOM     13  O   UNL     1       0.976   4.390  17.588  0.00  0.00    +0.000 OA
ATOM     14  O   UNL     1       2.148   2.186  17.236  0.00  0.00    +0.000 OA
ENDBRANCH   9  11
BRANCH  10  15
ATOM     15  C   UNL     1       4.277   4.713  16.775  0.00  0.00    +0.000 C 
BRANCH  15  16
ATOM     16  O   UNL     1       5.304   3.726  16.564  0.00  0.00    +0.000 OA
BRANCH  16  17
ATOM     17  C   UNL     1       6.519   4.218  16.015  0.00  0.00    +0.000 C 
BRANCH  17  18
ATOM     18  C   UNL     1       7.111   5.243  16.944  0.00  0.00    +0.000 A 
ATOM     19  C   UNL     1       7.063   6.608  16.613  0.00  0.00    +0.000 A 
ATOM     20  C   UNL     1       7.566   7.566  17.493  0.00  0.00    +0.000 A 
ATOM     21  C   UNL     1       8.119   7.171  18.710  0.00  0.00    +0.000 A 
ATOM     22  C   UNL     1       8.170   5.820  19.047  0.00  0.00    +0.000 A 
ATOM     23  C   UNL     1       7.666   4.859  18.169  0.00  0.00    +0.000 A 
ENDBRANCH  17  18
ENDBRANCH  16  17
ENDBRANCH  15  16
ENDBRANCH  10  15
TORSDOF 5
ENDMDL
MODEL 3
REMARK VINA RESULT:      -7.3      1.609      2.900
REMARK  Name = 
REMARK  7 active torsions:
REMARK  status: ('A' for Active; 'I' for Inactive)
REMARK    1  A    between atoms: C_1  and  N_2
REMARK    2  A    between atoms: N_9  and  S_10
REMARK    3  A    between atoms: S_10  and  C_11
REMARK    4  A    between atoms: C_14  and  C_15
REMARK    5  A    between atoms: C_15  and  O_16
REMARK    6  A    between atoms: O_16  and  C_17
REMARK    7  A    between atoms: C_17  and  C_18
REMARK                            x       y       z     vdW  Elec       q    Type
REMARK                         _______ _______ _______ _____ _____    ______ ____
ROOT
ATOM      1  C   UNL     1       1.391   8.677  19.518  0.00  0.00    +0.000 C 
ATOM      2  N   UNL     1       2.377   7.817  18.928  0.00  0.00    +0.000 N 
ATOM      3  N   UNL     1       3.055   8.212  17.836  0.00  0.00    +0.000 NA
ATOM      4  N   UNL     1       3.753   7.170  17.396  0.00  0.00    +0.000 NA
ATOM      5  C   UNL     1       3.521   6.127  18.241  0.00  0.00    +0.000 A 
ATOM      6  C   UNL     1       2.711   6.544  19.270  0.00  0.00    +0.000 A 
ATOM      7  C   UNL     1       2.247   5.699  20.388  0.00  0.00    +0.000 C 
ATOM      8  C   UNL     1       2.974   4.328  20.332  0.00  0.00    +0.000 C 
ATOM      9  N   UNL     1       3.169   3.783  18.921  0.00  0.00    +0.000 NA
ATOM     10  C   UNL     1       4.073   4.747  18.123  0.00  0.00    +0.000 C 
ENDROOT
BRANCH   9  11
ATOM     11  S   UNL     1       1.774   3.212  18.131  0.00  0.00    +0.000 S 
ATOM     12  C   UNL     1       0.719   2.742  19.486  0.00  0.00    +0.000 C 
ATOM     13  O   UNL     1       1.144   4.315  17.443  0.00  0.00    +0.000 OA
ATOM     14  O   UNL     1       2.114   1.989  17.437  0.00  0.00    +0.000 OA
ENDBRANCH   9  11
BRANCH  10  15
ATOM     15  C   UNL     1       4.427   4.336  16.681  0.00  0.00    +0.000 C 
BRANCH  15  16
ATOM     16  O   UNL     1       5.789   3.903  16.501  0.00  0.00    +0.000 OA
BRANCH  16  17
ATOM     17  C   UNL     1       6.673   4.880  15.968  0.00  0.00    +0.000 C 
BRANCH  17  18
ATOM     18  C   UNL     1       6.799   4.685  14.481  0.00  0.00    +0.000 A 
ATOM     19  C   UNL     1       7.674   5.492  13.734  0.00  0.00    +0.000 A 
ATOM     20  C   UNL     1       7.831   5.283  12.363  0.00  0.00    +0.000 A 
ATOM     21  C   UNL     1       7.119   4.268  11.728  0.00  0.00    +0.000 A 
ATOM     22  C   UNL     1       6.250   3.462  12.462  0.00  0.00    +0.000 A 
ATOM     23  C   UNL     1       6.091   3.667  13.833  0.00  0.00    +0.000 A 
ENDBRANCH  17  18
ENDBRANCH  16  17
ENDBRANCH  15  16
ENDBRANCH  10  15
TORSDOF 5
ENDMDL
MODEL 4
REMARK VINA RESULT:      -7.2      1.621      2.834
REMARK  Name = 
REMARK  7 active torsions:
REMARK  status: ('A' for Active; 'I' for Inactive)
REMARK    1  A    between atoms: C_1  and  N_2
REMARK    2  A    between atoms: N_9  and  S_10
REMARK    3  A    between atoms: S_10  and  C_11
REMARK    4  A    between atoms: C_14  and  C_15
REMARK    5  A    between atoms: C_15  and  O_16
REMARK    6  A    between atoms: O_16  and  C_17
REMARK    7  A    between atoms: C_17  and  C_18
REMARK                            x       y       z     vdW  Elec       q    Type
REMARK                         _______ _______ _______ _____ _____    ______ ____
ROOT
ATOM      1  C   UNL     1       1.323   8.775  18.984  0.00  0.00    +0.000 C 
ATOM      2  N   UNL     1       2.366   7.874  18.585  0.00  0.00    +0.000 N 
ATOM      3  N   UNL     1       3.150   8.168  17.533  0.00  0.00    +0.000 NA
ATOM      4  N   UNL     1       3.893   7.098  17.271  0.00  0.00    +0.000 NA
ATOM      5  C   UNL     1       3.580   6.140  18.187  0.00  0.00    +0.000 A 
ATOM      6  C   UNL     1       2.669   6.645  19.084  0.00  0.00    +0.000 A 
ATOM      7  C   UNL     1       2.096   5.908  20.228  0.00  0.00    +0.000 C 
ATOM      8  C   UNL     1       2.830   4.548  20.382  0.00  0.00    +0.000 C 
ATOM      9  N   UNL     1       3.169   3.870  19.059  0.00  0.00    +0.000 NA
ATOM     10  C   UNL     1       4.146   4.762  18.264  0.00  0.00    +0.000 C 
ENDROOT
BRANCH   9  11
ATOM     11  S   UNL     1       1.863   3.205  18.193  0.00  0.00    +0.000 S 
ATOM     12  C   UNL     1       0.723   2.756  19.486  0.00  0.00    +0.000 C 
ATOM     13  O   UNL     1       1.248   4.248  17.405  0.00  0.00    +0.000 OA
ATOM     14  O   UNL     1       2.302   1.966  17.590  0.00  0.00    +0.000 OA
ENDBRANCH   9  11
BRANCH  10  15
ATOM     15  C   UNL     1       4.646   4.216  16.913  0.00  0.00    +0.000 C 
BRANCH  15  16
ATOM     16  O   UNL     1       6.076   4.244  16.750  0.00  0.00    +0.000 OA
BRANCH  16  17
ATOM     17  C   UNL     1       6.578   5.309  15.954  0.00  0.00    +0.000 C 
BRANCH  17  18
ATOM     18  C   UNL     1       6.745   4.840  14.534  0.00  0.00    +0.000 A 
ATOM     19  C   UNL     1       5.937   3.807  14.030  0.00  0.00    +0.000 A 
ATOM     20  C   UNL     1       6.054   3.402  12.701  0.00  0.00    +0.000 A 
ATOM     21  C   UNL     1       6.977   4.025  11.862  0.00  0.00    +0.000 A 
ATOM     22  C   UNL     1       7.782   5.052  12.353  0.00  0.00    +0.000 A 
ATOM     23  C   UNL     1       7.666   5.460  13.683  0.00  0.00    +0.000 A 
ENDBRANCH  17  18
ENDBRANCH  16  17
ENDBRANCH  15  16
ENDBRANCH  10  15
TORSDOF 5
ENDMDL
MODEL 5
REMARK VINA RESULT:      -6.7      2.352      5.665
REMARK  Name = 
REMARK  7 active torsions:
REMARK  status: ('A' for Active; 'I' for Inactive)
REMARK    1  A    between atoms: C_1  and  N_2
REMARK    2  A    between atoms: N_9  and  S_10
REMARK    3  A    between atoms: S_10  and  C_11
REMARK    4  A    between atoms: C_14  and  C_15
REMARK    5  A    between atoms: C_15  and  O_16
REMARK    6  A    between atoms: O_16  and  C_17
REMARK    7  A    between atoms: C_17  and  C_18
REMARK                            x       y       z     vdW  Elec       q    Type
REMARK                         _______ _______ _______ _____ _____    ______ ____
ROOT
ATOM      1  C   UNL     1       8.231   5.955  19.602  0.00  0.00    +0.000 C 
ATOM      2  N   UNL     1       6.943   5.479  19.182  0.00  0.00    +0.000 N 
ATOM      3  N   UNL     1       6.291   4.555  19.909  0.00  0.00    +0.000 NA
ATOM      4  N   UNL     1       5.233   4.163  19.208  0.00  0.00    +0.000 NA
ATOM      5  C   UNL     1       5.219   4.871  18.045  0.00  0.00    +0.000 A 
ATOM      6  C   UNL     1       6.254   5.775  18.047  0.00  0.00    +0.000 A 
ATOM      7  C   UNL     1       6.561   6.726  16.960  0.00  0.00    +0.000 C 
ATOM      8  C   UNL     1       5.418   6.690  15.909  0.00  0.00    +0.000 C 
ATOM      9  N   UNL     1       4.860   5.296  15.642  0.00  0.00    +0.000 NA
ATOM     10  C   UNL     1       4.228   4.743  16.937  0.00  0.00    +0.000 C 
ENDROOT
BRANCH   9  11
ATOM     11  S   UNL     1       5.862   4.235  14.768  0.00  0.00    +0.000 S 
ATOM     12  C   UNL     1       7.178   5.302  14.215  0.00  0.00    +0.000 C 
ATOM     13  O   UNL     1       6.431   3.272  15.682  0.00  0.00    +0.000 OA
ATOM     14  O   UNL     1       5.152   3.816  13.579  0.00  0.00    +0.000 OA
ENDBRANCH   9  11
BRANCH  10  15
ATOM     15  C   UNL     1       3.562   3.357  16.851  0.00  0.00    +0.000 C 
BRANCH  15  16
ATOM     16  O   UNL     1       2.125   3.389  16.767  0.00  0.00    +0.000 OA
BRANCH  16  17
ATOM     17  C   UNL     1       1.489   4.368  17.577  0.00  0.00    +0.000 C 
BRANCH  17  18
ATOM     18  C   UNL     1       1.637   3.994  19.027  0.00  0.00    +0.000 A 
ATOM     19  C   UNL     1       2.036   4.957  19.969  0.00  0.00    +0.000 A 
ATOM     20  C   UNL     1       2.127   4.628  21.322  0.00  0.00    +0.000 A 
ATOM     21  C   UNL     1       1.820   3.337  21.745  0.00  0.00    +0.000 A 
ATOM     22  C   UNL     1       1.422   2.375  20.818  0.00  0.00    +0.000 A 
ATOM     23  C   UNL     1       1.329   2.702  19.464  0.00  0.00    +0.000 A 
ENDBRANCH  17  18
ENDBRANCH  16  17
ENDBRANCH  15  16
ENDBRANCH  10  15
TORSDOF 5
ENDMDL
MODEL 6
REMARK VINA RESULT:      -6.7      2.508      6.121
REMARK  Name = 
REMARK  7 active torsions:
REMARK  status: ('A' for Active; 'I' for Inactive)
REMARK    1  A    between atoms: C_1  and  N_2
REMARK    2  A    between atoms: N_9  and  S_10
REMARK    3  A    between atoms: S_10  and  C_11
REMARK    4  A    between atoms: C_14  and  C_15
REMARK    5  A    between atoms: C_15  and  O_16
REMARK    6  A    between atoms: O_16  and  C_17
REMARK    7  A    between atoms: C_17  and  C_18
REMARK                            x       y       z     vdW  Elec       q    Type
REMARK                         _______ _______ _______ _____ _____    ______ ____
ROOT
ATOM      1  C   UNL     1       2.551   1.628  18.084  0.00  0.00    +0.000 C 
ATOM      2  N   UNL     1       2.511   3.059  18.187  0.00  0.00    +0.000 N 
ATOM      3  N   UNL     1       1.413   3.735  17.809  0.00  0.00    +0.000 NA
ATOM      4  N   UNL     1       1.708   5.030  17.831  0.00  0.00    +0.000 NA
ATOM      5  C   UNL     1       2.998   5.155  18.250  0.00  0.00    +0.000 A 
ATOM      6  C   UNL     1       3.500   3.914  18.563  0.00  0.00    +0.000 A 
ATOM      7  C   UNL     1       4.863   3.644  19.061  0.00  0.00    +0.000 C 
ATOM      8  C   UNL     1       5.573   4.990  19.370  0.00  0.00    +0.000 C 
ATOM      9  N   UNL     1       5.274   6.097  18.365  0.00  0.00    +0.000 NA
ATOM     10  C   UNL     1       3.766   6.425  18.400  0.00  0.00    +0.000 C 
ENDROOT
BRANCH   9  11
ATOM     11  S   UNL     1       5.986   5.936  16.828  0.00  0.00    +0.000 S 
ATOM     12  C   UNL     1       7.329   4.806  17.132  0.00  0.00    +0.000 C 
ATOM     13  O   UNL     1       5.048   5.279  15.947  0.00  0.00    +0.000 OA
ATOM     14  O   UNL     1       6.592   7.201  16.473  0.00  0.00    +0.000 OA
ENDBRANCH   9  11
BRANCH  10  15
ATOM     15  C   UNL     1       3.279   7.563  17.483  0.00  0.00    +0.000 C 
BRANCH  15  16
ATOM     16  O   UNL     1       1.947   8.031  17.769  0.00  0.00    +0.000 OA
BRANCH  16  17
ATOM     17  C   UNL     1       1.817   9.437  17.926  0.00  0.00    +0.000 C 
BRANCH  17  18
ATOM     18  C   UNL     1       1.095   9.736  19.211  0.00  0.00    +0.000 A 
ATOM     19  C   UNL     1       0.306  10.892  19.328  0.00  0.00    +0.000 A 
ATOM     20  C   UNL     1      -0.405  11.149  20.501  0.00  0.00    +0.000 A 
ATOM     21  C   UNL     1      -0.337  10.252  21.565  0.00  0.00    +0.000 A 
ATOM     22  C   UNL     1       0.442   9.100  21.458  0.00  0.00    +0.000 A 
ATOM     23  C   UNL     1       1.153   8.841  20.285  0.00  0.00    +0.000 A 
ENDBRANCH  17  18
ENDBRANCH  16  17
ENDBRANCH  15  16
ENDBRANCH  10  15
TORSDOF 5
ENDMDL
MODEL 7
REMARK VINA RESULT:      -6.7      2.504      5.544
REMARK  Name = 
REMARK  7 active torsions:
REMARK  status: ('A' for Active; 'I' for Inactive)
REMARK    1  A    between atoms: C_1  and  N_2
REMARK    2  A    between atoms: N_9  and  S_10
REMARK    3  A    between atoms: S_10  and  C_11
REMARK    4  A    between atoms: C_14  and  C_15
REMARK    5  A    between atoms: C_15  and  O_16
REMARK    6  A    between atoms: O_16  and  C_17
REMARK    7  A    between atoms: C_17  and  C_18
REMARK                            x       y       z     vdW  Elec       q    Type
REMARK                         _______ _______ _______ _____ _____    ______ ____
ROOT
ATOM      1  C   UNL     1       8.151   6.064  19.748  0.00  0.00    +0.000 C 
ATOM      2  N   UNL     1       6.928   5.547  19.203  0.00  0.00    +0.000 N 
ATOM      3  N   UNL     1       6.283   4.542  19.820  0.00  0.00    +0.000 NA
ATOM      4  N   UNL     1       5.302   4.139  19.019  0.00  0.00    +0.000 NA
ATOM      5  C   UNL     1       5.329   4.921  17.904  0.00  0.00    +0.000 A 
ATOM      6  C   UNL     1       6.305   5.879  18.040  0.00  0.00    +0.000 A 
ATOM      7  C   UNL     1       6.630   6.916  17.041  0.00  0.00    +0.000 C 
ATOM      8  C   UNL     1       5.570   6.887  15.907  0.00  0.00    +0.000 C 
ATOM      9  N   UNL     1       5.118   5.485  15.512  0.00  0.00    +0.000 NA
ATOM     10  C   UNL     1       4.429   4.812  16.720  0.00  0.00    +0.000 C 
ENDROOT
BRANCH   9  11
ATOM     11  S   UNL     1       6.242   4.542  14.651  0.00  0.00    +0.000 S 
ATOM     12  C   UNL     1       5.271   3.910  13.298  0.00  0.00    +0.000 C 
ATOM     13  O   UNL     1       7.254   5.412  14.098  0.00  0.00    +0.000 OA
ATOM     14  O   UNL     1       6.596   3.400  15.466  0.00  0.00    +0.000 OA
ENDBRANCH   9  11
BRANCH  10  15
ATOM     15  C   UNL     1       3.856   3.400  16.497  0.00  0.00    +0.000 C 
BRANCH  15  16
ATOM     16  O   UNL     1       2.457   3.267  16.811  0.00  0.00    +0.000 OA
BRANCH  16  17
ATOM     17  C   UNL     1       2.139   2.264  17.766  0.00  0.00    +0.000 C 
BRANCH  17  18
ATOM     18  C   UNL     1       2.072   2.878  19.137  0.00  0.00    +0.000 A 
ATOM     19  C   UNL     1       2.542   2.169  20.255  0.00  0.00    +0.000 A 
ATOM     20  C   UNL     1       2.526   2.753  21.522  0.00  0.00    +0.000 A 
ATOM     21  C   UNL     1       2.044   4.051  21.683  0.00  0.00    +0.000 A 
ATOM     22  C   UNL     1       1.577   4.763  20.580  0.00  0.00    +0.000 A 
ATOM     23  C   UNL     1       1.592   4.181  19.311  0.00  0.00    +0.000 A 
ENDBRANCH  17  18
ENDBRANCH  16  17
ENDBRANCH  15  16
ENDBRANCH  10  15
TORSDOF 5
ENDMDL
MODEL 8
REMARK VINA RESULT:      -6.6      2.554      6.248
REMARK  Name = 
REMARK  7 active torsions:
REMARK  status: ('A' for Active; 'I' for Inactive)
REMARK    1  A    between atoms: C_1  and  N_2
REMARK    2  A    between atoms: N_9  and  S_10
REMARK    3  A    between atoms: S_10  and  C_11
REMARK    4  A    between atoms: C_14  and  C_15
REMARK    5  A    between atoms: C_15  and  O_16
REMARK    6  A    between atoms: O_16  and  C_17
REMARK    7  A    between atoms: C_17  and  C_18
REMARK                            x       y       z     vdW  Elec       q    Type
REMARK                         _______ _______ _______ _____ _____    ______ ____
ROOT
ATOM      1  C   UNL     1       6.907   4.483  15.723  0.00  0.00    +0.000 C 
ATOM      2  N   UNL     1       5.906   5.331  16.306  0.00  0.00    +0.000 N 
ATOM      3  N   UNL     1       6.183   6.619  16.576  0.00  0.00    +0.000 NA
ATOM      4  N   UNL     1       5.163   7.113  17.271  0.00  0.00    +0.000 NA
ATOM      5  C   UNL     1       4.237   6.124  17.410  0.00  0.00    +0.000 A 
ATOM      6  C   UNL     1       4.656   5.005  16.730  0.00  0.00    +0.000 A 
ATOM      7  C   UNL     1       3.916   3.731  16.642  0.00  0.00    +0.000 C 
ATOM      8  C   UNL     1       2.504   3.915  17.262  0.00  0.00    +0.000 C 
ATOM      9  N   UNL     1       2.480   4.789  18.511  0.00  0.00    +0.000 NA
ATOM     10  C   UNL     1       2.941   6.216  18.143  0.00  0.00    +0.000 C 
ENDROOT
BRANCH   9  11
ATOM     11  S   UNL     1       3.145   4.111  19.923  0.00  0.00    +0.000 S 
ATOM     12  C   UNL     1       2.773   2.378  19.739  0.00  0.00    +0.000 C 
ATOM     13  O   UNL     1       4.581   4.261  19.880  0.00  0.00    +0.000 OA
ATOM     14  O   UNL     1       2.374   4.574  21.056  0.00  0.00    +0.000 OA
ENDBRANCH   9  11
BRANCH  10  15
ATOM     15  C   UNL     1       2.935   7.263  19.273  0.00  0.00    +0.000 C 
BRANCH  15  16
ATOM     16  O   UNL     1       1.627   7.751  19.626  0.00  0.00    +0.000 OA
BRANCH  16  17
ATOM     17  C   UNL     1       1.341   7.774  21.018  0.00  0.00    +0.000 C 
BRANCH  17  18
ATOM     18  C   UNL     1       0.495   8.977  21.338  0.00  0.00    +0.000 A 
ATOM     19  C   UNL     1       0.089   9.225  22.660  0.00  0.00    +0.000 A 
ATOM     20  C   UNL     1      -0.654  10.364  22.970  0.00  0.00    +0.000 A 
ATOM     21  C   UNL     1      -0.995  11.266  21.964  0.00  0.00    +0.000 A 
ATOM     22  C   UNL     1      -0.595  11.030  20.649  0.00  0.00    +0.000 A 
ATOM     23  C   UNL     1       0.149   9.891  20.337  0.00  0.00    +0.000 A 
ENDBRANCH  17  18
ENDBRANCH  16  17
ENDBRANCH  15  16
ENDBRANCH  10  15
TORSDOF 5
ENDMDL
MODEL 9
REMARK VINA RESULT:      -6.6      2.697      6.326
REMARK  Name = 
REMARK  7 active torsions:
REMARK  status: ('A' for Active; 'I' for Inactive)
REMARK    1  A    between atoms: C_1  and  N_2
REMARK    2  A    between atoms: N_9  and  S_10
REMARK    3  A    between atoms: S_10  and  C_11
REMARK    4  A    between atoms: C_14  and  C_15
REMARK    5  A    between atoms: C_15  and  O_16
REMARK    6  A    between atoms: O_16  and  C_17
REMARK    7  A    between atoms: C_17  and  C_18
REMARK                            x       y       z     vdW  Elec       q    Type
REMARK                         _______ _______ _______ _____ _____    ______ ____
ROOT
ATOM      1  C   UNL     1       6.391   4.095  15.487  0.00  0.00    +0.000 C 
ATOM      2  N   UNL     1       5.509   5.031  16.126  0.00  0.00    +0.000 N 
ATOM      3  N   UNL     1       5.888   6.309  16.297  0.00  0.00    +0.000 NA
ATOM      4  N   UNL     1       4.980   6.899  17.068  0.00  0.00    +0.000 NA
ATOM      5  C   UNL     1       4.018   5.979  17.355  0.00  0.00    +0.000 A 
ATOM      6  C   UNL     1       4.295   4.806  16.695  0.00  0.00    +0.000 A 
ATOM      7  C   UNL     1       3.475   3.579  16.751  0.00  0.00    +0.000 C 
ATOM      8  C   UNL     1       2.151   3.881  17.505  0.00  0.00    +0.000 C 
ATOM      9  N   UNL     1       2.313   4.811  18.702  0.00  0.00    +0.000 NA
ATOM     10  C   UNL     1       2.816   6.187  18.213  0.00  0.00    +0.000 C 
ENDROOT
BRANCH   9  11
ATOM     11  S   UNL     1       3.085   4.157  20.070  0.00  0.00    +0.000 S 
ATOM     12  C   UNL     1       2.699   2.423  19.948  0.00  0.00    +0.000 C 
ATOM     13  O   UNL     1       4.513   4.304  19.914  0.00  0.00    +0.000 OA
ATOM     14  O   UNL     1       2.404   4.643  21.251  0.00  0.00    +0.000 OA
ENDBRANCH   9  11
BRANCH  10  15
ATOM     15  C   UNL     1       2.992   7.284  19.281  0.00  0.00    +0.000 C 
BRANCH  15  16
ATOM     16  O   UNL     1       1.782   7.991  19.615  0.00  0.00    +0.000 OA
BRANCH  16  17
ATOM     17  C   UNL     1       1.313   7.803  20.943  0.00  0.00    +0.000 C 
BRANCH  17  18
ATOM     18  C   UNL     1       0.525   9.010  21.374  0.00  0.00    +0.000 A 
ATOM     19  C   UNL     1       0.043   9.919  20.417  0.00  0.00    +0.000 A 
ATOM     20  C   UNL     1      -0.729  11.013  20.807  0.00  0.00    +0.000 A 
ATOM     21  C   UNL     1      -1.029  11.208  22.154  0.00  0.00    +0.000 A 
ATOM     22  C   UNL     1      -0.556  10.310  23.111  0.00  0.00    +0.000 A 
ATOM     23  C   UNL     1       0.216   9.214  22.723  0.00  0.00    +0.000 A 
ENDBRANCH  17  18
ENDBRANCH  16  17
ENDBRANCH  15  16
ENDBRANCH  10  15
TORSDOF 5
ENDMDL
