MODEL 1
REMARK VINA RESULT:      -8.1      0.000      0.000
REMARK  Name = 
REMARK  7 active torsions:
REMARK  status: ('A' for Active; 'I' for Inactive)
REMARK    1  A    between atoms: C_1  and  O_2
REMARK    2  A    between atoms: O_2  and  C_3
REMARK    3  A    between atoms: C_8  and  C_9
REMARK    4  A    between atoms: C_12  and  C_13
REMARK    5  A    between atoms: C_13  and  N_14
REMARK    6  A    between atoms: C_15  and  C_17
REMARK    7  A    between atoms: C_20  and  C_21
REMARK                            x       y       z     vdW  Elec       q    Type
REMARK                         _______ _______ _______ _____ _____    ______ ____
ROOT
ATOM      1  C   UNL     1       8.209   8.502  18.261  0.00  0.00    +0.000 A 
ATOM      2  C   UNL     1       8.525   7.421  19.093  0.00  0.00    +0.000 A 
ATOM      3  C   UNL     1       8.018   6.146  18.841  0.00  0.00    +0.000 A 
ATOM      4  C   UNL     1       7.183   5.909  17.738  0.00  0.00    +0.000 A 
ATOM      5  C   UNL     1       6.848   6.990  16.912  0.00  0.00    +0.000 A 
ATOM      6  C   UNL     1       7.353   8.273  17.173  0.00  0.00    +0.000 A 
ENDROOT
BRANCH   1  12
ATOM      7  C   UNL     1      10.359  13.947  19.133  0.00  0.00    +0.000 A 
ATOM      8  C   UNL     1      10.895  13.320  20.270  0.00  0.00    +0.000 A 
ATOM      9  C   UNL     1      10.672  11.964  20.534  0.00  0.00    +0.000 A 
ATOM     10  C   UNL     1       9.890  11.295  19.603  0.00  0.00    +0.000 A 
ATOM     11  O   UNL     1       9.517   9.988  19.630  0.00  0.00    +0.000 OA
ATOM     12  C   UNL     1       8.756   9.834  18.497  0.00  0.00    +0.000 A 
ATOM     13  N   UNL     1       8.632  10.930  17.768  0.00  0.00    +0.000 NA
ATOM     14  C   UNL     1       9.340  11.872  18.471  0.00  0.00    +0.000 A 
ATOM     15  C   UNL     1       9.562  13.231  18.226  0.00  0.00    +0.000 A 
BRANCH   7  17
ATOM     16  C   UNL     1       9.985  16.178  19.797  0.00  0.00    +0.000 C 
ATOM     17  O   UNL     1      10.524  15.275  18.836  0.00  0.00    +0.000 OA
ENDBRANCH   7  17
ENDBRANCH   1  12
BRANCH   4  18
ATOM     18  C   UNL     1       6.696   4.506  17.463  0.00  0.00    +0.000 C 
BRANCH  18  19
ATOM     19  N   UNL     1       5.718   4.061  18.425  0.00  0.00    +0.000 N 
ATOM     20  C   UNL     1       4.363   4.283  18.225  0.00  0.00    +0.000 C 
ATOM     21  O   UNL     1       3.903   4.842  17.241  0.00  0.00    +0.000 OA
ATOM     22  H   UNL     1       6.009   3.397  19.128  0.00  0.00    +0.000 HD
BRANCH  20  23
ATOM     23  C   UNL     1       3.472   3.755  19.300  0.00  0.00    +0.000 A 
ATOM     24  C   UNL     1       2.172   4.251  19.455  0.00  0.00    +0.000 A 
ATOM     25  C   UNL     1       1.349   3.773  20.476  0.00  0.00    +0.000 A 
ATOM     26  C   UNL     1       1.807   2.782  21.349  0.00  0.00    +0.000 A 
ATOM     27  C   UNL     1       0.926   2.266  22.450  0.00  0.00    +0.000 C 
ATOM     28  C   UNL     1       3.100   2.269  21.180  0.00  0.00    +0.000 A 
ATOM     29  C   UNL     1       3.930   2.747  20.156  0.00  0.00    +0.000 A 
ENDBRANCH  20  23
ENDBRANCH  18  19
ENDBRANCH   4  18
TORSDOF 5
ENDMDL
MODEL 2
REMARK VINA RESULT:      -7.9      0.458      1.366
REMARK  Name = 
REMARK  7 active torsions:
REMARK  status: ('A' for Active; 'I' for Inactive)
REMARK    1  A    between atoms: C_1  and  O_2
REMARK    2  A    between atoms: O_2  and  C_3
REMARK    3  A    between atoms: C_8  and  C_9
REMARK    4  A    between atoms: C_12  and  C_13
REMARK    5  A    between atoms: C_13  and  N_14
REMARK    6  A    between atoms: C_15  and  C_17
REMARK    7  A    between atoms: C_20  and  C_21
REMARK                            x       y       z     vdW  Elec       q    Type
REMARK                         _______ _______ _______ _____ _____    ______ ____
ROOT
ATOM      1  C   UNL     1       8.228   8.443  18.270  0.00  0.00    +0.000 A 
ATOM      2  C   UNL     1       7.471   8.177  17.122  0.00  0.00    +0.000 A 
ATOM      3  C   UNL     1       6.998   6.892  16.852  0.00  0.00    +0.000 A 
ATOM      4  C   UNL     1       7.259   5.831  17.732  0.00  0.00    +0.000 A 
ATOM      5  C   UNL     1       8.031   6.087  18.873  0.00  0.00    +0.000 A 
ATOM      6  C   UNL     1       8.513   7.377  19.138  0.00  0.00    +0.000 A 
ENDROOT
BRANCH   1  12
ATOM      7  C   UNL     1      10.099  13.938  19.423  0.00  0.00    +0.000 A 
ATOM      8  C   UNL     1      10.518  13.316  20.610  0.00  0.00    +0.000 A 
ATOM      9  C   UNL     1      10.307  11.951  20.837  0.00  0.00    +0.000 A 
ATOM     10  C   UNL     1       9.658  11.270  19.817  0.00  0.00    +0.000 A 
ATOM     11  O   UNL     1       9.324   9.952  19.792  0.00  0.00    +0.000 OA
ATOM     12  C   UNL     1       8.704   9.788  18.577  0.00  0.00    +0.000 A 
ATOM     13  N   UNL     1       8.632  10.887  17.846  0.00  0.00    +0.000 NA
ATOM     14  C   UNL     1       9.226  11.842  18.633  0.00  0.00    +0.000 A 
ATOM     15  C   UNL     1       9.434  13.209  18.424  0.00  0.00    +0.000 A 
BRANCH   7  17
ATOM     16  C   UNL     1      11.156  15.573  18.092  0.00  0.00    +0.000 C 
ATOM     17  O   UNL     1      10.258  15.274  19.156  0.00  0.00    +0.000 OA
ENDBRANCH   7  17
ENDBRANCH   1  12
BRANCH   4  18
ATOM     18  C   UNL     1       6.686   4.465  17.439  0.00  0.00    +0.000 C 
BRANCH  18  19
ATOM     19  N   UNL     1       5.716   4.049  18.422  0.00  0.00    +0.000 N 
ATOM     20  C   UNL     1       4.360   4.282  18.235  0.00  0.00    +0.000 C 
ATOM     21  O   UNL     1       3.894   4.827  17.246  0.00  0.00    +0.000 OA
ATOM     22  H   UNL     1       6.009   3.396  19.134  0.00  0.00    +0.000 HD
BRANCH  20  23
ATOM     23  C   UNL     1       3.478   3.784  19.331  0.00  0.00    +0.000 A 
ATOM     24  C   UNL     1       3.906   2.753  20.176  0.00  0.00    +0.000 A 
ATOM     25  C   UNL     1       3.069   2.273  21.186  0.00  0.00    +0.000 A 
ATOM     26  C   UNL     1       1.800   2.827  21.377  0.00  0.00    +0.000 A 
ATOM     27  C   UNL     1       0.897   2.313  22.460  0.00  0.00    +0.000 C 
ATOM     28  C   UNL     1       1.381   3.875  20.545  0.00  0.00    +0.000 A 
ATOM     29  C   UNL     1       2.218   4.358  19.530  0.00  0.00    +0.000 A 
ENDBRANCH  20  23
ENDBRANCH  18  19
ENDBRANCH   4  18
TORSDOF 5
ENDMDL
MODEL 3
REMARK VINA RESULT:      -7.9      6.414     10.786
REMARK  Name = 
REMARK  7 active torsions:
REMARK  status: ('A' for Active; 'I' for Inactive)
REMARK    1  A    between atoms: C_1  and  O_2
REMARK    2  A    between atoms: O_2  and  C_3
REMARK    3  A    between atoms: C_8  and  C_9
REMARK    4  A    between atoms: C_12  and  C_13
REMARK    5  A    between atoms: C_13  and  N_14
REMARK    6  A    between atoms: C_15  and  C_17
REMARK    7  A    between atoms: C_20  and  C_21
REMARK                            x       y       z     vdW  Elec       q    Type
REMARK                         _______ _______ _______ _____ _____    ______ ____
ROOT
ATOM      1  C   UNL     1       1.934   8.329  18.985  0.00  0.00    +0.000 A 
ATOM      2  C   UNL     1       1.534   9.464  18.268  0.00  0.00    +0.000 A 
ATOM      3  C   UNL     1       0.814  10.488  18.884  0.00  0.00    +0.000 A 
ATOM      4  C   UNL     1       0.479  10.414  20.244  0.00  0.00    +0.000 A 
ATOM      5  C   UNL     1       0.860   9.273  20.963  0.00  0.00    +0.000 A 
ATOM      6  C   UNL     1       1.576   8.240  20.339  0.00  0.00    +0.000 A 
ENDROOT
BRANCH   1  12
ATOM      7  C   UNL     1       5.167   4.092  16.412  0.00  0.00    +0.000 A 
ATOM      8  C   UNL     1       4.275   3.276  17.126  0.00  0.00    +0.000 A 
ATOM      9  C   UNL     1       3.263   3.820  17.925  0.00  0.00    +0.000 A 
ATOM     10  C   UNL     1       3.210   5.206  17.960  0.00  0.00    +0.000 A 
ATOM     11  O   UNL     1       2.337   5.978  18.662  0.00  0.00    +0.000 OA
ATOM     12  C   UNL     1       2.712   7.264  18.359  0.00  0.00    +0.000 A 
ATOM     13  N   UNL     1       3.734   7.356  17.526  0.00  0.00    +0.000 NA
ATOM     14  C   UNL     1       4.069   6.049  17.276  0.00  0.00    +0.000 A 
ATOM     15  C   UNL     1       5.082   5.491  16.489  0.00  0.00    +0.000 A 
BRANCH   7  17
ATOM     16  C   UNL     1       6.397   4.320  14.413  0.00  0.00    +0.000 C 
ATOM     17  O   UNL     1       6.191   3.616  15.634  0.00  0.00    +0.000 OA
ENDBRANCH   7  17
ENDBRANCH   1  12
BRANCH   4  18
ATOM     18  C   UNL     1      -0.253  11.565  20.893  0.00  0.00    +0.000 C 
BRANCH  18  19
ATOM     19  N   UNL     1      -0.130  12.791  20.144  0.00  0.00    +0.000 N 
ATOM     20  C   UNL     1       0.845  13.728  20.456  0.00  0.00    +0.000 C 
ATOM     21  O   UNL     1       1.663  13.586  21.354  0.00  0.00    +0.000 OA
ATOM     22  H   UNL     1      -0.611  12.859  19.259  0.00  0.00    +0.000 HD
BRANCH  20  23
ATOM     23  C   UNL     1       0.857  14.941  19.586  0.00  0.00    +0.000 A 
ATOM     24  C   UNL     1       2.067  15.506  19.168  0.00  0.00    +0.000 A 
ATOM     25  C   UNL     1       2.075  16.655  18.374  0.00  0.00    +0.000 A 
ATOM     26  C   UNL     1       0.874  17.247  17.974  0.00  0.00    +0.000 A 
ATOM     27  C   UNL     1       0.878  18.483  17.122  0.00  0.00    +0.000 C 
ATOM     28  C   UNL     1      -0.338  16.668  18.374  0.00  0.00    +0.000 A 
ATOM     29  C   UNL     1      -0.350  15.515  19.171  0.00  0.00    +0.000 A 
ENDBRANCH  20  23
ENDBRANCH  18  19
ENDBRANCH   4  18
TORSDOF 5
ENDMDL
MODEL 4
REMARK VINA RESULT:      -7.8      0.603      1.092
REMARK  Name = 
REMARK  7 active torsions:
REMARK  status: ('A' for Active; 'I' for Inactive)
REMARK    1  A    between atoms: C_1  and  O_2
REMARK    2  A    between atoms: O_2  and  C_3
REMARK    3  A    between atoms: C_8  and  C_9
REMARK    4  A    between atoms: C_12  and  C_13
REMARK    5  A    between atoms: C_13  and  N_14
REMARK    6  A    between atoms: C_15  and  C_17
REMARK    7  A    between atoms: C_20  and  C_21
REMARK                            x       y       z     vdW  Elec       q    Type
REMARK                         _______ _______ _______ _____ _____    ______ ____
ROOT
ATOM      1  C   UNL     1       7.927   8.125  17.972  0.00  0.00    +0.000 A 
ATOM      2  C   UNL     1       7.090   7.914  16.870  0.00  0.00    +0.000 A 
ATOM      3  C   UNL     1       6.570   6.649  16.593  0.00  0.00    +0.000 A 
ATOM      4  C   UNL     1       6.862   5.554  17.420  0.00  0.00    +0.000 A 
ATOM      5  C   UNL     1       7.714   5.756  18.514  0.00  0.00    +0.000 A 
ATOM      6  C   UNL     1       8.244   7.026  18.785  0.00  0.00    +0.000 A 
ENDROOT
BRANCH   1  12
ATOM      7  C   UNL     1      10.001  13.538  19.168  0.00  0.00    +0.000 A 
ATOM      8  C   UNL     1      10.513  12.861  20.287  0.00  0.00    +0.000 A 
ATOM      9  C   UNL     1      10.296  11.492  20.477  0.00  0.00    +0.000 A 
ATOM     10  C   UNL     1       9.546  10.863  19.495  0.00  0.00    +0.000 A 
ATOM     11  O   UNL     1       9.185   9.553  19.448  0.00  0.00    +0.000 OA
ATOM     12  C   UNL     1       8.455   9.449  18.288  0.00  0.00    +0.000 A 
ATOM     13  N   UNL     1       8.340  10.578  17.611  0.00  0.00    +0.000 NA
ATOM     14  C   UNL     1       9.020  11.490  18.378  0.00  0.00    +0.000 A 
ATOM     15  C   UNL     1       9.236  12.862  18.205  0.00  0.00    +0.000 A 
BRANCH   7  17
ATOM     16  C   UNL     1      11.510  15.339  18.967  0.00  0.00    +0.000 C 
ATOM     17  O   UNL     1      10.161  14.881  18.941  0.00  0.00    +0.000 OA
ENDBRANCH   7  17
ENDBRANCH   1  12
BRANCH   4  18
ATOM     18  C   UNL     1       6.238   4.212  17.124  0.00  0.00    +0.000 C 
BRANCH  18  19
ATOM     19  N   UNL     1       5.325   3.786  18.156  0.00  0.00    +0.000 N 
ATOM     20  C   UNL     1       4.011   4.233  18.180  0.00  0.00    +0.000 C 
ATOM     21  O   UNL     1       3.533   4.987  17.345  0.00  0.00    +0.000 OA
ATOM     22  H   UNL     1       5.585   2.995  18.726  0.00  0.00    +0.000 HD
BRANCH  20  23
ATOM     23  C   UNL     1       3.183   3.697  19.300  0.00  0.00    +0.000 A 
ATOM     24  C   UNL     1       1.824   4.018  19.398  0.00  0.00    +0.000 A 
ATOM     25  C   UNL     1       1.058   3.536  20.461  0.00  0.00    +0.000 A 
ATOM     26  C   UNL     1       1.634   2.714  21.433  0.00  0.00    +0.000 A 
ATOM     27  C   UNL     1       0.814   2.194  22.578  0.00  0.00    +0.000 C 
ATOM     28  C   UNL     1       2.989   2.374  21.323  0.00  0.00    +0.000 A 
ATOM     29  C   UNL     1       3.762   2.857  20.258  0.00  0.00    +0.000 A 
ENDBRANCH  20  23
ENDBRANCH  18  19
ENDBRANCH   4  18
TORSDOF 5
ENDMDL
MODEL 5
REMARK VINA RESULT:      -7.8      0.870      1.562
REMARK  Name = 
REMARK  7 active torsions:
REMARK  status: ('A' for Active; 'I' for Inactive)
REMARK    1  A    between atoms: C_1  and  O_2
REMARK    2  A    between atoms: O_2  and  C_3
REMARK    3  A    between atoms: C_8  and  C_9
REMARK    4  A    between atoms: C_12  and  C_13
REMARK    5  A    between atoms: C_13  and  N_14
REMARK    6  A    between atoms: C_15  and  C_17
REMARK    7  A    between atoms: C_20  and  C_21
REMARK                            x       y       z     vdW  Elec       q    Type
REMARK                         _______ _______ _______ _____ _____    ______ ____
ROOT
ATOM      1  C   UNL     1       8.119   8.360  18.228  0.00  0.00    +0.000 A 
ATOM      2  C   UNL     1       8.409   7.209  18.971  0.00  0.00    +0.000 A 
ATOM      3  C   UNL     1       7.818   5.984  18.661  0.00  0.00    +0.000 A 
ATOM      4  C   UNL     1       6.923   5.868  17.587  0.00  0.00    +0.000 A 
ATOM      5  C   UNL     1       6.614   7.020  16.851  0.00  0.00    +0.000 A 
ATOM      6  C   UNL     1       7.203   8.253  17.170  0.00  0.00    +0.000 A 
ENDROOT
BRANCH   1  12
ATOM      7  C   UNL     1      10.751  13.502  19.515  0.00  0.00    +0.000 A 
ATOM      8  C   UNL     1      10.094  13.888  18.335  0.00  0.00    +0.000 A 
ATOM      9  C   UNL     1       9.295  12.992  17.615  0.00  0.00    +0.000 A 
ATOM     10  C   UNL     1       9.205  11.713  18.144  0.00  0.00    +0.000 A 
ATOM     11  O   UNL     1       8.510  10.660  17.636  0.00  0.00    +0.000 OA
ATOM     12  C   UNL     1       8.752   9.641  18.525  0.00  0.00    +0.000 A 
ATOM     13  N   UNL     1       9.529   9.973  19.541  0.00  0.00    +0.000 NA
ATOM     14  C   UNL     1       9.836  11.289  19.301  0.00  0.00    +0.000 A 
ATOM     15  C   UNL     1      10.639  12.192  20.005  0.00  0.00    +0.000 A 
BRANCH   7  17
ATOM     16  C   UNL     1      11.701  15.649  19.734  0.00  0.00    +0.000 C 
ATOM     17  O   UNL     1      11.563  14.328  20.249  0.00  0.00    +0.000 OA
ENDBRANCH   7  17
ENDBRANCH   1  12
BRANCH   4  18
ATOM     18  C   UNL     1       6.344   4.516  17.244  0.00  0.00    +0.000 C 
BRANCH  18  19
ATOM     19  N   UNL     1       5.428   4.035  18.249  0.00  0.00    +0.000 N 
ATOM     20  C   UNL     1       4.113   4.476  18.290  0.00  0.00    +0.000 C 
ATOM     21  O   UNL     1       3.636   5.271  17.494  0.00  0.00    +0.000 OA
ATOM     22  H   UNL     1       5.689   3.216  18.778  0.00  0.00    +0.000 HD
BRANCH  20  23
ATOM     23  C   UNL     1       3.283   3.881  19.379  0.00  0.00    +0.000 A 
ATOM     24  C   UNL     1       3.829   2.936  20.256  0.00  0.00    +0.000 A 
ATOM     25  C   UNL     1       3.044   2.364  21.258  0.00  0.00    +0.000 A 
ATOM     26  C   UNL     1       1.705   2.736  21.409  0.00  0.00    +0.000 A 
ATOM     27  C   UNL     1       0.857   2.122  22.484  0.00  0.00    +0.000 C 
ATOM     28  C   UNL     1       1.164   3.698  20.545  0.00  0.00    +0.000 A 
ATOM     29  C   UNL     1       1.949   4.275  19.537  0.00  0.00    +0.000 A 
ENDBRANCH  20  23
ENDBRANCH  18  19
ENDBRANCH   4  18
TORSDOF 5
ENDMDL
MODEL 6
REMARK VINA RESULT:      -7.8      6.004      8.385
REMARK  Name = 
REMARK  7 active torsions:
REMARK  status: ('A' for Active; 'I' for Inactive)
REMARK    1  A    between atoms: C_1  and  O_2
REMARK    2  A    between atoms: O_2  and  C_3
REMARK    3  A    between atoms: C_8  and  C_9
REMARK    4  A    between atoms: C_12  and  C_13
REMARK    5  A    between atoms: C_13  and  N_14
REMARK    6  A    between atoms: C_15  and  C_17
REMARK    7  A    between atoms: C_20  and  C_21
REMARK                            x       y       z     vdW  Elec       q    Type
REMARK                         _______ _______ _______ _____ _____    ______ ____
ROOT
ATOM      1  C   UNL     1       1.796   7.276  20.187  0.00  0.00    +0.000 A 
ATOM      2  C   UNL     1       2.562   7.253  19.015  0.00  0.00    +0.000 A 
ATOM      3  C   UNL     1       3.174   6.078  18.577  0.00  0.00    +0.000 A 
ATOM      4  C   UNL     1       3.030   4.881  19.295  0.00  0.00    +0.000 A 
ATOM      5  C   UNL     1       2.279   4.902  20.479  0.00  0.00    +0.000 A 
ATOM      6  C   UNL     1       1.673   6.086  20.921  0.00  0.00    +0.000 A 
ENDROOT
BRANCH   1  12
ATOM      7  C   UNL     1      -0.901  12.252  21.916  0.00  0.00    +0.000 A 
ATOM      8  C   UNL     1      -1.171  11.459  23.044  0.00  0.00    +0.000 A 
ATOM      9  C   UNL     1      -0.721  10.137  23.135  0.00  0.00    +0.000 A 
ATOM     10  C   UNL     1      -0.002   9.674  22.043  0.00  0.00    +0.000 A 
ATOM     11  O   UNL     1       0.532   8.434  21.877  0.00  0.00    +0.000 OA
ATOM     12  C   UNL     1       1.128   8.492  20.640  0.00  0.00    +0.000 A 
ATOM     13  N   UNL     1       1.016   9.659  20.031  0.00  0.00    +0.000 NA
ATOM     14  C   UNL     1       0.285  10.418  20.911  0.00  0.00    +0.000 A 
ATOM     15  C   UNL     1      -0.180  11.734  20.829  0.00  0.00    +0.000 A 
BRANCH   7  17
ATOM     16  C   UNL     1      -0.971  14.431  22.813  0.00  0.00    +0.000 C 
ATOM     17  O   UNL     1      -1.336  13.543  21.762  0.00  0.00    +0.000 OA
ENDBRANCH   7  17
ENDBRANCH   1  12
BRANCH   4  18
ATOM     18  C   UNL     1       3.659   3.616  18.763  0.00  0.00    +0.000 C 
BRANCH  18  19
ATOM     19  N   UNL     1       4.257   3.798  17.464  0.00  0.00    +0.000 N 
ATOM     20  C   UNL     1       5.591   4.158  17.332  0.00  0.00    +0.000 C 
ATOM     21  O   UNL     1       6.346   4.329  18.278  0.00  0.00    +0.000 OA
ATOM     22  H   UNL     1       3.761   3.448  16.657  0.00  0.00    +0.000 HD
BRANCH  20  23
ATOM     23  C   UNL     1       6.070   4.299  15.926  0.00  0.00    +0.000 A 
ATOM     24  C   UNL     1       7.188   5.089  15.630  0.00  0.00    +0.000 A 
ATOM     25  C   UNL     1       7.620   5.238  14.311  0.00  0.00    +0.000 A 
ATOM     26  C   UNL     1       6.952   4.588  13.269  0.00  0.00    +0.000 A 
ATOM     27  C   UNL     1       7.412   4.747  11.849  0.00  0.00    +0.000 C 
ATOM     28  C   UNL     1       5.847   3.780  13.568  0.00  0.00    +0.000 A 
ATOM     29  C   UNL     1       5.409   3.628  14.891  0.00  0.00    +0.000 A 
ENDBRANCH  20  23
ENDBRANCH  18  19
ENDBRANCH   4  18
TORSDOF 5
ENDMDL
MODEL 7
REMARK VINA RESULT:      -7.7      6.582     10.805
REMARK  Name = 
REMARK  7 active torsions:
REMARK  status: ('A' for Active; 'I' for Inactive)
REMARK    1  A    between atoms: C_1  and  O_2
REMARK    2  A    between atoms: O_2  and  C_3
REMARK    3  A    between atoms: C_8  and  C_9
REMARK    4  A    between atoms: C_12  and  C_13
REMARK    5  A    between atoms: C_13  and  N_14
REMARK    6  A    between atoms: C_15  and  C_17
REMARK    7  A    between atoms: C_20  and  C_21
REMARK                            x       y       z     vdW  Elec       q    Type
REMARK                         _______ _______ _______ _____ _____    ______ ____
ROOT
ATOM      1  C   UNL     1       1.944   8.351  18.789  0.00  0.00    +0.000 A 
ATOM      2  C   UNL     1       1.586   8.338  20.143  0.00  0.00    +0.000 A 
ATOM      3  C   UNL     1       0.808   9.357  20.692  0.00  0.00    +0.000 A 
ATOM      4  C   UNL     1       0.352  10.421  19.898  0.00  0.00    +0.000 A 
ATOM      5  C   UNL     1       0.722  10.449  18.547  0.00  0.00    +0.000 A 
ATOM      6  C   UNL     1       1.512   9.427  17.999  0.00  0.00    +0.000 A 
ENDROOT
BRANCH   1  12
ATOM      7  C   UNL     1       5.236   4.069  16.367  0.00  0.00    +0.000 A 
ATOM      8  C   UNL     1       4.219   3.272  16.918  0.00  0.00    +0.000 A 
ATOM      9  C   UNL     1       3.147   3.833  17.622  0.00  0.00    +0.000 A 
ATOM     10  C   UNL     1       3.166   5.215  17.735  0.00  0.00    +0.000 A 
ATOM     11  O   UNL     1       2.256   6.000  18.374  0.00  0.00    +0.000 OA
ATOM     12  C   UNL     1       2.735   7.276  18.197  0.00  0.00    +0.000 A 
ATOM     13  N   UNL     1       3.855   7.350  17.500  0.00  0.00    +0.000 NA
ATOM     14  C   UNL     1       4.147   6.040  17.211  0.00  0.00    +0.000 A 
ATOM     15  C   UNL     1       5.218   5.465  16.520  0.00  0.00    +0.000 A 
BRANCH   7  17
ATOM     16  C   UNL     1       6.320   3.826  14.288  0.00  0.00    +0.000 C 
ATOM     17  O   UNL     1       6.320   3.574  15.690  0.00  0.00    +0.000 OA
ENDBRANCH   7  17
ENDBRANCH   1  12
BRANCH   4  18
ATOM     18  C   UNL     1      -0.535  11.478  20.511  0.00  0.00    +0.000 C 
BRANCH  18  19
ATOM     19  N   UNL     1      -0.400  12.758  19.861  0.00  0.00    +0.000 N 
ATOM     20  C   UNL     1       0.465  13.725  20.353  0.00  0.00    +0.000 C 
ATOM     21  O   UNL     1       1.172  13.568  21.338  0.00  0.00    +0.000 OA
ATOM     22  H   UNL     1      -0.771  12.860  18.928  0.00  0.00    +0.000 HD
BRANCH  20  23
ATOM     23  C   UNL     1       0.505  14.994  19.568  0.00  0.00    +0.000 A 
ATOM     24  C   UNL     1      -0.662  15.739  19.359  0.00  0.00    +0.000 A 
ATOM     25  C   UNL     1      -0.627  16.913  18.604  0.00  0.00    +0.000 A 
ATOM     26  C   UNL     1       0.577  17.369  18.060  0.00  0.00    +0.000 A 
ATOM     27  C   UNL     1       0.620  18.629  17.246  0.00  0.00    +0.000 C 
ATOM     28  C   UNL     1       1.750  16.636  18.289  0.00  0.00    +0.000 A 
ATOM     29  C   UNL     1       1.718  15.456  19.046  0.00  0.00    +0.000 A 
ENDBRANCH  20  23
ENDBRANCH  18  19
ENDBRANCH   4  18
TORSDOF 5
ENDMDL
MODEL 8
REMARK VINA RESULT:      -7.7      0.936      1.594
REMARK  Name = 
REMARK  7 active torsions:
REMARK  status: ('A' for Active; 'I' for Inactive)
REMARK    1  A    between atoms: C_1  and  O_2
REMARK    2  A    between atoms: O_2  and  C_3
REMARK    3  A    between atoms: C_8  and  C_9
REMARK    4  A    between atoms: C_12  and  C_13
REMARK    5  A    between atoms: C_13  and  N_14
REMARK    6  A    between atoms: C_15  and  C_17
REMARK    7  A    between atoms: C_20  and  C_21
REMARK                            x       y       z     vdW  Elec       q    Type
REMARK                         _______ _______ _______ _____ _____    ______ ____
ROOT
ATOM      1  C   UNL     1       8.343   8.552  18.411  0.00  0.00    +0.000 A 
ATOM      2  C   UNL     1       7.635   8.309  17.228  0.00  0.00    +0.000 A 
ATOM      3  C   UNL     1       7.174   7.030  16.914  0.00  0.00    +0.000 A 
ATOM      4  C   UNL     1       7.399   5.951  17.783  0.00  0.00    +0.000 A 
ATOM      5  C   UNL     1       8.123   6.185  18.960  0.00  0.00    +0.000 A 
ATOM      6  C   UNL     1       8.592   7.470  19.269  0.00  0.00    +0.000 A 
ENDROOT
BRANCH   1  12
ATOM      7  C   UNL     1      10.270  13.936  19.936  0.00  0.00    +0.000 A 
ATOM      8  C   UNL     1       9.809  14.233  18.643  0.00  0.00    +0.000 A 
ATOM      9  C   UNL     1       9.229  13.253  17.829  0.00  0.00    +0.000 A 
ATOM     10  C   UNL     1       9.150  11.985  18.385  0.00  0.00    +0.000 A 
ATOM     11  O   UNL     1       8.645  10.863  17.805  0.00  0.00    +0.000 OA
ATOM     12  C   UNL     1       8.805   9.891  18.763  0.00  0.00    +0.000 A 
ATOM     13  N   UNL     1       9.356  10.315  19.887  0.00  0.00    +0.000 NA
ATOM     14  C   UNL     1       9.593  11.647  19.653  0.00  0.00    +0.000 A 
ATOM     15  C   UNL     1      10.179  12.634  20.452  0.00  0.00    +0.000 A 
BRANCH   7  17
ATOM     16  C   UNL     1      10.174  15.093  21.988  0.00  0.00    +0.000 C 
ATOM     17  O   UNL     1      10.866  14.848  20.769  0.00  0.00    +0.000 OA
ENDBRANCH   7  17
ENDBRANCH   1  12
BRANCH   4  18
ATOM     18  C   UNL     1       6.839   4.592  17.440  0.00  0.00    +0.000 C 
BRANCH  18  19
ATOM     19  N   UNL     1       5.845   4.148  18.386  0.00  0.00    +0.000 N 
ATOM     20  C   UNL     1       4.515   4.526  18.260  0.00  0.00    +0.000 C 
ATOM     21  O   UNL     1       4.091   5.232  17.357  0.00  0.00    +0.000 OA
ATOM     22  H   UNL     1       6.083   3.386  19.005  0.00  0.00    +0.000 HD
BRANCH  20  23
ATOM     23  C   UNL     1       3.603   3.980  19.307  0.00  0.00    +0.000 A 
ATOM     24  C   UNL     1       2.464   4.693  19.702  0.00  0.00    +0.000 A 
ATOM     25  C   UNL     1       1.625   4.191  20.699  0.00  0.00    +0.000 A 
ATOM     26  C   UNL     1       1.902   2.962  21.305  0.00  0.00    +0.000 A 
ATOM     27  C   UNL     1       1.003   2.419  22.377  0.00  0.00    +0.000 C 
ATOM     28  C   UNL     1       3.029   2.237  20.893  0.00  0.00    +0.000 A 
ATOM     29  C   UNL     1       3.874   2.738  19.893  0.00  0.00    +0.000 A 
ENDBRANCH  20  23
ENDBRANCH  18  19
ENDBRANCH   4  18
TORSDOF 5
ENDMDL
MODEL 9
REMARK VINA RESULT:      -7.7      6.097      8.438
REMARK  Name = 
REMARK  7 active torsions:
REMARK  status: ('A' for Active; 'I' for Inactive)
REMARK    1  A    between atoms: C_1  and  O_2
REMARK    2  A    between atoms: O_2  and  C_3
REMARK    3  A    between atoms: C_8  and  C_9
REMARK    4  A    between atoms: C_12  and  C_13
REMARK    5  A    between atoms: C_13  and  N_14
REMARK    6  A    between atoms: C_15  and  C_17
REMARK    7  A    between atoms: C_20  and  C_21
REMARK                            x       y       z     vdW  Elec       q    Type
REMARK                         _______ _______ _______ _____ _____    ______ ____
ROOT
ATOM      1  C   UNL     1       1.964   7.075  20.144  0.00  0.00    +0.000 A 
ATOM      2  C   UNL     1       2.792   7.111  19.016  0.00  0.00    +0.000 A 
ATOM      3  C   UNL     1       3.500   5.981  18.605  0.00  0.00    +0.000 A 
ATOM      4  C   UNL     1       3.392   4.771  19.307  0.00  0.00    +0.000 A 
ATOM      5  C   UNL     1       2.578   4.733  20.448  0.00  0.00    +0.000 A 
ATOM      6  C   UNL     1       1.875   5.874  20.863  0.00  0.00    +0.000 A 
ENDROOT
BRANCH   1  12
ATOM      7  C   UNL     1      -1.155  11.844  21.745  0.00  0.00    +0.000 A 
ATOM      8  C   UNL     1      -1.166  11.159  22.971  0.00  0.00    +0.000 A 
ATOM      9  C   UNL     1      -0.529   9.922  23.126  0.00  0.00    +0.000 A 
ATOM     10  C   UNL     1       0.101   9.429  21.994  0.00  0.00    +0.000 A 
ATOM     11  O   UNL     1       0.777   8.255  21.874  0.00  0.00    +0.000 OA
ATOM     12  C   UNL     1       1.197   8.243  20.566  0.00  0.00    +0.000 A 
ATOM     13  N   UNL     1       0.847   9.310  19.869  0.00  0.00    +0.000 NA
ATOM     14  C   UNL     1       0.136  10.067  20.766  0.00  0.00    +0.000 A 
ATOM     15  C   UNL     1      -0.513  11.298  20.622  0.00  0.00    +0.000 A 
BRANCH   7  17
ATOM     16  C   UNL     1      -1.371  13.732  20.350  0.00  0.00    +0.000 C 
ATOM     17  O   UNL     1      -1.780  13.045  21.528  0.00  0.00    +0.000 OA
ENDBRANCH   7  17
ENDBRANCH   1  12
BRANCH   4  18
ATOM     18  C   UNL     1       4.128   3.552  18.804  0.00  0.00    +0.000 C 
BRANCH  18  19
ATOM     19  N   UNL     1       4.593   3.707  17.448  0.00  0.00    +0.000 N 
ATOM     20  C   UNL     1       5.887   4.132  17.177  0.00  0.00    +0.000 C 
ATOM     21  O   UNL     1       6.713   4.387  18.041  0.00  0.00    +0.000 OA
ATOM     22  H   UNL     1       4.047   3.294  16.706  0.00  0.00    +0.000 HD
BRANCH  20  23
ATOM     23  C   UNL     1       6.227   4.234  15.728  0.00  0.00    +0.000 A 
ATOM     24  C   UNL     1       5.460   3.563  14.767  0.00  0.00    +0.000 A 
ATOM     25  C   UNL     1       5.795   3.641  13.414  0.00  0.00    +0.000 A 
ATOM     26  C   UNL     1       6.891   4.401  12.998  0.00  0.00    +0.000 A 
ATOM     27  C   UNL     1       7.255   4.486  11.545  0.00  0.00    +0.000 C 
ATOM     28  C   UNL     1       7.645   5.091  13.957  0.00  0.00    +0.000 A 
ATOM     29  C   UNL     1       7.313   5.015  15.317  0.00  0.00    +0.000 A 
ENDBRANCH  20  23
ENDBRANCH  18  19
ENDBRANCH   4  18
TORSDOF 5
ENDMDL
