MODEL 1
REMARK VINA RESULT:      -7.4      0.000      0.000
REMARK  Name = 
REMARK  7 active torsions:
REMARK  status: ('A' for Active; 'I' for Inactive)
REMARK    1  A    between atoms: C_1  and  O_2
REMARK    2  A    between atoms: O_2  and  C_3
REMARK    3  A    between atoms: C_3  and  C_4
REMARK    4  A    between atoms: C_3  and  C_5
REMARK    5  A    between atoms: C_3  and  C_15
REMARK    6  A    between atoms: C_5  and  N_6
REMARK    7  A    between atoms: N_9  and  C_10
REMARK                            x       y       z     vdW  Elec       q    Type
REMARK                         _______ _______ _______ _____ _____    ______ ____
ROOT
ATOM      1  C   UNL     1       5.200   5.905  16.144  0.00  0.00    +0.000 C 
ENDROOT
BRANCH   1   2
ATOM      2  N   UNL     1       4.288   4.903  16.698  0.00  0.00    +0.000 N 
ATOM      3  C   UNL     1       3.979   4.918  18.035  0.00  0.00    +0.000 C 
ATOM      4  O   UNL     1       4.446   5.733  18.830  0.00  0.00    +0.000 OA
ATOM      5  N   UNL     1       3.080   3.938  18.371  0.00  0.00    +0.000 N 
ATOM      6  H   UNL     1       3.559   4.552  16.089  0.00  0.00    +0.000 HD
ATOM      7  H   UNL     1       3.130   3.103  17.806  0.00  0.00    +0.000 HD
BRANCH   5   8
ATOM      8  C   UNL     1       2.614   3.806  19.738  0.00  0.00    +0.000 C 
ATOM      9  C   UNL     1       1.175   3.306  19.837  0.00  0.00    +0.000 C 
ATOM     10  C   UNL     1       1.047   2.920  21.307  0.00  0.00    +0.000 C 
ATOM     11  C   UNL     1       2.442   2.454  21.732  0.00  0.00    +0.000 C 
ATOM     12  C   UNL     1       3.370   2.755  20.552  0.00  0.00    +0.000 C 
ENDBRANCH   5   8
ENDBRANCH   1   2
BRANCH   1  13
ATOM     13  C   UNL     1       6.674   5.424  15.936  0.00  0.00    +0.000 C 
ATOM     14  C   UNL     1       6.986   4.199  16.832  0.00  0.00    +0.000 C 
BRANCH  13  15
ATOM     15  C   UNL     1       6.896   5.010  14.461  0.00  0.00    +0.000 A 
ATOM     16  C   UNL     1       7.838   5.668  13.646  0.00  0.00    +0.000 A 
ATOM     17  C   UNL     1       8.003   5.320  12.301  0.00  0.00    +0.000 A 
ATOM     18  C   UNL     1       7.238   4.297  11.744  0.00  0.00    +0.000 A 
ATOM     19  C   UNL     1       6.321   3.620  12.538  0.00  0.00    +0.000 A 
ATOM     20 CL   UNL     1       5.377   2.352  11.857  0.00  0.00    +0.000 Cl
ATOM     21  C   UNL     1       6.150   3.966  13.879  0.00  0.00    +0.000 A 
ENDBRANCH  13  15
BRANCH  13  23
ATOM     22  C   UNL     1       7.508   7.203  17.427  0.00  0.00    +0.000 C 
ATOM     23  O   UNL     1       7.625   6.478  16.216  0.00  0.00    +0.000 OA
ENDBRANCH  13  23
ENDBRANCH   1  13
TORSDOF 5
ENDMDL
MODEL 2
REMARK VINA RESULT:      -7.3      3.810      5.315
REMARK  Name = 
REMARK  7 active torsions:
REMARK  status: ('A' for Active; 'I' for Inactive)
REMARK    1  A    between atoms: C_1  and  O_2
REMARK    2  A    between atoms: O_2  and  C_3
REMARK    3  A    between atoms: C_3  and  C_4
REMARK    4  A    between atoms: C_3  and  C_5
REMARK    5  A    between atoms: C_3  and  C_15
REMARK    6  A    between atoms: C_5  and  N_6
REMARK    7  A    between atoms: N_9  and  C_10
REMARK                            x       y       z     vdW  Elec       q    Type
REMARK                         _______ _______ _______ _____ _____    ______ ____
ROOT
ATOM      1  C   UNL     1       3.486   4.519  19.881  0.00  0.00    +0.000 C 
ENDROOT
BRANCH   1   2
ATOM      2  N   UNL     1       3.231   5.958  19.967  0.00  0.00    +0.000 N 
ATOM      3  C   UNL     1       2.049   6.417  20.490  0.00  0.00    +0.000 C 
ATOM      4  O   UNL     1       1.150   5.678  20.889  0.00  0.00    +0.000 OA
ATOM      5  N   UNL     1       1.999   7.788  20.533  0.00  0.00    +0.000 N 
ATOM      6  H   UNL     1       4.031   6.563  20.107  0.00  0.00    +0.000 HD
ATOM      7  H   UNL     1       2.522   8.256  19.808  0.00  0.00    +0.000 HD
BRANCH   5   8
ATOM      8  C   UNL     1       0.835   8.464  21.073  0.00  0.00    +0.000 C 
ATOM      9  C   UNL     1       1.099   9.131  22.420  0.00  0.00    +0.000 C 
ATOM     10  C   UNL     1      -0.115  10.039  22.596  0.00  0.00    +0.000 C 
ATOM     11  C   UNL     1      -0.521  10.460  21.181  0.00  0.00    +0.000 C 
ATOM     12  C   UNL     1       0.353   9.641  20.226  0.00  0.00    +0.000 C 
ENDBRANCH   5   8
ENDBRANCH   1   2
BRANCH   1  13
ATOM     13  C   UNL     1       3.393   3.908  18.444  0.00  0.00    +0.000 C 
ATOM     14  C   UNL     1       2.269   4.593  17.626  0.00  0.00    +0.000 C 
BRANCH  13  15
ATOM     15  C   UNL     1       4.730   4.115  17.691  0.00  0.00    +0.000 A 
ATOM     16  C   UNL     1       5.903   4.503  18.369  0.00  0.00    +0.000 A 
ATOM     17  C   UNL     1       7.098   4.732  17.678  0.00  0.00    +0.000 A 
ATOM     18  C   UNL     1       7.151   4.565  16.296  0.00  0.00    +0.000 A 
ATOM     19  C   UNL     1       6.011   4.160  15.613  0.00  0.00    +0.000 A 
ATOM     20 CL   UNL     1       6.071   3.948  13.906  0.00  0.00    +0.000 Cl
ATOM     21  C   UNL     1       4.815   3.934  16.297  0.00  0.00    +0.000 A 
ENDBRANCH  13  15
BRANCH  13  23
ATOM     22  C   UNL     1       1.919   2.004  18.978  0.00  0.00    +0.000 C 
ATOM     23  O   UNL     1       3.158   2.482  18.482  0.00  0.00    +0.000 OA
ENDBRANCH  13  23
ENDBRANCH   1  13
TORSDOF 5
ENDMDL
MODEL 3
REMARK VINA RESULT:      -7.3      4.158      7.498
REMARK  Name = 
REMARK  7 active torsions:
REMARK  status: ('A' for Active; 'I' for Inactive)
REMARK    1  A    between atoms: C_1  and  O_2
REMARK    2  A    between atoms: O_2  and  C_3
REMARK    3  A    between atoms: C_3  and  C_4
REMARK    4  A    between atoms: C_3  and  C_5
REMARK    5  A    between atoms: C_3  and  C_15
REMARK    6  A    between atoms: C_5  and  N_6
REMARK    7  A    between atoms: N_9  and  C_10
REMARK                            x       y       z     vdW  Elec       q    Type
REMARK                         _______ _______ _______ _____ _____    ______ ____
ROOT
ATOM      1  C   UNL     1       7.339   7.237  17.403  0.00  0.00    +0.000 C 
ENDROOT
BRANCH   1   2
ATOM      2  N   UNL     1       8.276   7.848  18.346  0.00  0.00    +0.000 N 
ATOM      3  C   UNL     1       8.436   9.210  18.374  0.00  0.00    +0.000 C 
ATOM      4  O   UNL     1       7.837   9.979  17.623  0.00  0.00    +0.000 OA
ATOM      5  N   UNL     1       9.320   9.610  19.344  0.00  0.00    +0.000 N 
ATOM      6  H   UNL     1       8.416   7.377  19.232  0.00  0.00    +0.000 HD
ATOM      7  H   UNL     1      10.050   8.945  19.555  0.00  0.00    +0.000 HD
BRANCH   5   8
ATOM      8  C   UNL     1       9.605  11.017  19.543  0.00  0.00    +0.000 C 
ATOM      9  C   UNL     1       9.371  11.481  20.979  0.00  0.00    +0.000 C 
ATOM     10  C   UNL     1      10.057  12.843  21.015  0.00  0.00    +0.000 C 
ATOM     11  C   UNL     1      11.227  12.739  20.032  0.00  0.00    +0.000 C 
ATOM     12  C   UNL     1      11.072  11.389  19.327  0.00  0.00    +0.000 C 
ENDBRANCH   5   8
ENDBRANCH   1   2
BRANCH   1  13
ATOM     13  C   UNL     1       7.058   5.715  17.630  0.00  0.00    +0.000 C 
ATOM     14  C   UNL     1       7.670   5.235  18.970  0.00  0.00    +0.000 C 
BRANCH  13  15
ATOM     15  C   UNL     1       5.532   5.457  17.679  0.00  0.00    +0.000 A 
ATOM     16  C   UNL     1       4.606   6.519  17.656  0.00  0.00    +0.000 A 
ATOM     17  C   UNL     1       3.230   6.283  17.745  0.00  0.00    +0.000 A 
ATOM     18  C   UNL     1       2.748   4.980  17.847  0.00  0.00    +0.000 A 
ATOM     19  C   UNL     1       3.644   3.918  17.847  0.00  0.00    +0.000 A 
ATOM     20 CL   UNL     1       3.055   2.306  17.968  0.00  0.00    +0.000 Cl
ATOM     21  C   UNL     1       5.018   4.149  17.762  0.00  0.00    +0.000 A 
ENDBRANCH  13  15
BRANCH  13  23
ATOM     22  C   UNL     1       7.067   5.103  15.241  0.00  0.00    +0.000 C 
ATOM     23  O   UNL     1       7.578   4.907  16.549  0.00  0.00    +0.000 OA
ENDBRANCH  13  23
ENDBRANCH   1  13
TORSDOF 5
ENDMDL
MODEL 4
REMARK VINA RESULT:      -7.2      4.322      7.649
REMARK  Name = 
REMARK  7 active torsions:
REMARK  status: ('A' for Active; 'I' for Inactive)
REMARK    1  A    between atoms: C_1  and  O_2
REMARK    2  A    between atoms: O_2  and  C_3
REMARK    3  A    between atoms: C_3  and  C_4
REMARK    4  A    between atoms: C_3  and  C_5
REMARK    5  A    between atoms: C_3  and  C_15
REMARK    6  A    between atoms: C_5  and  N_6
REMARK    7  A    between atoms: N_9  and  C_10
REMARK                            x       y       z     vdW  Elec       q    Type
REMARK                         _______ _______ _______ _____ _____    ______ ____
ROOT
ATOM      1  C   UNL     1       7.388   7.174  17.358  0.00  0.00    +0.000 C 
ENDROOT
BRANCH   1   2
ATOM      2  N   UNL     1       8.298   7.797  18.321  0.00  0.00    +0.000 N 
ATOM      3  C   UNL     1       8.430   9.162  18.358  0.00  0.00    +0.000 C 
ATOM      4  O   UNL     1       7.829   9.924  17.601  0.00  0.00    +0.000 OA
ATOM      5  N   UNL     1       9.289   9.573  19.346  0.00  0.00    +0.000 N 
ATOM      6  H   UNL     1       8.431   7.325  19.206  0.00  0.00    +0.000 HD
ATOM      7  H   UNL     1      10.029   8.922  19.565  0.00  0.00    +0.000 HD
BRANCH   5   8
ATOM      8  C   UNL     1       9.544  10.985  19.557  0.00  0.00    +0.000 C 
ATOM      9  C   UNL     1       9.395  11.411  21.015  0.00  0.00    +0.000 C 
ATOM     10  C   UNL     1      10.039  12.794  21.035  0.00  0.00    +0.000 C 
ATOM     11  C   UNL     1      11.140  12.749  19.973  0.00  0.00    +0.000 C 
ATOM     12  C   UNL     1      10.980  11.410  19.249  0.00  0.00    +0.000 C 
ENDBRANCH   5   8
ENDBRANCH   1   2
BRANCH   1  13
ATOM     13  C   UNL     1       7.045   5.673  17.638  0.00  0.00    +0.000 C 
ATOM     14  C   UNL     1       7.705   5.193  18.955  0.00  0.00    +0.000 C 
BRANCH  13  15
ATOM     15  C   UNL     1       5.513   5.494  17.774  0.00  0.00    +0.000 A 
ATOM     16  C   UNL     1       4.929   4.217  17.887  0.00  0.00    +0.000 A 
ATOM     17  C   UNL     1       3.542   4.059  17.966  0.00  0.00    +0.000 A 
ATOM     18  C   UNL     1       2.707   5.174  17.945  0.00  0.00    +0.000 A 
ATOM     19  C   UNL     1       3.265   6.443  17.858  0.00  0.00    +0.000 A 
ATOM     20 CL   UNL     1       2.240   7.826  17.837  0.00  0.00    +0.000 Cl
ATOM     21  C   UNL     1       4.649   6.606  17.776  0.00  0.00    +0.000 A 
ENDBRANCH  13  15
BRANCH  13  23
ATOM     22  C   UNL     1       7.024   5.111  15.236  0.00  0.00    +0.000 C 
ATOM     23  O   UNL     1       7.465   4.817  16.550  0.00  0.00    +0.000 OA
ENDBRANCH  13  23
ENDBRANCH   1  13
TORSDOF 5
ENDMDL
MODEL 5
REMARK VINA RESULT:      -7.1      3.986      5.278
REMARK  Name = 
REMARK  7 active torsions:
REMARK  status: ('A' for Active; 'I' for Inactive)
REMARK    1  A    between atoms: C_1  and  O_2
REMARK    2  A    between atoms: O_2  and  C_3
REMARK    3  A    between atoms: C_3  and  C_4
REMARK    4  A    between atoms: C_3  and  C_5
REMARK    5  A    between atoms: C_3  and  C_15
REMARK    6  A    between atoms: C_5  and  N_6
REMARK    7  A    between atoms: N_9  and  C_10
REMARK                            x       y       z     vdW  Elec       q    Type
REMARK                         _______ _______ _______ _____ _____    ______ ____
ROOT
ATOM      1  C   UNL     1       2.836   5.738  18.442  0.00  0.00    +0.000 C 
ENDROOT
BRANCH   1   2
ATOM      2  N   UNL     1       2.338   6.231  19.727  0.00  0.00    +0.000 N 
ATOM      3  C   UNL     1       1.954   7.541  19.860  0.00  0.00    +0.000 C 
ATOM      4  O   UNL     1       2.017   8.363  18.947  0.00  0.00    +0.000 OA
ATOM      5  N   UNL     1       1.475   7.816  21.116  0.00  0.00    +0.000 N 
ATOM      6  H   UNL     1       1.843   5.572  20.316  0.00  0.00    +0.000 HD
ATOM      7  H   UNL     1       1.879   7.262  21.857  0.00  0.00    +0.000 HD
BRANCH   5   8
ATOM      8  C   UNL     1       1.000   9.146  21.446  0.00  0.00    +0.000 C 
ATOM      9  C   UNL     1      -0.163   9.604  20.569  0.00  0.00    +0.000 C 
ATOM     10  C   UNL     1      -0.695  10.823  21.316  0.00  0.00    +0.000 C 
ATOM     11  C   UNL     1      -0.433  10.543  22.798  0.00  0.00    +0.000 C 
ATOM     12  C   UNL     1       0.403   9.261  22.848  0.00  0.00    +0.000 C 
ENDBRANCH   5   8
ENDBRANCH   1   2
BRANCH   1  13
ATOM     13  C   UNL     1       3.510   4.327  18.482  0.00  0.00    +0.000 C 
ATOM     14  C   UNL     1       2.592   3.259  17.838  0.00  0.00    +0.000 C 
BRANCH  13  15
ATOM     15  C   UNL     1       4.844   4.353  17.696  0.00  0.00    +0.000 A 
ATOM     16  C   UNL     1       6.065   4.656  18.330  0.00  0.00    +0.000 A 
ATOM     17  C   UNL     1       7.261   4.722  17.607  0.00  0.00    +0.000 A 
ATOM     18  C   UNL     1       7.265   4.473  16.236  0.00  0.00    +0.000 A 
ATOM     19  C   UNL     1       6.075   4.150  15.597  0.00  0.00    +0.000 A 
ATOM     20 CL   UNL     1       6.073   3.837  13.905  0.00  0.00    +0.000 Cl
ATOM     21  C   UNL     1       4.878   4.086  16.314  0.00  0.00    +0.000 A 
ENDBRANCH  13  15
BRANCH  13  23
ATOM     22  C   UNL     1       3.189   2.795  20.389  0.00  0.00    +0.000 C 
ATOM     23  O   UNL     1       3.836   3.928  19.834  0.00  0.00    +0.000 OA
ENDBRANCH  13  23
ENDBRANCH   1  13
TORSDOF 5
ENDMDL
MODEL 6
REMARK VINA RESULT:      -7.1      3.487      7.579
REMARK  Name = 
REMARK  7 active torsions:
REMARK  status: ('A' for Active; 'I' for Inactive)
REMARK    1  A    between atoms: C_1  and  O_2
REMARK    2  A    between atoms: O_2  and  C_3
REMARK    3  A    between atoms: C_3  and  C_4
REMARK    4  A    between atoms: C_3  and  C_5
REMARK    5  A    between atoms: C_3  and  C_15
REMARK    6  A    between atoms: C_5  and  N_6
REMARK    7  A    between atoms: N_9  and  C_10
REMARK                            x       y       z     vdW  Elec       q    Type
REMARK                         _______ _______ _______ _____ _____    ______ ____
ROOT
ATOM      1  C   UNL     1       4.449   4.280  18.903  0.00  0.00    +0.000 C 
ENDROOT
BRANCH   1   2
ATOM      2  N   UNL     1       4.803   3.673  17.620  0.00  0.00    +0.000 N 
ATOM      3  C   UNL     1       5.196   4.463  16.569  0.00  0.00    +0.000 C 
ATOM      4  O   UNL     1       5.257   5.691  16.630  0.00  0.00    +0.000 OA
ATOM      5  N   UNL     1       5.530   3.726  15.461  0.00  0.00    +0.000 N 
ATOM      6  H   UNL     1       5.212   2.746  17.641  0.00  0.00    +0.000 HD
ATOM      7  H   UNL     1       5.030   2.854  15.364  0.00  0.00    +0.000 HD
BRANCH   5   8
ATOM      8  C   UNL     1       5.991   4.383  14.253  0.00  0.00    +0.000 C 
ATOM      9  C   UNL     1       7.432   4.876  14.350  0.00  0.00    +0.000 C 
ATOM     10  C   UNL     1       7.785   5.189  12.900  0.00  0.00    +0.000 C 
ATOM     11  C   UNL     1       6.980   4.196  12.058  0.00  0.00    +0.000 C 
ATOM     12  C   UNL     1       6.053   3.465  13.033  0.00  0.00    +0.000 C 
ENDBRANCH   5   8
ENDBRANCH   1   2
BRANCH   1  13
ATOM     13  C   UNL     1       2.915   4.394  19.189  0.00  0.00    +0.000 C 
ATOM     14  C   UNL     1       2.567   3.798  20.576  0.00  0.00    +0.000 C 
BRANCH  13  15
ATOM     15  C   UNL     1       2.482   5.880  19.181  0.00  0.00    +0.000 A 
ATOM     16  C   UNL     1       2.522   6.652  18.002  0.00  0.00    +0.000 A 
ATOM     17  C   UNL     1       2.172   8.006  18.010  0.00  0.00    +0.000 A 
ATOM     18  C   UNL     1       1.762   8.617  19.193  0.00  0.00    +0.000 A 
ATOM     19  C   UNL     1       1.694   7.867  20.361  0.00  0.00    +0.000 A 
ATOM     20 CL   UNL     1       1.185   8.615  21.825  0.00  0.00    +0.000 Cl
ATOM     21  C   UNL     1       2.046   6.516  20.359  0.00  0.00    +0.000 A 
ENDBRANCH  13  15
BRANCH  13  23
ATOM     22  C   UNL     1       1.220   2.717  18.559  0.00  0.00    +0.000 C 
ATOM     23  O   UNL     1       2.130   3.731  18.171  0.00  0.00    +0.000 OA
ENDBRANCH  13  23
ENDBRANCH   1  13
TORSDOF 5
ENDMDL
MODEL 7
REMARK VINA RESULT:      -7.0      1.300      1.791
REMARK  Name = 
REMARK  7 active torsions:
REMARK  status: ('A' for Active; 'I' for Inactive)
REMARK    1  A    between atoms: C_1  and  O_2
REMARK    2  A    between atoms: O_2  and  C_3
REMARK    3  A    between atoms: C_3  and  C_4
REMARK    4  A    between atoms: C_3  and  C_5
REMARK    5  A    between atoms: C_3  and  C_15
REMARK    6  A    between atoms: C_5  and  N_6
REMARK    7  A    between atoms: N_9  and  C_10
REMARK                            x       y       z     vdW  Elec       q    Type
REMARK                         _______ _______ _______ _____ _____    ______ ____
ROOT
ATOM      1  C   UNL     1       6.654   4.025  16.984  0.00  0.00    +0.000 C 
ENDROOT
BRANCH   1   2
ATOM      2  N   UNL     1       5.965   4.042  18.275  0.00  0.00    +0.000 N 
ATOM      3  C   UNL     1       4.724   3.471  18.401  0.00  0.00    +0.000 C 
ATOM      4  O   UNL     1       4.123   2.942  17.466  0.00  0.00    +0.000 OA
ATOM      5  N   UNL     1       4.248   3.541  19.686  0.00  0.00    +0.000 N 
ATOM      6  H   UNL     1       6.540   4.017  19.108  0.00  0.00    +0.000 HD
ATOM      7  H   UNL     1       4.564   4.342  20.213  0.00  0.00    +0.000 HD
BRANCH   5   8
ATOM      8  C   UNL     1       2.958   2.972  20.023  0.00  0.00    +0.000 C 
ATOM      9  C   UNL     1       2.726   2.857  21.528  0.00  0.00    +0.000 C 
ATOM     10  C   UNL     1       1.229   2.584  21.624  0.00  0.00    +0.000 C 
ATOM     11  C   UNL     1       0.602   3.312  20.432  0.00  0.00    +0.000 C 
ATOM     12  C   UNL     1       1.769   3.827  19.586  0.00  0.00    +0.000 C 
ENDBRANCH   5   8
ENDBRANCH   1   2
BRANCH   1  13
ATOM     13  C   UNL     1       6.385   5.262  16.066  0.00  0.00    +0.000 C 
ATOM     14  C   UNL     1       7.274   6.461  16.482  0.00  0.00    +0.000 C 
BRANCH  13  15
ATOM     15  C   UNL     1       6.708   4.912  14.593  0.00  0.00    +0.000 A 
ATOM     16  C   UNL     1       7.714   5.593  13.879  0.00  0.00    +0.000 A 
ATOM     17  C   UNL     1       7.973   5.302  12.535  0.00  0.00    +0.000 A 
ATOM     18  C   UNL     1       7.240   4.316  11.878  0.00  0.00    +0.000 A 
ATOM     19  C   UNL     1       6.260   3.617  12.572  0.00  0.00    +0.000 A 
ATOM     20 CL   UNL     1       5.354   2.394  11.767  0.00  0.00    +0.000 Cl
ATOM     21  C   UNL     1       5.996   3.906  13.912  0.00  0.00    +0.000 A 
ENDBRANCH  13  15
BRANCH  13  23
ATOM     22  C   UNL     1       4.652   6.903  16.690  0.00  0.00    +0.000 C 
ATOM     23  O   UNL     1       4.995   5.661  16.099  0.00  0.00    +0.000 OA
ENDBRANCH  13  23
ENDBRANCH   1  13
TORSDOF 5
ENDMDL
MODEL 8
REMARK VINA RESULT:      -7.0      4.170      5.834
REMARK  Name = 
REMARK  7 active torsions:
REMARK  status: ('A' for Active; 'I' for Inactive)
REMARK    1  A    between atoms: C_1  and  O_2
REMARK    2  A    between atoms: O_2  and  C_3
REMARK    3  A    between atoms: C_3  and  C_4
REMARK    4  A    between atoms: C_3  and  C_5
REMARK    5  A    between atoms: C_3  and  C_15
REMARK    6  A    between atoms: C_5  and  N_6
REMARK    7  A    between atoms: N_9  and  C_10
REMARK                            x       y       z     vdW  Elec       q    Type
REMARK                         _______ _______ _______ _____ _____    ______ ____
ROOT
ATOM      1  C   UNL     1       3.240   5.694  19.452  0.00  0.00    +0.000 C 
ENDROOT
BRANCH   1   2
ATOM      2  N   UNL     1       2.801   6.864  18.690  0.00  0.00    +0.000 N 
ATOM      3  C   UNL     1       2.077   7.854  19.305  0.00  0.00    +0.000 C 
ATOM      4  O   UNL     1       1.745   7.816  20.490  0.00  0.00    +0.000 OA
ATOM      5  N   UNL     1       1.789   8.891  18.455  0.00  0.00    +0.000 N 
ATOM      6  H   UNL     1       3.394   7.171  17.928  0.00  0.00    +0.000 HD
ATOM      7  H   UNL     1       1.690   8.631  17.484  0.00  0.00    +0.000 HD
BRANCH   5   8
ATOM      8  C   UNL     1       1.047  10.044  18.927  0.00  0.00    +0.000 C 
ATOM      9  C   UNL     1       1.682  11.373  18.527  0.00  0.00    +0.000 C 
ATOM     10  C   UNL     1       0.574  12.382  18.813  0.00  0.00    +0.000 C 
ATOM     11  C   UNL     1      -0.737  11.631  18.568  0.00  0.00    +0.000 C 
ATOM     12  C   UNL     1      -0.353  10.169  18.326  0.00  0.00    +0.000 C 
ENDBRANCH   5   8
ENDBRANCH   1   2
BRANCH   1  13
ATOM     13  C   UNL     1       3.406   4.379  18.620  0.00  0.00    +0.000 C 
ATOM     14  C   UNL     1       2.248   4.220  17.603  0.00  0.00    +0.000 C 
BRANCH  13  15
ATOM     15  C   UNL     1       4.738   4.414  17.831  0.00  0.00    +0.000 A 
ATOM     16  C   UNL     1       5.964   4.689  18.469  0.00  0.00    +0.000 A 
ATOM     17  C   UNL     1       7.158   4.763  17.744  0.00  0.00    +0.000 A 
ATOM     18  C   UNL     1       7.156   4.552  16.367  0.00  0.00    +0.000 A 
ATOM     19  C   UNL     1       5.961   4.256  15.723  0.00  0.00    +0.000 A 
ATOM     20 CL   UNL     1       5.952   3.990  14.023  0.00  0.00    +0.000 Cl
ATOM     21  C   UNL     1       4.766   4.184  16.442  0.00  0.00    +0.000 A 
ENDBRANCH  13  15
BRANCH  13  23
ATOM     22  C   UNL     1       3.181   1.940  18.909  0.00  0.00    +0.000 C 
ATOM     23  O   UNL     1       3.462   3.211  19.471  0.00  0.00    +0.000 OA
ENDBRANCH  13  23
ENDBRANCH   1  13
TORSDOF 5
ENDMDL
MODEL 9
REMARK VINA RESULT:      -7.0      4.795      6.065
REMARK  Name = 
REMARK  7 active torsions:
REMARK  status: ('A' for Active; 'I' for Inactive)
REMARK    1  A    between atoms: C_1  and  O_2
REMARK    2  A    between atoms: O_2  and  C_3
REMARK    3  A    between atoms: C_3  and  C_4
REMARK    4  A    between atoms: C_3  and  C_5
REMARK    5  A    between atoms: C_3  and  C_15
REMARK    6  A    between atoms: C_5  and  N_6
REMARK    7  A    between atoms: N_9  and  C_10
REMARK                            x       y       z     vdW  Elec       q    Type
REMARK                         _______ _______ _______ _____ _____    ______ ____
ROOT
ATOM      1  C   UNL     1       3.217   7.190  18.026  0.00  0.00    +0.000 C 
ENDROOT
BRANCH   1   2
ATOM      2  N   UNL     1       2.218   7.865  18.856  0.00  0.00    +0.000 N 
ATOM      3  C   UNL     1       1.659   9.045  18.438  0.00  0.00    +0.000 C 
ATOM      4  O   UNL     1       1.962   9.604  17.384  0.00  0.00    +0.000 OA
ATOM      5  N   UNL     1       0.715   9.513  19.317  0.00  0.00    +0.000 N 
ATOM      6  H   UNL     1       1.621   7.282  19.430  0.00  0.00    +0.000 HD
ATOM      7  H   UNL     1       0.875   9.268  20.283  0.00  0.00    +0.000 HD
BRANCH   5   8
ATOM      8  C   UNL     1      -0.005  10.741  19.038  0.00  0.00    +0.000 C 
ATOM      9  C   UNL     1      -1.251  10.526  18.184  0.00  0.00    +0.000 C 
ATOM     10  C   UNL     1      -1.997  11.848  18.328  0.00  0.00    +0.000 C 
ATOM     11  C   UNL     1      -1.657  12.361  19.730  0.00  0.00    +0.000 C 
ATOM     12  C   UNL     1      -0.586  11.415  20.280  0.00  0.00    +0.000 C 
ENDBRANCH   5   8
ENDBRANCH   1   2
BRANCH   1  13
ATOM     13  C   UNL     1       3.485   5.691  18.387  0.00  0.00    +0.000 C 
ATOM     14  C   UNL     1       2.378   4.778  17.804  0.00  0.00    +0.000 C 
BRANCH  13  15
ATOM     15  C   UNL     1       4.843   5.238  17.799  0.00  0.00    +0.000 A 
ATOM     16  C   UNL     1       6.029   5.297  18.557  0.00  0.00    +0.000 A 
ATOM     17  C   UNL     1       7.261   4.927  18.006  0.00  0.00    +0.000 A 
ATOM     18  C   UNL     1       7.333   4.478  16.689  0.00  0.00    +0.000 A 
ATOM     19  C   UNL     1       6.171   4.390  15.933  0.00  0.00    +0.000 A 
ATOM     20 CL   UNL     1       6.252   3.831  14.307  0.00  0.00    +0.000 Cl
ATOM     21  C   UNL     1       4.940   4.761  16.477  0.00  0.00    +0.000 A 
ENDBRANCH  13  15
BRANCH  13  23
ATOM     22  C   UNL     1       2.793   4.465  20.412  0.00  0.00    +0.000 C 
ATOM     23  O   UNL     1       3.568   5.492  19.817  0.00  0.00    +0.000 OA
ENDBRANCH  13  23
ENDBRANCH   1  13
TORSDOF 5
ENDMDL
