MODEL 1
REMARK VINA RESULT:      -8.0      0.000      0.000
REMARK  Name = 
REMARK  7 active torsions:
REMARK  status: ('A' for Active; 'I' for Inactive)
REMARK    1  A    between atoms: S_2  and  O_5
REMARK    2  A    between atoms: O_5  and  C_6
REMARK    3  A    between atoms: C_6  and  C_7
REMARK    4  A    between atoms: C_9  and  N_10
REMARK    5  A    between atoms: N_15  and  C_16
REMARK    6  A    between atoms: C_27  and  O_28
REMARK    7  A    between atoms: C_29  and  O_30
REMARK                            x       y       z     vdW  Elec       q    Type
REMARK                         _______ _______ _______ _____ _____    ______ ____
ROOT
ATOM      1  N   UNL     1       2.217   7.563  18.882  0.00  0.00    +0.000 N 
ATOM      2  C   UNL     1       2.376   8.248  17.702  0.00  0.00    +0.000 A 
ATOM      3  N   UNL     1       1.985   9.503  17.804  0.00  0.00    +0.000 NA
ATOM      4  C   UNL     1       1.493   9.628  19.087  0.00  0.00    +0.000 A 
ATOM      5  C   UNL     1       0.991  10.727  19.829  0.00  0.00    +0.000 A 
ATOM      6  N   UNL     1       0.976  12.031  19.329  0.00  0.00    +0.000 N 
ATOM      7  N   UNL     1       0.533  10.479  21.084  0.00  0.00    +0.000 NA
ATOM      8  C   UNL     1       0.570   9.220  21.538  0.00  0.00    +0.000 A 
ATOM      9 CL   UNL     1      -0.024   8.987  23.125  0.00  0.00    +0.000 Cl
ATOM     10  N   UNL     1       1.113   8.132  20.980  0.00  0.00    +0.000 NA
ATOM     11  C   UNL     1       1.563   8.407  19.744  0.00  0.00    +0.000 A 
ATOM     12  H   UNL     1       0.435  12.080  18.468  0.00  0.00    +0.000 HD
ENDROOT
BRANCH   6  13
ATOM     13  C   UNL     1       0.803  13.131  20.278  0.00  0.00    +0.000 C 
ATOM     14  C   UNL     1       2.162  13.802  20.556  0.00  0.00    +0.000 C 
ATOM     15  C   UNL     1       2.726  14.544  19.342  0.00  0.00    +0.000 C 
ATOM     16  C   UNL     1       1.727  15.507  18.705  0.00  0.00    +0.000 C 
ATOM     17  C   UNL     1       0.345  14.897  18.493  0.00  0.00    +0.000 C 
ATOM     18  C   UNL     1      -0.173  14.183  19.736  0.00  0.00    +0.000 C 
ENDBRANCH   6  13
BRANCH   1  21
ATOM     19  C   UNL     1       4.622   4.964  19.192  0.00  0.00    +0.000 C 
ATOM     20  O   UNL     1       3.916   6.120  19.707  0.00  0.00    +0.000 OA
ATOM     21  C   UNL     1       2.587   6.178  19.134  0.00  0.00    +0.000 C 
ATOM     22  C   UNL     1       2.635   5.271  17.901  0.00  0.00    +0.000 C 
ATOM     23  C   UNL     1       3.627   4.201  18.329  0.00  0.00    +0.000 C 
BRANCH  22  24
ATOM     24  O   UNL     1       1.362   4.700  17.594  0.00  0.00    +0.000 OA
ATOM     25  H   UNL     1       0.881   5.380  17.070  0.00  0.00    +0.000 HD
ENDBRANCH  22  24
BRANCH  23  26
ATOM     26  O   UNL     1       2.894   3.222  19.093  0.00  0.00    +0.000 OA
ATOM     27  H   UNL     1       2.779   3.542  20.008  0.00  0.00    +0.000 HD
ENDBRANCH  23  26
BRANCH  19  28
ATOM     28  C   UNL     1       5.866   5.418  18.430  0.00  0.00    +0.000 C 
BRANCH  28  29
ATOM     29  O   UNL     1       5.765   4.879  17.119  0.00  0.00    +0.000 OA
BRANCH  29  31
ATOM     30  O   UNL     1       8.024   4.204  17.176  0.00  0.00    +0.000 OA
ATOM     31  S   UNL     1       7.111   4.815  16.212  0.00  0.00    +0.000 S 
ATOM     32  O   UNL     1       7.404   6.223  15.996  0.00  0.00    +0.000 OA
ATOM     33  O   UNL     1       6.736   4.019  15.062  0.00  0.00    +0.000 OA
ENDBRANCH  29  31
ENDBRANCH  28  29
ENDBRANCH  19  28
ENDBRANCH   1  21
TORSDOF 7
ENDMDL
MODEL 2
REMARK VINA RESULT:      -7.9      0.971      1.236
REMARK  Name = 
REMARK  7 active torsions:
REMARK  status: ('A' for Active; 'I' for Inactive)
REMARK    1  A    between atoms: S_2  and  O_5
REMARK    2  A    between atoms: O_5  and  C_6
REMARK    3  A    between atoms: C_6  and  C_7
REMARK    4  A    between atoms: C_9  and  N_10
REMARK    5  A    between atoms: N_15  and  C_16
REMARK    6  A    between atoms: C_27  and  O_28
REMARK    7  A    between atoms: C_29  and  O_30
REMARK                            x       y       z     vdW  Elec       q    Type
REMARK                         _______ _______ _______ _____ _____    ______ ____
ROOT
ATOM      1  N   UNL     1       2.265   7.251  19.536  0.00  0.00    +0.000 N 
ATOM      2  C   UNL     1       2.371   7.746  18.259  0.00  0.00    +0.000 A 
ATOM      3  N   UNL     1       1.919   8.982  18.171  0.00  0.00    +0.000 NA
ATOM      4  C   UNL     1       1.444   9.287  19.430  0.00  0.00    +0.000 A 
ATOM      5  C   UNL     1       0.901  10.466  19.999  0.00  0.00    +0.000 A 
ATOM      6  N   UNL     1       0.814  11.672  19.300  0.00  0.00    +0.000 N 
ATOM      7  N   UNL     1       0.477  10.401  21.289  0.00  0.00    +0.000 NA
ATOM      8  C   UNL     1       0.584   9.234  21.936  0.00  0.00    +0.000 A 
ATOM      9 CL   UNL     1       0.029   9.230  23.554  0.00  0.00    +0.000 Cl
ATOM     10  N   UNL     1       1.170   8.096  21.544  0.00  0.00    +0.000 NA
ATOM     11  C   UNL     1       1.585   8.191  20.270  0.00  0.00    +0.000 A 
ATOM     12  H   UNL     1       0.256  11.558  18.456  0.00  0.00    +0.000 HD
ENDROOT
BRANCH   6  13
ATOM     13  C   UNL     1       0.602  12.900  20.067  0.00  0.00    +0.000 C 
ATOM     14  C   UNL     1       1.940  13.382  20.662  0.00  0.00    +0.000 C 
ATOM     15  C   UNL     1       2.933  13.862  19.601  0.00  0.00    +0.000 C 
ATOM     16  C   UNL     1       2.335  14.877  18.630  0.00  0.00    +0.000 C 
ATOM     17  C   UNL     1       0.970  14.467  18.086  0.00  0.00    +0.000 C 
ATOM     18  C   UNL     1       0.018  14.012  19.185  0.00  0.00    +0.000 C 
ENDBRANCH   6  13
BRANCH   1  21
ATOM     19  C   UNL     1       4.258   4.324  19.226  0.00  0.00    +0.000 C 
ATOM     20  O   UNL     1       4.079   5.715  19.589  0.00  0.00    +0.000 OA
ATOM     21  C   UNL     1       2.708   5.943  19.996  0.00  0.00    +0.000 C 
ATOM     22  C   UNL     1       1.917   4.749  19.452  0.00  0.00    +0.000 C 
ATOM     23  C   UNL     1       2.940   3.626  19.531  0.00  0.00    +0.000 C 
BRANCH  22  24
ATOM     24  O   UNL     1       0.765   4.452  20.241  0.00  0.00    +0.000 OA
ATOM     25  H   UNL     1       0.782   3.480  20.390  0.00  0.00    +0.000 HD
ENDBRANCH  22  24
BRANCH  23  26
ATOM     26  O   UNL     1       2.904   3.111  20.877  0.00  0.00    +0.000 OA
ATOM     27  H   UNL     1       3.737   3.334  21.333  0.00  0.00    +0.000 HD
ENDBRANCH  23  26
BRANCH  19  28
ATOM     28  C   UNL     1       4.674   4.225  17.759  0.00  0.00    +0.000 C 
BRANCH  28  29
ATOM     29  O   UNL     1       5.562   5.306  17.509  0.00  0.00    +0.000 OA
BRANCH  29  31
ATOM     30  O   UNL     1       6.622   3.943  15.901  0.00  0.00    +0.000 OA
ATOM     31  S   UNL     1       7.016   4.969  16.866  0.00  0.00    +0.000 S 
ATOM     32  O   UNL     1       7.731   4.407  18.000  0.00  0.00    +0.000 OA
ATOM     33  O   UNL     1       7.478   6.233  16.334  0.00  0.00    +0.000 OA
ENDBRANCH  29  31
ENDBRANCH  28  29
ENDBRANCH  19  28
ENDBRANCH   1  21
TORSDOF 7
ENDMDL
MODEL 3
REMARK VINA RESULT:      -7.8      1.108      1.290
REMARK  Name = 
REMARK  7 active torsions:
REMARK  status: ('A' for Active; 'I' for Inactive)
REMARK    1  A    between atoms: S_2  and  O_5
REMARK    2  A    between atoms: O_5  and  C_6
REMARK    3  A    between atoms: C_6  and  C_7
REMARK    4  A    between atoms: C_9  and  N_10
REMARK    5  A    between atoms: N_15  and  C_16
REMARK    6  A    between atoms: C_27  and  O_28
REMARK    7  A    between atoms: C_29  and  O_30
REMARK                            x       y       z     vdW  Elec       q    Type
REMARK                         _______ _______ _______ _____ _____    ______ ____
ROOT
ATOM      1  N   UNL     1       2.569   7.341  18.993  0.00  0.00    +0.000 N 
ATOM      2  C   UNL     1       2.850   7.934  17.786  0.00  0.00    +0.000 A 
ATOM      3  N   UNL     1       2.301   9.128  17.684  0.00  0.00    +0.000 NA
ATOM      4  C   UNL     1       1.582   9.300  18.848  0.00  0.00    +0.000 A 
ATOM      5  C   UNL     1       0.833  10.384  19.372  0.00  0.00    +0.000 A 
ATOM      6  N   UNL     1       0.752  11.624  18.735  0.00  0.00    +0.000 N 
ATOM      7  N   UNL     1       0.196  10.190  20.557  0.00  0.00    +0.000 NA
ATOM      8  C   UNL     1       0.301   8.993  21.148  0.00  0.00    +0.000 A 
ATOM      9 CL   UNL     1      -0.529   8.825  22.634  0.00  0.00    +0.000 Cl
ATOM     10  N   UNL     1       1.057   7.942  20.809  0.00  0.00    +0.000 NA
ATOM     11  C   UNL     1       1.680   8.163  19.639  0.00  0.00    +0.000 A 
ATOM     12  H   UNL     1       0.368  11.523  17.798  0.00  0.00    +0.000 HD
ENDROOT
BRANCH   6  13
ATOM     13  C   UNL     1       0.288  12.771  19.516  0.00  0.00    +0.000 C 
ATOM     14  C   UNL     1       1.200  12.973  20.742  0.00  0.00    +0.000 C 
ATOM     15  C   UNL     1       2.617  13.420  20.372  0.00  0.00    +0.000 C 
ATOM     16  C   UNL     1       2.644  14.621  19.430  0.00  0.00    +0.000 C 
ATOM     17  C   UNL     1       1.688  14.487  18.247  0.00  0.00    +0.000 C 
ATOM     18  C   UNL     1       0.291  14.054  18.674  0.00  0.00    +0.000 C 
ENDBRANCH   6  13
BRANCH   1  21
ATOM     19  C   UNL     1       4.363   4.310  18.520  0.00  0.00    +0.000 C 
ATOM     20  O   UNL     1       4.305   5.729  18.806  0.00  0.00    +0.000 OA
ATOM     21  C   UNL     1       3.050   6.048  19.454  0.00  0.00    +0.000 C 
ATOM     22  C   UNL     1       2.129   4.858  19.165  0.00  0.00    +0.000 C 
ATOM     23  C   UNL     1       3.109   3.697  19.127  0.00  0.00    +0.000 C 
BRANCH  22  24
ATOM     24  O   UNL     1       1.145   4.670  20.183  0.00  0.00    +0.000 OA
ATOM     25  H   UNL     1       0.749   3.785  20.015  0.00  0.00    +0.000 HD
ENDBRANCH  22  24
BRANCH  23  26
ATOM     26  O   UNL     1       3.323   3.275  20.489  0.00  0.00    +0.000 OA
ATOM     27  H   UNL     1       2.565   2.737  20.786  0.00  0.00    +0.000 HD
ENDBRANCH  23  26
BRANCH  19  28
ATOM     28  C   UNL     1       4.478   4.094  17.012  0.00  0.00    +0.000 C 
BRANCH  28  29
ATOM     29  O   UNL     1       5.785   4.505  16.635  0.00  0.00    +0.000 OA
BRANCH  29  31
ATOM     30  O   UNL     1       7.428   5.375  15.184  0.00  0.00    +0.000 OA
ATOM     31  S   UNL     1       5.972   5.241  15.200  0.00  0.00    +0.000 S 
ATOM     32  O   UNL     1       5.307   6.516  15.418  0.00  0.00    +0.000 OA
ATOM     33  O   UNL     1       5.383   4.327  14.244  0.00  0.00    +0.000 OA
ENDBRANCH  29  31
ENDBRANCH  28  29
ENDBRANCH  19  28
ENDBRANCH   1  21
TORSDOF 7
ENDMDL
MODEL 4
REMARK VINA RESULT:      -7.8      0.596      1.006
REMARK  Name = 
REMARK  7 active torsions:
REMARK  status: ('A' for Active; 'I' for Inactive)
REMARK    1  A    between atoms: S_2  and  O_5
REMARK    2  A    between atoms: O_5  and  C_6
REMARK    3  A    between atoms: C_6  and  C_7
REMARK    4  A    between atoms: C_9  and  N_10
REMARK    5  A    between atoms: N_15  and  C_16
REMARK    6  A    between atoms: C_27  and  O_28
REMARK    7  A    between atoms: C_29  and  O_30
REMARK                            x       y       z     vdW  Elec       q    Type
REMARK                         _______ _______ _______ _____ _____    ______ ____
ROOT
ATOM      1  N   UNL     1       2.292   7.575  18.832  0.00  0.00    +0.000 N 
ATOM      2  C   UNL     1       2.477   8.279  17.667  0.00  0.00    +0.000 A 
ATOM      3  N   UNL     1       2.076   9.530  17.778  0.00  0.00    +0.000 NA
ATOM      4  C   UNL     1       1.553   9.634  19.051  0.00  0.00    +0.000 A 
ATOM      5  C   UNL     1       1.028  10.719  19.796  0.00  0.00    +0.000 A 
ATOM      6  N   UNL     1       1.019  12.031  19.315  0.00  0.00    +0.000 N 
ATOM      7  N   UNL     1       0.542  10.451  21.036  0.00  0.00    +0.000 NA
ATOM      8  C   UNL     1       0.575   9.185  21.472  0.00  0.00    +0.000 A 
ATOM      9 CL   UNL     1      -0.056   8.926  23.041  0.00  0.00    +0.000 Cl
ATOM     10  N   UNL     1       1.136   8.108  20.911  0.00  0.00    +0.000 NA
ATOM     11  C   UNL     1       1.614   8.403  19.691  0.00  0.00    +0.000 A 
ATOM     12  H   UNL     1       0.499  12.090  18.442  0.00  0.00    +0.000 HD
ENDROOT
BRANCH   6  13
ATOM     13  C   UNL     1       0.818  13.115  20.276  0.00  0.00    +0.000 C 
ATOM     14  C   UNL     1       2.104  13.956  20.394  0.00  0.00    +0.000 C 
ATOM     15  C   UNL     1       2.428  14.743  19.122  0.00  0.00    +0.000 C 
ATOM     16  C   UNL     1       1.250  15.563  18.603  0.00  0.00    +0.000 C 
ATOM     17  C   UNL     1      -0.059  14.780  18.552  0.00  0.00    +0.000 C 
ATOM     18  C   UNL     1      -0.339  14.029  19.848  0.00  0.00    +0.000 C 
ENDBRANCH   6  13
BRANCH   1  21
ATOM     19  C   UNL     1       4.680   4.947  18.985  0.00  0.00    +0.000 C 
ATOM     20  O   UNL     1       4.033   6.119  19.538  0.00  0.00    +0.000 OA
ATOM     21  C   UNL     1       2.664   6.188  19.073  0.00  0.00    +0.000 C 
ATOM     22  C   UNL     1       2.601   5.266  17.852  0.00  0.00    +0.000 C 
ATOM     23  C   UNL     1       3.610   4.187  18.215  0.00  0.00    +0.000 C 
BRANCH  22  24
ATOM     24  O   UNL     1       1.300   4.709  17.655  0.00  0.00    +0.000 OA
ATOM     25  H   UNL     1       0.683   5.474  17.612  0.00  0.00    +0.000 HD
ENDBRANCH  22  24
BRANCH  23  26
ATOM     26  O   UNL     1       2.927   3.228  19.048  0.00  0.00    +0.000 OA
ATOM     27  H   UNL     1       3.447   2.403  19.088  0.00  0.00    +0.000 HD
ENDBRANCH  23  26
BRANCH  19  28
ATOM     28  C   UNL     1       5.865   5.374  18.120  0.00  0.00    +0.000 C 
BRANCH  28  29
ATOM     29  O   UNL     1       5.777   4.636  16.908  0.00  0.00    +0.000 OA
BRANCH  29  31
ATOM     30  O   UNL     1       5.286   6.615  15.723  0.00  0.00    +0.000 OA
ATOM     31  S   UNL     1       6.090   5.411  15.516  0.00  0.00    +0.000 S 
ATOM     32  O   UNL     1       5.499   4.522  14.529  0.00  0.00    +0.000 OA
ATOM     33  O   UNL     1       7.528   5.572  15.506  0.00  0.00    +0.000 OA
ENDBRANCH  29  31
ENDBRANCH  28  29
ENDBRANCH  19  28
ENDBRANCH   1  21
TORSDOF 7
ENDMDL
MODEL 5
REMARK VINA RESULT:      -7.7      1.230      1.592
REMARK  Name = 
REMARK  7 active torsions:
REMARK  status: ('A' for Active; 'I' for Inactive)
REMARK    1  A    between atoms: S_2  and  O_5
REMARK    2  A    between atoms: O_5  and  C_6
REMARK    3  A    between atoms: C_6  and  C_7
REMARK    4  A    between atoms: C_9  and  N_10
REMARK    5  A    between atoms: N_15  and  C_16
REMARK    6  A    between atoms: C_27  and  O_28
REMARK    7  A    between atoms: C_29  and  O_30
REMARK                            x       y       z     vdW  Elec       q    Type
REMARK                         _______ _______ _______ _____ _____    ______ ____
ROOT
ATOM      1  N   UNL     1       2.173   7.240  18.841  0.00  0.00    +0.000 N 
ATOM      2  C   UNL     1       2.489   7.917  17.688  0.00  0.00    +0.000 A 
ATOM      3  N   UNL     1       2.252   9.210  17.795  0.00  0.00    +0.000 NA
ATOM      4  C   UNL     1       1.702   9.377  19.049  0.00  0.00    +0.000 A 
ATOM      5  C   UNL     1       1.297  10.519  19.784  0.00  0.00    +0.000 A 
ATOM      6  N   UNL     1       1.477  11.822  19.314  0.00  0.00    +0.000 N 
ATOM      7  N   UNL     1       0.736  10.313  21.004  0.00  0.00    +0.000 NA
ATOM      8  C   UNL     1       0.588   9.053  21.431  0.00  0.00    +0.000 A 
ATOM      9 CL   UNL     1      -0.127   8.873  22.975  0.00  0.00    +0.000 Cl
ATOM     10  N   UNL     1       1.023   7.913  20.882  0.00  0.00    +0.000 NA
ATOM     11  C   UNL     1       1.579   8.147  19.681  0.00  0.00    +0.000 A 
ATOM     12  H   UNL     1       1.000  11.952  18.424  0.00  0.00    +0.000 HD
ENDROOT
BRANCH   6  13
ATOM     13  C   UNL     1       1.385  12.921  20.276  0.00  0.00    +0.000 C 
ATOM     14  C   UNL     1       2.717  13.695  20.316  0.00  0.00    +0.000 C 
ATOM     15  C   UNL     1       3.011  14.457  19.022  0.00  0.00    +0.000 C 
ATOM     16  C   UNL     1       1.849  15.334  18.562  0.00  0.00    +0.000 C 
ATOM     17  C   UNL     1       0.501  14.620  18.589  0.00  0.00    +0.000 C 
ATOM     18  C   UNL     1       0.255  13.891  19.904  0.00  0.00    +0.000 C 
ENDBRANCH   6  13
BRANCH   1  21
ATOM     19  C   UNL     1       4.208   4.348  19.199  0.00  0.00    +0.000 C 
ATOM     20  O   UNL     1       3.637   5.579  19.706  0.00  0.00    +0.000 OA
ATOM     21  C   UNL     1       2.351   5.816  19.083  0.00  0.00    +0.000 C 
ATOM     22  C   UNL     1       2.331   4.925  17.837  0.00  0.00    +0.000 C 
ATOM     23  C   UNL     1       3.159   3.731  18.285  0.00  0.00    +0.000 C 
BRANCH  22  24
ATOM     24  O   UNL     1       1.009   4.529  17.471  0.00  0.00    +0.000 OA
ATOM     25  H   UNL     1       0.783   3.770  18.055  0.00  0.00    +0.000 HD
ENDBRANCH  22  24
BRANCH  23  26
ATOM     26  O   UNL     1       2.275   2.846  19.003  0.00  0.00    +0.000 OA
ATOM     27  H   UNL     1       1.551   2.561  18.415  0.00  0.00    +0.000 HD
ENDBRANCH  23  26
BRANCH  19  28
ATOM     28  C   UNL     1       5.530   4.646  18.493  0.00  0.00    +0.000 C 
BRANCH  28  29
ATOM     29  O   UNL     1       6.229   5.579  19.305  0.00  0.00    +0.000 OA
BRANCH  29  31
ATOM     30  O   UNL     1       8.131   6.857  18.744  0.00  0.00    +0.000 OA
ATOM     31  S   UNL     1       7.853   5.533  19.300  0.00  0.00    +0.000 S 
ATOM     32  O   UNL     1       8.128   4.470  18.347  0.00  0.00    +0.000 OA
ATOM     33  O   UNL     1       8.213   5.310  20.684  0.00  0.00    +0.000 OA
ENDBRANCH  29  31
ENDBRANCH  28  29
ENDBRANCH  19  28
ENDBRANCH   1  21
TORSDOF 7
ENDMDL
MODEL 6
REMARK VINA RESULT:      -7.7      5.151      8.498
REMARK  Name = 
REMARK  7 active torsions:
REMARK  status: ('A' for Active; 'I' for Inactive)
REMARK    1  A    between atoms: S_2  and  O_5
REMARK    2  A    between atoms: O_5  and  C_6
REMARK    3  A    between atoms: C_6  and  C_7
REMARK    4  A    between atoms: C_9  and  N_10
REMARK    5  A    between atoms: N_15  and  C_16
REMARK    6  A    between atoms: C_27  and  O_28
REMARK    7  A    between atoms: C_29  and  O_30
REMARK                            x       y       z     vdW  Elec       q    Type
REMARK                         _______ _______ _______ _____ _____    ______ ____
ROOT
ATOM      1  N   UNL     1       1.362   9.157  19.065  0.00  0.00    +0.000 N 
ATOM      2  C   UNL     1       1.988   9.717  17.978  0.00  0.00    +0.000 A 
ATOM      3  N   UNL     1       2.839   8.882  17.415  0.00  0.00    +0.000 NA
ATOM      4  C   UNL     1       2.813   7.749  18.202  0.00  0.00    +0.000 A 
ATOM      5  C   UNL     1       3.442   6.483  18.098  0.00  0.00    +0.000 A 
ATOM      6  N   UNL     1       4.237   6.123  17.008  0.00  0.00    +0.000 N 
ATOM      7  N   UNL     1       3.229   5.593  19.102  0.00  0.00    +0.000 NA
ATOM      8  C   UNL     1       2.453   5.965  20.128  0.00  0.00    +0.000 A 
ATOM      9 CL   UNL     1       2.232   4.791  21.353  0.00  0.00    +0.000 Cl
ATOM     10  N   UNL     1       1.727   7.078  20.284  0.00  0.00    +0.000 NA
ATOM     11  C   UNL     1       1.952   7.936  19.276  0.00  0.00    +0.000 A 
ATOM     12  H   UNL     1       5.018   6.767  16.904  0.00  0.00    +0.000 HD
ENDROOT
BRANCH   6  13
ATOM     13  C   UNL     1       4.524   4.703  16.804  0.00  0.00    +0.000 C 
ATOM     14  C   UNL     1       4.883   4.448  15.327  0.00  0.00    +0.000 C 
ATOM     15  C   UNL     1       6.213   5.082  14.912  0.00  0.00    +0.000 C 
ATOM     16  C   UNL     1       7.365   4.738  15.852  0.00  0.00    +0.000 C 
ATOM     17  C   UNL     1       7.014   4.901  17.328  0.00  0.00    +0.000 C 
ATOM     18  C   UNL     1       5.690   4.239  17.689  0.00  0.00    +0.000 C 
ENDBRANCH   6  13
BRANCH   1  21
ATOM     19  C   UNL     1      -1.559  11.142  19.470  0.00  0.00    +0.000 C 
ATOM     20  O   UNL     1      -0.896   9.899  19.134  0.00  0.00    +0.000 OA
ATOM     21  C   UNL     1       0.335   9.780  19.887  0.00  0.00    +0.000 C 
ATOM     22  C   UNL     1       0.651  11.197  20.378  0.00  0.00    +0.000 C 
ATOM     23  C   UNL     1      -0.738  11.781  20.581  0.00  0.00    +0.000 C 
BRANCH  22  24
ATOM     24  O   UNL     1       1.395  11.199  21.597  0.00  0.00    +0.000 OA
ATOM     25  H   UNL     1       2.102  10.525  21.483  0.00  0.00    +0.000 HD
ENDBRANCH  22  24
BRANCH  23  26
ATOM     26  O   UNL     1      -1.188  11.366  21.887  0.00  0.00    +0.000 OA
ATOM     27  H   UNL     1      -1.399  12.153  22.424  0.00  0.00    +0.000 HD
ENDBRANCH  23  26
BRANCH  19  28
ATOM     28  C   UNL     1      -1.678  12.016  18.222  0.00  0.00    +0.000 C 
BRANCH  28  29
ATOM     29  O   UNL     1      -1.754  11.135  17.109  0.00  0.00    +0.000 OA
BRANCH  29  31
ATOM     30  O   UNL     1      -3.367   9.417  16.999  0.00  0.00    +0.000 OA
ATOM     31  S   UNL     1      -3.222  10.787  16.508  0.00  0.00    +0.000 S 
ATOM     32  O   UNL     1      -2.987  10.832  15.074  0.00  0.00    +0.000 OA
ATOM     33  O   UNL     1      -4.095  11.789  17.082  0.00  0.00    +0.000 OA
ENDBRANCH  29  31
ENDBRANCH  28  29
ENDBRANCH  19  28
ENDBRANCH   1  21
TORSDOF 7
ENDMDL
MODEL 7
REMARK VINA RESULT:      -7.3      4.872      8.243
REMARK  Name = 
REMARK  7 active torsions:
REMARK  status: ('A' for Active; 'I' for Inactive)
REMARK    1  A    between atoms: S_2  and  O_5
REMARK    2  A    between atoms: O_5  and  C_6
REMARK    3  A    between atoms: C_6  and  C_7
REMARK    4  A    between atoms: C_9  and  N_10
REMARK    5  A    between atoms: N_15  and  C_16
REMARK    6  A    between atoms: C_27  and  O_28
REMARK    7  A    between atoms: C_29  and  O_30
REMARK                            x       y       z     vdW  Elec       q    Type
REMARK                         _______ _______ _______ _____ _____    ______ ____
ROOT
ATOM      1  N   UNL     1       1.382   9.005  19.215  0.00  0.00    +0.000 N 
ATOM      2  C   UNL     1       1.961   9.590  18.115  0.00  0.00    +0.000 A 
ATOM      3  N   UNL     1       2.796   8.773  17.504  0.00  0.00    +0.000 NA
ATOM      4  C   UNL     1       2.809   7.625  18.270  0.00  0.00    +0.000 A 
ATOM      5  C   UNL     1       3.444   6.367  18.117  0.00  0.00    +0.000 A 
ATOM      6  N   UNL     1       4.198   6.034  16.990  0.00  0.00    +0.000 N 
ATOM      7  N   UNL     1       3.276   5.456  19.111  0.00  0.00    +0.000 NA
ATOM      8  C   UNL     1       2.538   5.802  20.174  0.00  0.00    +0.000 A 
ATOM      9 CL   UNL     1       2.373   4.603  21.383  0.00  0.00    +0.000 Cl
ATOM     10  N   UNL     1       1.810   6.906  20.379  0.00  0.00    +0.000 NA
ATOM     11  C   UNL     1       1.989   7.785  19.379  0.00  0.00    +0.000 A 
ATOM     12  H   UNL     1       4.970   6.687  16.869  0.00  0.00    +0.000 HD
ENDROOT
BRANCH   6  13
ATOM     13  C   UNL     1       4.488   4.620  16.748  0.00  0.00    +0.000 C 
ATOM     14  C   UNL     1       4.796   4.397  15.254  0.00  0.00    +0.000 C 
ATOM     15  C   UNL     1       6.105   5.050  14.805  0.00  0.00    +0.000 C 
ATOM     16  C   UNL     1       7.293   4.697  15.697  0.00  0.00    +0.000 C 
ATOM     17  C   UNL     1       6.994   4.829  17.187  0.00  0.00    +0.000 C 
ATOM     18  C   UNL     1       5.688   4.149  17.581  0.00  0.00    +0.000 C 
ENDBRANCH   6  13
BRANCH   1  21
ATOM     19  C   UNL     1      -0.745  11.686  20.176  0.00  0.00    +0.000 C 
ATOM     20  O   UNL     1      -0.423  10.546  19.341  0.00  0.00    +0.000 OA
ATOM     21  C   UNL     1       0.383   9.603  20.088  0.00  0.00    +0.000 C 
ATOM     22  C   UNL     1       0.935  10.393  21.279  0.00  0.00    +0.000 C 
ATOM     23  C   UNL     1      -0.190  11.376  21.559  0.00  0.00    +0.000 C 
BRANCH  22  24
ATOM     24  O   UNL     1       1.189   9.563  22.414  0.00  0.00    +0.000 OA
ATOM     25  H   UNL     1       0.622   8.768  22.298  0.00  0.00    +0.000 HD
ENDBRANCH  22  24
BRANCH  23  26
ATOM     26  O   UNL     1      -1.156  10.695  22.384  0.00  0.00    +0.000 OA
ATOM     27  H   UNL     1      -1.202  11.127  23.258  0.00  0.00    +0.000 HD
ENDBRANCH  23  26
BRANCH  19  28
ATOM     28  C   UNL     1      -0.163  12.956  19.557  0.00  0.00    +0.000 C 
BRANCH  28  29
ATOM     29  O   UNL     1       0.684  13.540  20.537  0.00  0.00    +0.000 OA
BRANCH  29  31
ATOM     30  O   UNL     1       2.871  13.538  21.423  0.00  0.00    +0.000 OA
ATOM     31  S   UNL     1       2.233  13.824  20.138  0.00  0.00    +0.000 S 
ATOM     32  O   UNL     1       2.219  15.247  19.839  0.00  0.00    +0.000 OA
ATOM     33  O   UNL     1       2.501  12.908  19.050  0.00  0.00    +0.000 OA
ENDBRANCH  29  31
ENDBRANCH  28  29
ENDBRANCH  19  28
ENDBRANCH   1  21
TORSDOF 7
ENDMDL
MODEL 8
REMARK VINA RESULT:      -7.2      2.452      3.517
REMARK  Name = 
REMARK  7 active torsions:
REMARK  status: ('A' for Active; 'I' for Inactive)
REMARK    1  A    between atoms: S_2  and  O_5
REMARK    2  A    between atoms: O_5  and  C_6
REMARK    3  A    between atoms: C_6  and  C_7
REMARK    4  A    between atoms: C_9  and  N_10
REMARK    5  A    between atoms: N_15  and  C_16
REMARK    6  A    between atoms: C_27  and  O_28
REMARK    7  A    between atoms: C_29  and  O_30
REMARK                            x       y       z     vdW  Elec       q    Type
REMARK                         _______ _______ _______ _____ _____    ______ ____
ROOT
ATOM      1  N   UNL     1       2.447   4.957  19.841  0.00  0.00    +0.000 N 
ATOM      2  C   UNL     1       1.729   5.335  20.950  0.00  0.00    +0.000 A 
ATOM      3  N   UNL     1       1.403   6.612  20.914  0.00  0.00    +0.000 NA
ATOM      4  C   UNL     1       1.982   7.104  19.763  0.00  0.00    +0.000 A 
ATOM      5  C   UNL     1       1.950   8.371  19.128  0.00  0.00    +0.000 A 
ATOM      6  N   UNL     1       1.173   9.432  19.600  0.00  0.00    +0.000 N 
ATOM      7  N   UNL     1       2.694   8.527  18.002  0.00  0.00    +0.000 NA
ATOM      8  C   UNL     1       3.419   7.488  17.569  0.00  0.00    +0.000 A 
ATOM      9 CL   UNL     1       4.330   7.761  16.147  0.00  0.00    +0.000 Cl
ATOM     10  N   UNL     1       3.446   6.227  18.016  0.00  0.00    +0.000 NA
ATOM     11  C   UNL     1       2.698   6.100  19.124  0.00  0.00    +0.000 A 
ATOM     12  H   UNL     1       1.433   9.671  20.555  0.00  0.00    +0.000 HD
ENDROOT
BRANCH   6  13
ATOM     13  C   UNL     1       0.908  10.549  18.692  0.00  0.00    +0.000 C 
ATOM     14  C   UNL     1      -0.503  10.408  18.088  0.00  0.00    +0.000 C 
ATOM     15  C   UNL     1      -1.620  10.591  19.118  0.00  0.00    +0.000 C 
ATOM     16  C   UNL     1      -1.473  11.864  19.948  0.00  0.00    +0.000 C 
ATOM     17  C   UNL     1      -0.064  12.074  20.493  0.00  0.00    +0.000 C 
ATOM     18  C   UNL     1       1.007  11.894  19.423  0.00  0.00    +0.000 C 
ENDBRANCH   6  13
BRANCH   1  21
ATOM     19  C   UNL     1       4.557   2.703  18.081  0.00  0.00    +0.000 C 
ATOM     20  O   UNL     1       4.315   3.670  19.132  0.00  0.00    +0.000 OA
ATOM     21  C   UNL     1       2.926   3.617  19.537  0.00  0.00    +0.000 C 
ATOM     22  C   UNL     1       2.196   2.897  18.398  0.00  0.00    +0.000 C 
ATOM     23  C   UNL     1       3.258   1.929  17.900  0.00  0.00    +0.000 C 
BRANCH  22  24
ATOM     24  O   UNL     1       1.034   2.200  18.849  0.00  0.00    +0.000 OA
ATOM     25  H   UNL     1       0.444   2.883  19.239  0.00  0.00    +0.000 HD
ENDBRANCH  22  24
BRANCH  23  26
ATOM     26  O   UNL     1       3.205   0.765  18.749  0.00  0.00    +0.000 OA
ATOM     27  H   UNL     1       2.320   0.698  19.155  0.00  0.00    +0.000 HD
ENDBRANCH  23  26
BRANCH  19  28
ATOM     28  C   UNL     1       5.017   3.424  16.814  0.00  0.00    +0.000 C 
BRANCH  28  29
ATOM     29  O   UNL     1       5.837   4.507  17.232  0.00  0.00    +0.000 OA
BRANCH  29  31
ATOM     30  O   UNL     1       8.166   4.132  17.262  0.00  0.00    +0.000 OA
ATOM     31  S   UNL     1       7.197   4.803  16.396  0.00  0.00    +0.000 S 
ATOM     32  O   UNL     1       7.300   6.251  16.478  0.00  0.00    +0.000 OA
ATOM     33  O   UNL     1       6.958   4.215  15.095  0.00  0.00    +0.000 OA
ENDBRANCH  29  31
ENDBRANCH  28  29
ENDBRANCH  19  28
ENDBRANCH   1  21
TORSDOF 7
ENDMDL
MODEL 9
REMARK VINA RESULT:      -7.1      5.104      8.629
REMARK  Name = 
REMARK  7 active torsions:
REMARK  status: ('A' for Active; 'I' for Inactive)
REMARK    1  A    between atoms: S_2  and  O_5
REMARK    2  A    between atoms: O_5  and  C_6
REMARK    3  A    between atoms: C_6  and  C_7
REMARK    4  A    between atoms: C_9  and  N_10
REMARK    5  A    between atoms: N_15  and  C_16
REMARK    6  A    between atoms: C_27  and  O_28
REMARK    7  A    between atoms: C_29  and  O_30
REMARK                            x       y       z     vdW  Elec       q    Type
REMARK                         _______ _______ _______ _____ _____    ______ ____
ROOT
ATOM      1  N   UNL     1       1.392   9.072  19.065  0.00  0.00    +0.000 N 
ATOM      2  C   UNL     1       2.012   9.642  17.980  0.00  0.00    +0.000 A 
ATOM      3  N   UNL     1       2.867   8.816  17.411  0.00  0.00    +0.000 NA
ATOM      4  C   UNL     1       2.850   7.678  18.191  0.00  0.00    +0.000 A 
ATOM      5  C   UNL     1       3.488   6.417  18.078  0.00  0.00    +0.000 A 
ATOM      6  N   UNL     1       4.282   6.068  16.984  0.00  0.00    +0.000 N 
ATOM      7  N   UNL     1       3.282   5.520  19.078  0.00  0.00    +0.000 NA
ATOM      8  C   UNL     1       2.507   5.881  20.108  0.00  0.00    +0.000 A 
ATOM      9 CL   UNL     1       2.296   4.698  21.326  0.00  0.00    +0.000 Cl
ATOM     10  N   UNL     1       1.773   6.988  20.272  0.00  0.00    +0.000 NA
ATOM     11  C   UNL     1       1.991   7.854  19.268  0.00  0.00    +0.000 A 
ATOM     12  H   UNL     1       5.059   6.718  16.882  0.00  0.00    +0.000 HD
ENDROOT
BRANCH   6  13
ATOM     13  C   UNL     1       4.577   4.651  16.771  0.00  0.00    +0.000 C 
ATOM     14  C   UNL     1       4.848   4.391  15.276  0.00  0.00    +0.000 C 
ATOM     15  C   UNL     1       6.140   5.042  14.775  0.00  0.00    +0.000 C 
ATOM     16  C   UNL     1       7.353   4.722  15.645  0.00  0.00    +0.000 C 
ATOM     17  C   UNL     1       7.092   4.890  17.139  0.00  0.00    +0.000 C 
ATOM     18  C   UNL     1       5.802   4.211  17.584  0.00  0.00    +0.000 C 
ENDBRANCH   6  13
BRANCH   1  21
ATOM     19  C   UNL     1      -0.983  11.628  19.743  0.00  0.00    +0.000 C 
ATOM     20  O   UNL     1      -0.566  10.419  19.063  0.00  0.00    +0.000 OA
ATOM     21  C   UNL     1       0.364   9.684  19.894  0.00  0.00    +0.000 C 
ATOM     22  C   UNL     1       0.866  10.691  20.934  0.00  0.00    +0.000 C 
ATOM     23  C   UNL     1      -0.351  11.582  21.128  0.00  0.00    +0.000 C 
BRANCH  22  24
ATOM     24  O   UNL     1       1.247  10.066  22.159  0.00  0.00    +0.000 OA
ATOM     25  H   UNL     1       2.200  10.276  22.285  0.00  0.00    +0.000 HD
ENDBRANCH  22  24
BRANCH  23  26
ATOM     26  O   UNL     1      -1.208  10.930  22.087  0.00  0.00    +0.000 OA
ATOM     27  H   UNL     1      -1.731  10.238  21.640  0.00  0.00    +0.000 HD
ENDBRANCH  23  26
BRANCH  19  28
ATOM     28  C   UNL     1      -0.565  12.849  18.925  0.00  0.00    +0.000 C 
BRANCH  28  29
ATOM     29  O   UNL     1      -0.151  13.844  19.851  0.00  0.00    +0.000 OA
BRANCH  29  31
ATOM     30  O   UNL     1       1.681  14.508  18.520  0.00  0.00    +0.000 OA
ATOM     31  S   UNL     1       0.609  15.158  19.273  0.00  0.00    +0.000 S 
ATOM     32  O   UNL     1       1.099  15.790  20.488  0.00  0.00    +0.000 OA
ATOM     33  O   UNL     1      -0.404  15.856  18.510  0.00  0.00    +0.000 OA
ENDBRANCH  29  31
ENDBRANCH  28  29
ENDBRANCH  19  28
ENDBRANCH   1  21
TORSDOF 7
ENDMDL
