MODEL 1
REMARK VINA RESULT:      -9.2      0.000      0.000
REMARK  Name = 
REMARK  6 active torsions:
REMARK  status: ('A' for Active; 'I' for Inactive)
REMARK    1  A    between atoms: C_2  and  O_3
REMARK    2  A    between atoms: C_2  and  C_4
REMARK    3  A    between atoms: C_10  and  C_11
REMARK    4  A    between atoms: C_16  and  C_17
REMARK    5  A    between atoms: C_21  and  O_22
REMARK    6  A    between atoms: O_22  and  C_23
REMARK                            x       y       z     vdW  Elec       q    Type
REMARK                         _______ _______ _______ _____ _____    ______ ____
ROOT
ATOM      1  C   UNL     1       1.000   9.486  19.913  0.00  0.00    +0.000 A 
ATOM      2  C   UNL     1       1.586   9.394  18.651  0.00  0.00    +0.000 A 
ATOM      3  F   UNL     1       1.508  10.425  17.793  0.00  0.00    +0.000 F 
ATOM      4  C   UNL     1       2.259   8.244  18.237  0.00  0.00    +0.000 A 
ATOM      5  F   UNL     1       2.818   8.272  17.018  0.00  0.00    +0.000 F 
ATOM      6  C   UNL     1       2.363   7.104  19.049  0.00  0.00    +0.000 A 
ATOM      7  C   UNL     1       1.766   7.207  20.318  0.00  0.00    +0.000 A 
ATOM      8  F   UNL     1       1.788   6.166  21.165  0.00  0.00    +0.000 F 
ATOM      9  C   UNL     1       1.110   8.371  20.744  0.00  0.00    +0.000 A 
ATOM     10  F   UNL     1       0.579   8.383  21.976  0.00  0.00    +0.000 F 
ENDROOT
BRANCH   1  17
ATOM     11  C   UNL     1      -2.338  13.048  20.626  0.00  0.00    +0.000 A 
ATOM     12  C   UNL     1      -2.270  14.314  21.235  0.00  0.00    +0.000 A 
ATOM     13  C   UNL     1      -1.088  14.762  21.832  0.00  0.00    +0.000 A 
ATOM     14  C   UNL     1       0.066  13.974  21.844  0.00  0.00    +0.000 A 
ATOM     15  C   UNL     1      -0.027  12.727  21.224  0.00  0.00    +0.000 A 
ATOM     16  N   UNL     1       0.881  11.722  21.043  0.00  0.00    +0.000 N 
ATOM     17  C   UNL     1       0.289  10.696  20.334  0.00  0.00    +0.000 A 
ATOM     18  N   UNL     1      -0.977  10.993  20.096  0.00  0.00    +0.000 NA
ATOM     19  C   UNL     1      -1.184  12.250  20.628  0.00  0.00    +0.000 A 
ATOM     20  H   UNL     1       1.845  11.733  21.349  0.00  0.00    +0.000 HD
BRANCH  11  22
ATOM     21  O   UNL     1      -4.656  12.574  20.606  0.00  0.00    +0.000 OA
ATOM     22  C   UNL     1      -3.596  12.592  19.995  0.00  0.00    +0.000 C 
BRANCH  22  23
ATOM     23  O   UNL     1      -3.486  12.193  18.710  0.00  0.00    +0.000 OA
ATOM     24  H   UNL     1      -3.406  12.932  18.060  0.00  0.00    +0.000 HD
ENDBRANCH  22  23
ENDBRANCH  11  22
ENDBRANCH   1  17
BRANCH   6  25
ATOM     25  C   UNL     1       3.047   5.869  18.583  0.00  0.00    +0.000 A 
ATOM     26  C   UNL     1       2.370   4.875  17.854  0.00  0.00    +0.000 A 
ATOM     27  C   UNL     1       3.022   3.718  17.422  0.00  0.00    +0.000 A 
ATOM     28  C   UNL     1       4.372   3.533  17.704  0.00  0.00    +0.000 A 
ATOM     29  C   UNL     1       5.086   4.507  18.399  0.00  0.00    +0.000 A 
ATOM     30  C   UNL     1       4.416   5.646  18.853  0.00  0.00    +0.000 A 
BRANCH  29  31
ATOM     31  O   UNL     1       6.396   4.210  18.614  0.00  0.00    +0.000 OA
BRANCH  31  32
ATOM     32  C   UNL     1       7.411   4.876  17.875  0.00  0.00    +0.000 C 
ATOM     33  F   UNL     1       7.079   5.158  16.598  0.00  0.00    +0.000 F 
ATOM     34  F   UNL     1       7.741   6.025  18.503  0.00  0.00    +0.000 F 
ATOM     35  F   UNL     1       8.506   4.083  17.845  0.00  0.00    +0.000 F 
ENDBRANCH  31  32
ENDBRANCH  29  31
ENDBRANCH   6  25
TORSDOF 6
ENDMDL
MODEL 2
REMARK VINA RESULT:      -9.1      0.240      1.995
REMARK  Name = 
REMARK  6 active torsions:
REMARK  status: ('A' for Active; 'I' for Inactive)
REMARK    1  A    between atoms: C_2  and  O_3
REMARK    2  A    between atoms: C_2  and  C_4
REMARK    3  A    between atoms: C_10  and  C_11
REMARK    4  A    between atoms: C_16  and  C_17
REMARK    5  A    between atoms: C_21  and  O_22
REMARK    6  A    between atoms: O_22  and  C_23
REMARK                            x       y       z     vdW  Elec       q    Type
REMARK                         _______ _______ _______ _____ _____    ______ ____
ROOT
ATOM      1  C   UNL     1       0.925   9.525  19.955  0.00  0.00    +0.000 A 
ATOM      2  C   UNL     1       1.061   8.408  20.778  0.00  0.00    +0.000 A 
ATOM      3  F   UNL     1       0.552   8.418  22.021  0.00  0.00    +0.000 F 
ATOM      4  C   UNL     1       1.725   7.258  20.349  0.00  0.00    +0.000 A 
ATOM      5  F   UNL     1       1.769   6.226  21.206  0.00  0.00    +0.000 F 
ATOM      6  C   UNL     1       2.320   7.164  19.082  0.00  0.00    +0.000 A 
ATOM      7  C   UNL     1       2.180   8.298  18.262  0.00  0.00    +0.000 A 
ATOM      8  F   UNL     1       2.731   8.323  17.038  0.00  0.00    +0.000 F 
ATOM      9  C   UNL     1       1.492   9.445  18.682  0.00  0.00    +0.000 A 
ATOM     10  F   UNL     1       1.398  10.476  17.828  0.00  0.00    +0.000 F 
ENDROOT
BRANCH   1  17
ATOM     11  C   UNL     1      -2.362  13.104  20.801  0.00  0.00    +0.000 A 
ATOM     12  C   UNL     1      -2.274  14.350  21.447  0.00  0.00    +0.000 A 
ATOM     13  C   UNL     1      -1.083  14.766  22.049  0.00  0.00    +0.000 A 
ATOM     14  C   UNL     1       0.061  13.964  22.028  0.00  0.00    +0.000 A 
ATOM     15  C   UNL     1      -0.052  12.737  21.371  0.00  0.00    +0.000 A 
ATOM     16  N   UNL     1       0.843  11.727  21.153  0.00  0.00    +0.000 N 
ATOM     17  C   UNL     1       0.233  10.730  20.418  0.00  0.00    +0.000 A 
ATOM     18  N   UNL     1      -1.031  11.050  20.199  0.00  0.00    +0.000 NA
ATOM     19  C   UNL     1      -1.219  12.293  20.769  0.00  0.00    +0.000 A 
ATOM     20  H   UNL     1       1.809  11.716  21.452  0.00  0.00    +0.000 HD
BRANCH  11  22
ATOM     21  O   UNL     1      -4.686  12.658  20.784  0.00  0.00    +0.000 OA
ATOM     22  C   UNL     1      -3.630  12.683  20.166  0.00  0.00    +0.000 C 
BRANCH  22  23
ATOM     23  O   UNL     1      -3.535  12.324  18.868  0.00  0.00    +0.000 OA
ATOM     24  H   UNL     1      -4.316  11.823  18.527  0.00  0.00    +0.000 HD
ENDBRANCH  22  23
ENDBRANCH  11  22
ENDBRANCH   1  17
BRANCH   6  25
ATOM     25  C   UNL     1       3.061   5.950  18.651  0.00  0.00    +0.000 A 
ATOM     26  C   UNL     1       2.451   4.940  17.886  0.00  0.00    +0.000 A 
ATOM     27  C   UNL     1       3.157   3.802  17.488  0.00  0.00    +0.000 A 
ATOM     28  C   UNL     1       4.494   3.653  17.842  0.00  0.00    +0.000 A 
ATOM     29  C   UNL     1       5.143   4.643  18.576  0.00  0.00    +0.000 A 
ATOM     30  C   UNL     1       4.419   5.763  18.995  0.00  0.00    +0.000 A 
BRANCH  29  31
ATOM     31  O   UNL     1       6.447   4.381  18.861  0.00  0.00    +0.000 OA
BRANCH  31  32
ATOM     32  C   UNL     1       7.482   5.032  18.136  0.00  0.00    +0.000 C 
ATOM     33  F   UNL     1       8.209   5.907  18.863  0.00  0.00    +0.000 F 
ATOM     34  F   UNL     1       8.313   4.105  17.612  0.00  0.00    +0.000 F 
ATOM     35  F   UNL     1       6.920   5.719  17.115  0.00  0.00    +0.000 F 
ENDBRANCH  31  32
ENDBRANCH  29  31
ENDBRANCH   6  25
TORSDOF 6
ENDMDL
MODEL 3
REMARK VINA RESULT:      -9.1      1.850      2.949
REMARK  Name = 
REMARK  6 active torsions:
REMARK  status: ('A' for Active; 'I' for Inactive)
REMARK    1  A    between atoms: C_2  and  O_3
REMARK    2  A    between atoms: C_2  and  C_4
REMARK    3  A    between atoms: C_10  and  C_11
REMARK    4  A    between atoms: C_16  and  C_17
REMARK    5  A    between atoms: C_21  and  O_22
REMARK    6  A    between atoms: O_22  and  C_23
REMARK                            x       y       z     vdW  Elec       q    Type
REMARK                         _______ _______ _______ _____ _____    ______ ____
ROOT
ATOM      1  C   UNL     1       1.101   9.480  20.256  0.00  0.00    +0.000 A 
ATOM      2  C   UNL     1       1.255   8.318  21.011  0.00  0.00    +0.000 A 
ATOM      3  F   UNL     1       0.849   8.287  22.292  0.00  0.00    +0.000 F 
ATOM      4  C   UNL     1       1.831   7.166  20.476  0.00  0.00    +0.000 A 
ATOM      5  F   UNL     1       1.899   6.091  21.277  0.00  0.00    +0.000 F 
ATOM      6  C   UNL     1       2.316   7.112  19.160  0.00  0.00    +0.000 A 
ATOM      7  C   UNL     1       2.159   8.290  18.409  0.00  0.00    +0.000 A 
ATOM      8  F   UNL     1       2.608   8.354  17.145  0.00  0.00    +0.000 F 
ATOM      9  C   UNL     1       1.558   9.442  18.938  0.00  0.00    +0.000 A 
ATOM     10  F   UNL     1       1.440  10.517  18.144  0.00  0.00    +0.000 F 
ENDROOT
BRANCH   1  17
ATOM     11  C   UNL     1       0.251  14.027  21.971  0.00  0.00    +0.000 A 
ATOM     12  C   UNL     1      -0.833  14.603  22.656  0.00  0.00    +0.000 A 
ATOM     13  C   UNL     1      -1.983  13.859  22.938  0.00  0.00    +0.000 A 
ATOM     14  C   UNL     1      -2.096  12.520  22.555  0.00  0.00    +0.000 A 
ATOM     15  C   UNL     1      -1.000  11.971  21.886  0.00  0.00    +0.000 A 
ATOM     16  N   UNL     1      -0.763  10.722  21.383  0.00  0.00    +0.000 N 
ATOM     17  C   UNL     1       0.502  10.687  20.831  0.00  0.00    +0.000 A 
ATOM     18  N   UNL     1       1.061  11.881  20.924  0.00  0.00    +0.000 NA
ATOM     19  C   UNL     1       0.151  12.682  21.586  0.00  0.00    +0.000 A 
ATOM     20  H   UNL     1      -1.396   9.935  21.431  0.00  0.00    +0.000 HD
BRANCH  11  22
ATOM     21  O   UNL     1       1.407  15.882  21.066  0.00  0.00    +0.000 OA
ATOM     22  C   UNL     1       1.461  14.828  21.685  0.00  0.00    +0.000 C 
BRANCH  22  23
ATOM     23  O   UNL     1       2.619  14.310  22.145  0.00  0.00    +0.000 OA
ATOM     24  H   UNL     1       3.307  14.984  22.368  0.00  0.00    +0.000 HD
ENDBRANCH  22  23
ENDBRANCH  11  22
ENDBRANCH   1  17
BRANCH   6  25
ATOM     25  C   UNL     1       2.965   5.893  18.613  0.00  0.00    +0.000 A 
ATOM     26  C   UNL     1       2.255   4.955  17.843  0.00  0.00    +0.000 A 
ATOM     27  C   UNL     1       2.875   3.811  17.335  0.00  0.00    +0.000 A 
ATOM     28  C   UNL     1       4.226   3.584  17.581  0.00  0.00    +0.000 A 
ATOM     29  C   UNL     1       4.972   4.503  18.316  0.00  0.00    +0.000 A 
ATOM     30  C   UNL     1       4.334   5.627  18.845  0.00  0.00    +0.000 A 
BRANCH  29  31
ATOM     31  O   UNL     1       6.279   4.168  18.489  0.00  0.00    +0.000 OA
BRANCH  31  32
ATOM     32  C   UNL     1       7.299   4.898  17.821  0.00  0.00    +0.000 C 
ATOM     33  F   UNL     1       6.958   5.337  16.591  0.00  0.00    +0.000 F 
ATOM     34  F   UNL     1       7.660   5.958  18.577  0.00  0.00    +0.000 F 
ATOM     35  F   UNL     1       8.377   4.093  17.682  0.00  0.00    +0.000 F 
ENDBRANCH  31  32
ENDBRANCH  29  31
ENDBRANCH   6  25
TORSDOF 6
ENDMDL
MODEL 4
REMARK VINA RESULT:      -9.0      2.049      2.458
REMARK  Name = 
REMARK  6 active torsions:
REMARK  status: ('A' for Active; 'I' for Inactive)
REMARK    1  A    between atoms: C_2  and  O_3
REMARK    2  A    between atoms: C_2  and  C_4
REMARK    3  A    between atoms: C_10  and  C_11
REMARK    4  A    between atoms: C_16  and  C_17
REMARK    5  A    between atoms: C_21  and  O_22
REMARK    6  A    between atoms: O_22  and  C_23
REMARK                            x       y       z     vdW  Elec       q    Type
REMARK                         _______ _______ _______ _____ _____    ______ ____
ROOT
ATOM      1  C   UNL     1       1.101   9.485  20.273  0.00  0.00    +0.000 A 
ATOM      2  C   UNL     1       1.498   9.493  18.937  0.00  0.00    +0.000 A 
ATOM      3  F   UNL     1       1.332  10.596  18.189  0.00  0.00    +0.000 F 
ATOM      4  C   UNL     1       2.069   8.371  18.334  0.00  0.00    +0.000 A 
ATOM      5  F   UNL     1       2.449   8.495  17.053  0.00  0.00    +0.000 F 
ATOM      6  C   UNL     1       2.251   7.162  19.023  0.00  0.00    +0.000 A 
ATOM      7  C   UNL     1       1.844   7.164  20.369  0.00  0.00    +0.000 A 
ATOM      8  F   UNL     1       1.954   6.053  21.113  0.00  0.00    +0.000 F 
ATOM      9  C   UNL     1       1.293   8.299  20.982  0.00  0.00    +0.000 A 
ATOM     10  F   UNL     1       0.944   8.213  22.275  0.00  0.00    +0.000 F 
ENDROOT
BRANCH   1  17
ATOM     11  C   UNL     1       0.211  13.980  22.100  0.00  0.00    +0.000 A 
ATOM     12  C   UNL     1      -0.857  14.517  22.840  0.00  0.00    +0.000 A 
ATOM     13  C   UNL     1      -1.975  13.739  23.158  0.00  0.00    +0.000 A 
ATOM     14  C   UNL     1      -2.070  12.404  22.757  0.00  0.00    +0.000 A 
ATOM     15  C   UNL     1      -0.990  11.894  22.033  0.00  0.00    +0.000 A 
ATOM     16  N   UNL     1      -0.744  10.660  21.499  0.00  0.00    +0.000 N 
ATOM     17  C   UNL     1       0.497  10.666  20.893  0.00  0.00    +0.000 A 
ATOM     18  N   UNL     1       1.029  11.873  20.983  0.00  0.00    +0.000 NA
ATOM     19  C   UNL     1       0.129  12.640  21.696  0.00  0.00    +0.000 A 
ATOM     20  H   UNL     1      -1.354   9.856  21.561  0.00  0.00    +0.000 HD
BRANCH  11  22
ATOM     21  O   UNL     1       1.273  15.917  21.252  0.00  0.00    +0.000 OA
ATOM     22  C   UNL     1       1.386  14.818  21.776  0.00  0.00    +0.000 C 
BRANCH  22  23
ATOM     23  O   UNL     1       2.584  14.278  22.090  0.00  0.00    +0.000 OA
ATOM     24  H   UNL     1       3.302  14.941  22.238  0.00  0.00    +0.000 HD
ENDBRANCH  22  23
ENDBRANCH  11  22
ENDBRANCH   1  17
BRANCH   6  25
ATOM     25  C   UNL     1       2.821   5.960  18.360  0.00  0.00    +0.000 A 
ATOM     26  C   UNL     1       2.019   4.869  17.983  0.00  0.00    +0.000 A 
ATOM     27  C   UNL     1       2.566   3.743  17.362  0.00  0.00    +0.000 A 
ATOM     28  C   UNL     1       3.931   3.689  17.097  0.00  0.00    +0.000 A 
ATOM     29  C   UNL     1       4.756   4.761  17.429  0.00  0.00    +0.000 A 
ATOM     30  C   UNL     1       4.203   5.868  18.077  0.00  0.00    +0.000 A 
BRANCH  29  31
ATOM     31  O   UNL     1       6.070   4.588  17.121  0.00  0.00    +0.000 OA
BRANCH  31  32
ATOM     32  C   UNL     1       6.654   5.312  16.047  0.00  0.00    +0.000 C 
ATOM     33  F   UNL     1       5.765   5.840  15.179  0.00  0.00    +0.000 F 
ATOM     34  F   UNL     1       7.423   6.305  16.541  0.00  0.00    +0.000 F 
ATOM     35  F   UNL     1       7.451   4.470  15.349  0.00  0.00    +0.000 F 
ENDBRANCH  31  32
ENDBRANCH  29  31
ENDBRANCH   6  25
TORSDOF 6
ENDMDL
MODEL 5
REMARK VINA RESULT:      -8.9      1.648      2.232
REMARK  Name = 
REMARK  6 active torsions:
REMARK  status: ('A' for Active; 'I' for Inactive)
REMARK    1  A    between atoms: C_2  and  O_3
REMARK    2  A    between atoms: C_2  and  C_4
REMARK    3  A    between atoms: C_10  and  C_11
REMARK    4  A    between atoms: C_16  and  C_17
REMARK    5  A    between atoms: C_21  and  O_22
REMARK    6  A    between atoms: O_22  and  C_23
REMARK                            x       y       z     vdW  Elec       q    Type
REMARK                         _______ _______ _______ _____ _____    ______ ____
ROOT
ATOM      1  C   UNL     1       0.992   9.514  19.744  0.00  0.00    +0.000 A 
ATOM      2  C   UNL     1       1.629   9.373  18.512  0.00  0.00    +0.000 A 
ATOM      3  F   UNL     1       1.595  10.374  17.615  0.00  0.00    +0.000 F 
ATOM      4  C   UNL     1       2.311   8.205  18.167  0.00  0.00    +0.000 A 
ATOM      5  F   UNL     1       2.920   8.187  16.971  0.00  0.00    +0.000 F 
ATOM      6  C   UNL     1       2.373   7.094  19.021  0.00  0.00    +0.000 A 
ATOM      7  C   UNL     1       1.724   7.245  20.259  0.00  0.00    +0.000 A 
ATOM      8  F   UNL     1       1.703   6.235  21.143  0.00  0.00    +0.000 F 
ATOM      9  C   UNL     1       1.060   8.427  20.617  0.00  0.00    +0.000 A 
ATOM     10  F   UNL     1       0.478   8.486  21.825  0.00  0.00    +0.000 F 
ENDROOT
BRANCH   1  17
ATOM     11  C   UNL     1      -0.307  13.949  21.468  0.00  0.00    +0.000 A 
ATOM     12  C   UNL     1      -1.537  14.628  21.528  0.00  0.00    +0.000 A 
ATOM     13  C   UNL     1      -2.698  14.063  20.994  0.00  0.00    +0.000 A 
ATOM     14  C   UNL     1      -2.682  12.805  20.384  0.00  0.00    +0.000 A 
ATOM     15  C   UNL     1      -1.450  12.149  20.348  0.00  0.00    +0.000 A 
ATOM     16  N   UNL     1      -1.072  10.933  19.850  0.00  0.00    +0.000 N 
ATOM     17  C   UNL     1       0.274  10.741  20.092  0.00  0.00    +0.000 A 
ATOM     18  N   UNL     1       0.775  11.811  20.686  0.00  0.00    +0.000 NA
ATOM     19  C   UNL     1      -0.279  12.684  20.863  0.00  0.00    +0.000 A 
ATOM     20  H   UNL     1      -1.681  10.262  19.403  0.00  0.00    +0.000 HD
BRANCH  11  22
ATOM     21  O   UNL     1       0.855  15.406  22.926  0.00  0.00    +0.000 OA
ATOM     22  C   UNL     1       0.910  14.562  22.043  0.00  0.00    +0.000 C 
BRANCH  22  23
ATOM     23  O   UNL     1       2.077  14.130  21.517  0.00  0.00    +0.000 OA
ATOM     24  H   UNL     1       2.004  13.294  20.996  0.00  0.00    +0.000 HD
ENDBRANCH  22  23
ENDBRANCH  11  22
ENDBRANCH   1  17
BRANCH   6  25
ATOM     25  C   UNL     1       3.065   5.840  18.627  0.00  0.00    +0.000 A 
ATOM     26  C   UNL     1       2.398   4.802  17.952  0.00  0.00    +0.000 A 
ATOM     27  C   UNL     1       3.058   3.627  17.588  0.00  0.00    +0.000 A 
ATOM     28  C   UNL     1       4.408   3.466  17.885  0.00  0.00    +0.000 A 
ATOM     29  C   UNL     1       5.113   4.482  18.527  0.00  0.00    +0.000 A 
ATOM     30  C   UNL     1       4.435   5.640  18.914  0.00  0.00    +0.000 A 
BRANCH  29  31
ATOM     31  O   UNL     1       6.424   4.205  18.763  0.00  0.00    +0.000 OA
BRANCH  31  32
ATOM     32  C   UNL     1       7.437   4.815  17.974  0.00  0.00    +0.000 C 
ATOM     33  F   UNL     1       8.552   4.070  17.823  0.00  0.00    +0.000 F 
ATOM     34  F   UNL     1       6.939   5.106  16.753  0.00  0.00    +0.000 F 
ATOM     35  F   UNL     1       7.800   5.974  18.569  0.00  0.00    +0.000 F 
ENDBRANCH  31  32
ENDBRANCH  29  31
ENDBRANCH   6  25
TORSDOF 6
ENDMDL
MODEL 6
REMARK VINA RESULT:      -8.9      1.924      2.330
REMARK  Name = 
REMARK  6 active torsions:
REMARK  status: ('A' for Active; 'I' for Inactive)
REMARK    1  A    between atoms: C_2  and  O_3
REMARK    2  A    between atoms: C_2  and  C_4
REMARK    3  A    between atoms: C_10  and  C_11
REMARK    4  A    between atoms: C_16  and  C_17
REMARK    5  A    between atoms: C_21  and  O_22
REMARK    6  A    between atoms: O_22  and  C_23
REMARK                            x       y       z     vdW  Elec       q    Type
REMARK                         _______ _______ _______ _____ _____    ______ ____
ROOT
ATOM      1  C   UNL     1       1.065   9.512  20.299  0.00  0.00    +0.000 A 
ATOM      2  C   UNL     1       1.437   9.557  18.956  0.00  0.00    +0.000 A 
ATOM      3  F   UNL     1       1.217  10.667  18.231  0.00  0.00    +0.000 F 
ATOM      4  C   UNL     1       2.038   8.468  18.324  0.00  0.00    +0.000 A 
ATOM      5  F   UNL     1       2.390   8.629  17.039  0.00  0.00    +0.000 F 
ATOM      6  C   UNL     1       2.277   7.255  18.987  0.00  0.00    +0.000 A 
ATOM      7  C   UNL     1       1.894   7.219  20.340  0.00  0.00    +0.000 A 
ATOM      8  F   UNL     1       2.058   6.099  21.062  0.00  0.00    +0.000 F 
ATOM      9  C   UNL     1       1.313   8.321  20.983  0.00  0.00    +0.000 A 
ATOM     10  F   UNL     1       0.990   8.199  22.280  0.00  0.00    +0.000 F 
ENDROOT
BRANCH   1  17
ATOM     11  C   UNL     1       0.038  13.941  22.211  0.00  0.00    +0.000 A 
ATOM     12  C   UNL     1      -1.033  14.424  22.985  0.00  0.00    +0.000 A 
ATOM     13  C   UNL     1      -2.109  13.596  23.319  0.00  0.00    +0.000 A 
ATOM     14  C   UNL     1      -2.160  12.263  22.902  0.00  0.00    +0.000 A 
ATOM     15  C   UNL     1      -1.079  11.808  22.144  0.00  0.00    +0.000 A 
ATOM     16  N   UNL     1      -0.795  10.593  21.586  0.00  0.00    +0.000 N 
ATOM     17  C   UNL     1       0.428  10.659  20.951  0.00  0.00    +0.000 A 
ATOM     18  N   UNL     1       0.913  11.885  21.045  0.00  0.00    +0.000 NA
ATOM     19  C   UNL     1       0.000  12.604  21.790  0.00  0.00    +0.000 A 
ATOM     20  H   UNL     1      -1.370   9.763  21.652  0.00  0.00    +0.000 HD
BRANCH  11  22
ATOM     21  O   UNL     1       1.755  15.487  22.720  0.00  0.00    +0.000 OA
ATOM     22  C   UNL     1       1.169  14.831  21.870  0.00  0.00    +0.000 C 
BRANCH  22  23
ATOM     23  O   UNL     1       1.498  14.871  20.562  0.00  0.00    +0.000 OA
ATOM     24  H   UNL     1       1.207  14.081  20.044  0.00  0.00    +0.000 HD
ENDBRANCH  22  23
ENDBRANCH  11  22
ENDBRANCH   1  17
BRANCH   6  25
ATOM     25  C   UNL     1       2.879   6.087  18.293  0.00  0.00    +0.000 A 
ATOM     26  C   UNL     1       2.129   4.940  17.981  0.00  0.00    +0.000 A 
ATOM     27  C   UNL     1       2.705   3.847  17.330  0.00  0.00    +0.000 A 
ATOM     28  C   UNL     1       4.049   3.882  16.968  0.00  0.00    +0.000 A 
ATOM     29  C   UNL     1       4.820   5.011  17.234  0.00  0.00    +0.000 A 
ATOM     30  C   UNL     1       4.241   6.085  17.913  0.00  0.00    +0.000 A 
BRANCH  29  31
ATOM     31  O   UNL     1       6.118   4.923  16.834  0.00  0.00    +0.000 OA
BRANCH  31  32
ATOM     32  C   UNL     1       7.169   5.098  17.773  0.00  0.00    +0.000 C 
ATOM     33  F   UNL     1       7.718   6.331  17.774  0.00  0.00    +0.000 F 
ATOM     34  F   UNL     1       6.712   4.824  19.014  0.00  0.00    +0.000 F 
ATOM     35  F   UNL     1       8.152   4.216  17.482  0.00  0.00    +0.000 F 
ENDBRANCH  31  32
ENDBRANCH  29  31
ENDBRANCH   6  25
TORSDOF 6
ENDMDL
MODEL 7
REMARK VINA RESULT:      -8.8      2.729      3.804
REMARK  Name = 
REMARK  6 active torsions:
REMARK  status: ('A' for Active; 'I' for Inactive)
REMARK    1  A    between atoms: C_2  and  O_3
REMARK    2  A    between atoms: C_2  and  C_4
REMARK    3  A    between atoms: C_10  and  C_11
REMARK    4  A    between atoms: C_16  and  C_17
REMARK    5  A    between atoms: C_21  and  O_22
REMARK    6  A    between atoms: O_22  and  C_23
REMARK                            x       y       z     vdW  Elec       q    Type
REMARK                         _______ _______ _______ _____ _____    ______ ____
ROOT
ATOM      1  C   UNL     1       0.845   9.871  20.369  0.00  0.00    +0.000 A 
ATOM      2  C   UNL     1       1.173   8.682  21.018  0.00  0.00    +0.000 A 
ATOM      3  F   UNL     1       0.902   8.528  22.325  0.00  0.00    +0.000 F 
ATOM      4  C   UNL     1       1.790   7.626  20.346  0.00  0.00    +0.000 A 
ATOM      5  F   UNL     1       2.031   6.512  21.055  0.00  0.00    +0.000 F 
ATOM      6  C   UNL     1       2.144   7.704  18.991  0.00  0.00    +0.000 A 
ATOM      7  C   UNL     1       1.811   8.910  18.347  0.00  0.00    +0.000 A 
ATOM      8  F   UNL     1       2.125   9.098  17.055  0.00  0.00    +0.000 F 
ATOM      9  C   UNL     1       1.169   9.962  19.015  0.00  0.00    +0.000 A 
ATOM     10  F   UNL     1       0.880  11.072  18.317  0.00  0.00    +0.000 F 
ENDROOT
BRANCH   1  17
ATOM     11  C   UNL     1      -0.227  14.202  22.473  0.00  0.00    +0.000 A 
ATOM     12  C   UNL     1      -1.277  14.626  23.307  0.00  0.00    +0.000 A 
ATOM     13  C   UNL     1      -2.314  13.756  23.658  0.00  0.00    +0.000 A 
ATOM     14  C   UNL     1      -2.344  12.436  23.197  0.00  0.00    +0.000 A 
ATOM     15  C   UNL     1      -1.284  12.040  22.379  0.00  0.00    +0.000 A 
ATOM     16  N   UNL     1      -0.989  10.853  21.769  0.00  0.00    +0.000 N 
ATOM     17  C   UNL     1       0.204  10.976  21.086  0.00  0.00    +0.000 A 
ATOM     18  N   UNL     1       0.656  12.213  21.201  0.00  0.00    +0.000 NA
ATOM     19  C   UNL     1      -0.244  12.879  22.009  0.00  0.00    +0.000 A 
ATOM     20  H   UNL     1      -1.536  10.004  21.830  0.00  0.00    +0.000 HD
BRANCH  11  22
ATOM     21  O   UNL     1       0.637  16.251  21.665  0.00  0.00    +0.000 OA
ATOM     22  C   UNL     1       0.862  15.136  22.116  0.00  0.00    +0.000 C 
BRANCH  22  23
ATOM     23  O   UNL     1       2.113  14.668  22.315  0.00  0.00    +0.000 OA
ATOM     24  H   UNL     1       2.657  14.599  21.493  0.00  0.00    +0.000 HD
ENDBRANCH  22  23
ENDBRANCH  11  22
ENDBRANCH   1  17
BRANCH   6  25
ATOM     25  C   UNL     1       2.838   6.589  18.296  0.00  0.00    +0.000 A 
ATOM     26  C   UNL     1       4.052   6.781  17.612  0.00  0.00    +0.000 A 
ATOM     27  C   UNL     1       4.696   5.727  16.961  0.00  0.00    +0.000 A 
ATOM     28  C   UNL     1       4.140   4.451  16.986  0.00  0.00    +0.000 A 
ATOM     29  C   UNL     1       2.953   4.213  17.675  0.00  0.00    +0.000 A 
ATOM     30  C   UNL     1       2.303   5.281  18.297  0.00  0.00    +0.000 A 
BRANCH  29  31
ATOM     31  O   UNL     1       2.512   2.927  17.624  0.00  0.00    +0.000 OA
BRANCH  31  32
ATOM     32  C   UNL     1       2.853   2.012  18.656  0.00  0.00    +0.000 C 
ATOM     33  F   UNL     1       3.619   0.976  18.254  0.00  0.00    +0.000 F 
ATOM     34  F   UNL     1       3.496   2.670  19.644  0.00  0.00    +0.000 F 
ATOM     35  F   UNL     1       1.710   1.499  19.166  0.00  0.00    +0.000 F 
ENDBRANCH  31  32
ENDBRANCH  29  31
ENDBRANCH   6  25
TORSDOF 6
ENDMDL
MODEL 8
REMARK VINA RESULT:      -8.7      1.262      2.324
REMARK  Name = 
REMARK  6 active torsions:
REMARK  status: ('A' for Active; 'I' for Inactive)
REMARK    1  A    between atoms: C_2  and  O_3
REMARK    2  A    between atoms: C_2  and  C_4
REMARK    3  A    between atoms: C_10  and  C_11
REMARK    4  A    between atoms: C_16  and  C_17
REMARK    5  A    between atoms: C_21  and  O_22
REMARK    6  A    between atoms: O_22  and  C_23
REMARK                            x       y       z     vdW  Elec       q    Type
REMARK                         _______ _______ _______ _____ _____    ______ ____
ROOT
ATOM      1  C   UNL     1       1.022   9.696  20.218  0.00  0.00    +0.000 A 
ATOM      2  C   UNL     1       1.185   8.512  20.936  0.00  0.00    +0.000 A 
ATOM      3  F   UNL     1       0.834   8.453  22.231  0.00  0.00    +0.000 F 
ATOM      4  C   UNL     1       1.716   7.364  20.346  0.00  0.00    +0.000 A 
ATOM      5  F   UNL     1       1.798   6.268  21.116  0.00  0.00    +0.000 F 
ATOM      6  C   UNL     1       2.144   7.337  19.010  0.00  0.00    +0.000 A 
ATOM      7  C   UNL     1       1.977   8.538  18.297  0.00  0.00    +0.000 A 
ATOM      8  F   UNL     1       2.374   8.627  17.017  0.00  0.00    +0.000 F 
ATOM      9  C   UNL     1       1.421   9.685  18.881  0.00  0.00    +0.000 A 
ATOM     10  F   UNL     1       1.291  10.783  18.120  0.00  0.00    +0.000 F 
ENDROOT
BRANCH   1  17
ATOM     11  C   UNL     1      -1.885  13.008  22.436  0.00  0.00    +0.000 A 
ATOM     12  C   UNL     1      -1.729  14.375  22.725  0.00  0.00    +0.000 A 
ATOM     13  C   UNL     1      -0.544  15.047  22.408  0.00  0.00    +0.000 A 
ATOM     14  C   UNL     1       0.523  14.389  21.792  0.00  0.00    +0.000 A 
ATOM     15  C   UNL     1       0.337  13.034  21.508  0.00  0.00    +0.000 A 
ATOM     16  N   UNL     1       1.143  12.101  20.918  0.00  0.00    +0.000 N 
ATOM     17  C   UNL     1       0.470  10.898  20.849  0.00  0.00    +0.000 A 
ATOM     18  N   UNL     1      -0.719  11.020  21.414  0.00  0.00    +0.000 NA
ATOM     19  C   UNL     1      -0.821  12.338  21.814  0.00  0.00    +0.000 A 
ATOM     20  H   UNL     1       2.074  12.265  20.559  0.00  0.00    +0.000 HD
BRANCH  11  22
ATOM     21  O   UNL     1      -3.307  11.753  23.850  0.00  0.00    +0.000 OA
ATOM     22  C   UNL     1      -3.147  12.315  22.775  0.00  0.00    +0.000 C 
BRANCH  22  23
ATOM     23  O   UNL     1      -4.096  12.341  21.816  0.00  0.00    +0.000 OA
ATOM     24  H   UNL     1      -4.364  13.249  21.533  0.00  0.00    +0.000 HD
ENDBRANCH  22  23
ENDBRANCH  11  22
ENDBRANCH   1  17
BRANCH   6  25
ATOM     25  C   UNL     1       2.746   6.121  18.404  0.00  0.00    +0.000 A 
ATOM     26  C   UNL     1       1.965   5.015  18.026  0.00  0.00    +0.000 A 
ATOM     27  C   UNL     1       2.542   3.877  17.458  0.00  0.00    +0.000 A 
ATOM     28  C   UNL     1       3.918   3.823  17.250  0.00  0.00    +0.000 A 
ATOM     29  C   UNL     1       4.723   4.909  17.586  0.00  0.00    +0.000 A 
ATOM     30  C   UNL     1       4.139   6.030  18.181  0.00  0.00    +0.000 A 
BRANCH  29  31
ATOM     31  O   UNL     1       6.049   4.735  17.336  0.00  0.00    +0.000 OA
BRANCH  31  32
ATOM     32  C   UNL     1       6.659   5.381  16.227  0.00  0.00    +0.000 C 
ATOM     33  F   UNL     1       5.789   5.879  15.323  0.00  0.00    +0.000 F 
ATOM     34  F   UNL     1       7.448   6.383  16.671  0.00  0.00    +0.000 F 
ATOM     35  F   UNL     1       7.440   4.482  15.587  0.00  0.00    +0.000 F 
ENDBRANCH  31  32
ENDBRANCH  29  31
ENDBRANCH   6  25
TORSDOF 6
ENDMDL
MODEL 9
REMARK VINA RESULT:      -8.7      2.744      3.334
REMARK  Name = 
REMARK  6 active torsions:
REMARK  status: ('A' for Active; 'I' for Inactive)
REMARK    1  A    between atoms: C_2  and  O_3
REMARK    2  A    between atoms: C_2  and  C_4
REMARK    3  A    between atoms: C_10  and  C_11
REMARK    4  A    between atoms: C_16  and  C_17
REMARK    5  A    between atoms: C_21  and  O_22
REMARK    6  A    between atoms: O_22  and  C_23
REMARK                            x       y       z     vdW  Elec       q    Type
REMARK                         _______ _______ _______ _____ _____    ______ ____
ROOT
ATOM      1  C   UNL     1       0.867   9.828  20.440  0.00  0.00    +0.000 A 
ATOM      2  C   UNL     1       1.184   9.914  19.085  0.00  0.00    +0.000 A 
ATOM      3  F   UNL     1       0.864  11.016  18.385  0.00  0.00    +0.000 F 
ATOM      4  C   UNL     1       1.830   8.875  18.415  0.00  0.00    +0.000 A 
ATOM      5  F   UNL     1       2.121   9.074  17.120  0.00  0.00    +0.000 F 
ATOM      6  C   UNL     1       2.172   7.672  19.051  0.00  0.00    +0.000 A 
ATOM      7  C   UNL     1       1.845   7.594  20.416  0.00  0.00    +0.000 A 
ATOM      8  F   UNL     1       2.109   6.479  21.115  0.00  0.00    +0.000 F 
ATOM      9  C   UNL     1       1.218   8.648  21.097  0.00  0.00    +0.000 A 
ATOM     10  F   UNL     1       0.953   8.489  22.403  0.00  0.00    +0.000 F 
ENDROOT
BRANCH   1  17
ATOM     11  C   UNL     1      -0.352  14.142  22.498  0.00  0.00    +0.000 A 
ATOM     12  C   UNL     1      -1.438  14.549  23.294  0.00  0.00    +0.000 A 
ATOM     13  C   UNL     1      -2.471  13.661  23.609  0.00  0.00    +0.000 A 
ATOM     14  C   UNL     1      -2.462  12.341  23.150  0.00  0.00    +0.000 A 
ATOM     15  C   UNL     1      -1.367  11.962  22.371  0.00  0.00    +0.000 A 
ATOM     16  N   UNL     1      -1.032  10.779  21.774  0.00  0.00    +0.000 N 
ATOM     17  C   UNL     1       0.182  10.923  21.132  0.00  0.00    +0.000 A 
ATOM     18  N   UNL     1       0.609  12.167  21.261  0.00  0.00    +0.000 NA
ATOM     19  C   UNL     1      -0.330  12.818  22.035  0.00  0.00    +0.000 A 
ATOM     20  H   UNL     1      -1.566   9.922  21.817  0.00  0.00    +0.000 HD
BRANCH  11  22
ATOM     21  O   UNL     1       0.504  16.257  21.871  0.00  0.00    +0.000 OA
ATOM     22  C   UNL     1       0.733  15.095  22.177  0.00  0.00    +0.000 C 
BRANCH  22  23
ATOM     23  O   UNL     1       1.983  14.587  22.237  0.00  0.00    +0.000 OA
ATOM     24  H   UNL     1       2.399  14.426  21.356  0.00  0.00    +0.000 HD
ENDBRANCH  22  23
ENDBRANCH  11  22
ENDBRANCH   1  17
BRANCH   6  25
ATOM     25  C   UNL     1       2.822   6.555  18.317  0.00  0.00    +0.000 A 
ATOM     26  C   UNL     1       4.005   6.739  17.580  0.00  0.00    +0.000 A 
ATOM     27  C   UNL     1       4.607   5.682  16.893  0.00  0.00    +0.000 A 
ATOM     28  C   UNL     1       4.040   4.412  16.935  0.00  0.00    +0.000 A 
ATOM     29  C   UNL     1       2.884   4.181  17.677  0.00  0.00    +0.000 A 
ATOM     30  C   UNL     1       2.274   5.252  18.335  0.00  0.00    +0.000 A 
BRANCH  29  31
ATOM     31  O   UNL     1       2.427   2.900  17.639  0.00  0.00    +0.000 OA
BRANCH  31  32
ATOM     32  C   UNL     1       2.794   1.979  18.657  0.00  0.00    +0.000 C 
ATOM     33  F   UNL     1       3.583   0.968  18.239  0.00  0.00    +0.000 F 
ATOM     34  F   UNL     1       3.423   2.639  19.653  0.00  0.00    +0.000 F 
ATOM     35  F   UNL     1       1.665   1.432  19.163  0.00  0.00    +0.000 F 
ENDBRANCH  31  32
ENDBRANCH  29  31
ENDBRANCH   6  25
TORSDOF 6
ENDMDL
