MODEL 1
REMARK VINA RESULT:      -8.2      0.000      0.000
REMARK  Name = 
REMARK  2 active torsions:
REMARK  status: ('A' for Active; 'I' for Inactive)
REMARK    1  A    between atoms: N_5  and  C_6
REMARK    2  A    between atoms: C_17  and  O_18
REMARK                            x       y       z     vdW  Elec       q    Type
REMARK                         _______ _______ _______ _____ _____    ______ ____
ROOT
ATOM      1  O   UNL     1      -0.051  10.346  23.287  0.00  0.00    +0.000 OA
ATOM      2  C   UNL     1       0.277   9.955  22.173  0.00  0.00    +0.000 A 
ATOM      3  N   UNL     1       1.104   8.871  22.000  0.00  0.00    +0.000 N 
ATOM      4  C   UNL     1       1.417   8.326  20.776  0.00  0.00    +0.000 A 
ATOM      5  N   UNL     1       2.194   7.195  20.809  0.00  0.00    +0.000 N 
ATOM      6  N   UNL     1       0.994   8.878  19.682  0.00  0.00    +0.000 NA
ATOM      7  C   UNL     1       0.193  10.021  19.736  0.00  0.00    +0.000 A 
ATOM      8  C   UNL     1      -0.238  10.589  18.536  0.00  0.00    +0.000 A 
ATOM      9  C   UNL     1      -1.043  11.726  18.558  0.00  0.00    +0.000 A 
ATOM     10  C   UNL     1      -1.429  12.304  19.765  0.00  0.00    +0.000 A 
ATOM     11  C   UNL     1      -1.012  11.738  20.969  0.00  0.00    +0.000 A 
ATOM     12  C   UNL     1      -0.200  10.600  20.941  0.00  0.00    +0.000 A 
ATOM     13  H   UNL     1       1.397   8.422  22.852  0.00  0.00    +0.000 HD
ATOM     14  H   UNL     1       2.654   6.962  21.676  0.00  0.00    +0.000 HD
ENDROOT
BRANCH   5  15
ATOM     15  C   UNL     1       2.341   6.231  19.788  0.00  0.00    +0.000 A 
ATOM     16  C   UNL     1       3.285   6.348  18.757  0.00  0.00    +0.000 A 
ATOM     17  C   UNL     1       3.432   5.351  17.791  0.00  0.00    +0.000 A 
ATOM     18 CL   UNL     1       4.604   5.542  16.545  0.00  0.00    +0.000 Cl
ATOM     19  C   UNL     1       2.640   4.212  17.827  0.00  0.00    +0.000 A 
ATOM     20  C   UNL     1       1.702   4.079  18.844  0.00  0.00    +0.000 A 
ATOM     21 CL   UNL     1       0.711   2.672  18.904  0.00  0.00    +0.000 Cl
ATOM     22  C   UNL     1       1.555   5.070  19.821  0.00  0.00    +0.000 A 
ENDBRANCH   5  15
BRANCH   9  23
ATOM     23  O   UNL     1      -1.479  12.306  17.404  0.00  0.00    +0.000 OA
ATOM     24  H   UNL     1      -2.430  12.132  17.306  0.00  0.00    +0.000 HD
ENDBRANCH   9  23
TORSDOF 2
ENDMDL
MODEL 2
REMARK VINA RESULT:      -8.1      0.164      1.969
REMARK  Name = 
REMARK  2 active torsions:
REMARK  status: ('A' for Active; 'I' for Inactive)
REMARK    1  A    between atoms: N_5  and  C_6
REMARK    2  A    between atoms: C_17  and  O_18
REMARK                            x       y       z     vdW  Elec       q    Type
REMARK                         _______ _______ _______ _____ _____    ______ ____
ROOT
ATOM      1  O   UNL     1      -0.042  10.465  23.123  0.00  0.00    +0.000 OA
ATOM      2  C   UNL     1       0.277  10.014  22.029  0.00  0.00    +0.000 A 
ATOM      3  N   UNL     1       1.114   8.931  21.906  0.00  0.00    +0.000 N 
ATOM      4  C   UNL     1       1.417   8.321  20.711  0.00  0.00    +0.000 A 
ATOM      5  N   UNL     1       2.209   7.203  20.798  0.00  0.00    +0.000 N 
ATOM      6  N   UNL     1       0.973   8.804  19.593  0.00  0.00    +0.000 NA
ATOM      7  C   UNL     1       0.159   9.940  19.593  0.00  0.00    +0.000 A 
ATOM      8  C   UNL     1      -0.295  10.433  18.369  0.00  0.00    +0.000 A 
ATOM      9  C   UNL     1      -1.113  11.559  18.337  0.00  0.00    +0.000 A 
ATOM     10  C   UNL     1      -1.490  12.202  19.514  0.00  0.00    +0.000 A 
ATOM     11  C   UNL     1      -1.050  11.710  20.742  0.00  0.00    +0.000 A 
ATOM     12  C   UNL     1      -0.225  10.582  20.769  0.00  0.00    +0.000 A 
ATOM     13  H   UNL     1       1.424   8.536  22.778  0.00  0.00    +0.000 HD
ATOM     14  H   UNL     1       2.683   7.026  21.670  0.00  0.00    +0.000 HD
ENDROOT
BRANCH   5  15
ATOM     15  C   UNL     1       2.354   6.184  19.831  0.00  0.00    +0.000 A 
ATOM     16  C   UNL     1       1.566   5.024  19.818  0.00  0.00    +0.000 A 
ATOM     17  C   UNL     1       1.709   4.060  18.819  0.00  0.00    +0.000 A 
ATOM     18 CL   UNL     1       0.718   2.654  18.848  0.00  0.00    +0.000 Cl
ATOM     19  C   UNL     1       2.643   4.228  17.806  0.00  0.00    +0.000 A 
ATOM     20  C   UNL     1       3.430   5.374  17.802  0.00  0.00    +0.000 A 
ATOM     21 CL   UNL     1       4.594   5.597  16.553  0.00  0.00    +0.000 Cl
ATOM     22  C   UNL     1       3.287   6.347  18.796  0.00  0.00    +0.000 A 
ENDBRANCH   5  15
BRANCH   9  23
ATOM     23  O   UNL     1      -1.572  12.067  17.158  0.00  0.00    +0.000 OA
ATOM     24  H   UNL     1      -1.885  12.975  17.309  0.00  0.00    +0.000 HD
ENDBRANCH   9  23
TORSDOF 2
ENDMDL
MODEL 3
REMARK VINA RESULT:      -7.7      4.705      6.683
REMARK  Name = 
REMARK  2 active torsions:
REMARK  status: ('A' for Active; 'I' for Inactive)
REMARK    1  A    between atoms: N_5  and  C_6
REMARK    2  A    between atoms: C_17  and  O_18
REMARK                            x       y       z     vdW  Elec       q    Type
REMARK                         _______ _______ _______ _____ _____    ______ ____
ROOT
ATOM      1  O   UNL     1       3.692   3.232  20.187  0.00  0.00    +0.000 OA
ATOM      2  C   UNL     1       4.026   3.951  19.253  0.00  0.00    +0.000 A 
ATOM      3  N   UNL     1       4.940   3.541  18.312  0.00  0.00    +0.000 N 
ATOM      4  C   UNL     1       5.269   4.263  17.189  0.00  0.00    +0.000 A 
ATOM      5  N   UNL     1       6.143   3.653  16.323  0.00  0.00    +0.000 N 
ATOM      6  N   UNL     1       4.773   5.445  16.997  0.00  0.00    +0.000 NA
ATOM      7  C   UNL     1       3.877   5.989  17.921  0.00  0.00    +0.000 A 
ATOM      8  C   UNL     1       3.369   7.267  17.682  0.00  0.00    +0.000 A 
ATOM      9  C   UNL     1       2.469   7.833  18.581  0.00  0.00    +0.000 A 
ATOM     10  C   UNL     1       2.063   7.139  19.718  0.00  0.00    +0.000 A 
ATOM     11  C   UNL     1       2.557   5.857  19.960  0.00  0.00    +0.000 A 
ATOM     12  C   UNL     1       3.465   5.296  19.057  0.00  0.00    +0.000 A 
ATOM     13  H   UNL     1       5.292   2.607  18.444  0.00  0.00    +0.000 HD
ATOM     14  H   UNL     1       6.643   2.840  16.651  0.00  0.00    +0.000 HD
ENDROOT
BRANCH   5  15
ATOM     15  C   UNL     1       6.349   3.961  14.961  0.00  0.00    +0.000 A 
ATOM     16  C   UNL     1       7.382   4.799  14.514  0.00  0.00    +0.000 A 
ATOM     17  C   UNL     1       7.581   5.043  13.155  0.00  0.00    +0.000 A 
ATOM     18 CL   UNL     1       8.863   6.079  12.658  0.00  0.00    +0.000 Cl
ATOM     19  C   UNL     1       6.755   4.459  12.204  0.00  0.00    +0.000 A 
ATOM     20  C   UNL     1       5.730   3.624  12.630  0.00  0.00    +0.000 A 
ATOM     21 CL   UNL     1       4.695   2.891  11.465  0.00  0.00    +0.000 Cl
ATOM     22  C   UNL     1       5.528   3.368  13.991  0.00  0.00    +0.000 A 
ENDBRANCH   5  15
BRANCH   9  23
ATOM     23  O   UNL     1       1.955   9.079  18.378  0.00  0.00    +0.000 OA
ATOM     24  H   UNL     1       1.926   9.254  17.423  0.00  0.00    +0.000 HD
ENDBRANCH   9  23
TORSDOF 2
ENDMDL
MODEL 4
REMARK VINA RESULT:      -7.7      4.689      6.842
REMARK  Name = 
REMARK  2 active torsions:
REMARK  status: ('A' for Active; 'I' for Inactive)
REMARK    1  A    between atoms: N_5  and  C_6
REMARK    2  A    between atoms: C_17  and  O_18
REMARK                            x       y       z     vdW  Elec       q    Type
REMARK                         _______ _______ _______ _____ _____    ______ ____
ROOT
ATOM      1  O   UNL     1       3.597   3.494  20.159  0.00  0.00    +0.000 OA
ATOM      2  C   UNL     1       3.959   4.153  19.191  0.00  0.00    +0.000 A 
ATOM      3  N   UNL     1       4.860   3.664  18.276  0.00  0.00    +0.000 N 
ATOM      4  C   UNL     1       5.218   4.316  17.119  0.00  0.00    +0.000 A 
ATOM      5  N   UNL     1       6.072   3.633  16.289  0.00  0.00    +0.000 N 
ATOM      6  N   UNL     1       4.764   5.504  16.866  0.00  0.00    +0.000 NA
ATOM      7  C   UNL     1       3.885   6.125  17.757  0.00  0.00    +0.000 A 
ATOM      8  C   UNL     1       3.423   7.406  17.451  0.00  0.00    +0.000 A 
ATOM      9  C   UNL     1       2.542   8.048  18.317  0.00  0.00    +0.000 A 
ATOM     10  C   UNL     1       2.109   7.427  19.485  0.00  0.00    +0.000 A 
ATOM     11  C   UNL     1       2.556   6.143  19.794  0.00  0.00    +0.000 A 
ATOM     12  C   UNL     1       3.446   5.505  18.925  0.00  0.00    +0.000 A 
ATOM     13  H   UNL     1       5.179   2.726  18.456  0.00  0.00    +0.000 HD
ATOM     14  H   UNL     1       6.541   2.820  16.660  0.00  0.00    +0.000 HD
ENDROOT
BRANCH   5  15
ATOM     15  C   UNL     1       6.292   3.864  14.914  0.00  0.00    +0.000 A 
ATOM     16  C   UNL     1       5.478   3.323  13.908  0.00  0.00    +0.000 A 
ATOM     17  C   UNL     1       5.702   3.612  12.561  0.00  0.00    +0.000 A 
ATOM     18 CL   UNL     1       4.675   2.923  11.363  0.00  0.00    +0.000 Cl
ATOM     19  C   UNL     1       6.743   4.448  12.182  0.00  0.00    +0.000 A 
ATOM     20  C   UNL     1       7.556   4.996  13.167  0.00  0.00    +0.000 A 
ATOM     21 CL   UNL     1       8.852   6.034  12.714  0.00  0.00    +0.000 Cl
ATOM     22  C   UNL     1       7.334   4.716  14.520  0.00  0.00    +0.000 A 
ENDBRANCH   5  15
BRANCH   9  23
ATOM     23  O   UNL     1       2.073   9.300  18.049  0.00  0.00    +0.000 OA
ATOM     24  H   UNL     1       2.112   9.830  18.862  0.00  0.00    +0.000 HD
ENDBRANCH   9  23
TORSDOF 2
ENDMDL
MODEL 5
REMARK VINA RESULT:      -7.6      4.251      7.416
REMARK  Name = 
REMARK  2 active torsions:
REMARK  status: ('A' for Active; 'I' for Inactive)
REMARK    1  A    between atoms: N_5  and  C_6
REMARK    2  A    between atoms: C_17  and  O_18
REMARK                            x       y       z     vdW  Elec       q    Type
REMARK                         _______ _______ _______ _____ _____    ______ ____
ROOT
ATOM      1  O   UNL     1       5.430   5.707  16.274  0.00  0.00    +0.000 OA
ATOM      2  C   UNL     1       4.451   5.861  16.995  0.00  0.00    +0.000 A 
ATOM      3  N   UNL     1       4.045   7.107  17.411  0.00  0.00    +0.000 N 
ATOM      4  C   UNL     1       2.897   7.345  18.129  0.00  0.00    +0.000 A 
ATOM      5  N   UNL     1       2.617   8.665  18.383  0.00  0.00    +0.000 N 
ATOM      6  N   UNL     1       2.156   6.361  18.531  0.00  0.00    +0.000 NA
ATOM      7  C   UNL     1       2.504   5.045  18.217  0.00  0.00    +0.000 A 
ATOM      8  C   UNL     1       1.683   4.012  18.673  0.00  0.00    +0.000 A 
ATOM      9  C   UNL     1       2.001   2.691  18.370  0.00  0.00    +0.000 A 
ATOM     10  C   UNL     1       3.128   2.383  17.613  0.00  0.00    +0.000 A 
ATOM     11  C   UNL     1       3.949   3.408  17.144  0.00  0.00    +0.000 A 
ATOM     12  C   UNL     1       3.628   4.733  17.455  0.00  0.00    +0.000 A 
ATOM     13  H   UNL     1       4.602   7.870  17.063  0.00  0.00    +0.000 HD
ATOM     14  H   UNL     1       3.348   9.342  18.227  0.00  0.00    +0.000 HD
ENDROOT
BRANCH   5  15
ATOM     15  C   UNL     1       1.367   9.219  18.735  0.00  0.00    +0.000 A 
ATOM     16  C   UNL     1       1.029   9.569  20.052  0.00  0.00    +0.000 A 
ATOM     17  C   UNL     1      -0.200  10.157  20.353  0.00  0.00    +0.000 A 
ATOM     18 CL   UNL     1      -0.567  10.568  21.984  0.00  0.00    +0.000 Cl
ATOM     19  C   UNL     1      -1.126  10.410  19.351  0.00  0.00    +0.000 A 
ATOM     20  C   UNL     1      -0.805  10.073  18.041  0.00  0.00    +0.000 A 
ATOM     21 CL   UNL     1      -1.942  10.381  16.785  0.00  0.00    +0.000 Cl
ATOM     22  C   UNL     1       0.428   9.491  17.730  0.00  0.00    +0.000 A 
ENDBRANCH   5  15
BRANCH   9  23
ATOM     23  O   UNL     1       1.221   1.659  18.802  0.00  0.00    +0.000 OA
ATOM     24  H   UNL     1       1.663   1.225  19.551  0.00  0.00    +0.000 HD
ENDBRANCH   9  23
TORSDOF 2
ENDMDL
MODEL 6
REMARK VINA RESULT:      -7.6      4.125      7.304
REMARK  Name = 
REMARK  2 active torsions:
REMARK  status: ('A' for Active; 'I' for Inactive)
REMARK    1  A    between atoms: N_5  and  C_6
REMARK    2  A    between atoms: C_17  and  O_18
REMARK                            x       y       z     vdW  Elec       q    Type
REMARK                         _______ _______ _______ _____ _____    ______ ____
ROOT
ATOM      1  O   UNL     1       4.692   4.997  16.927  0.00  0.00    +0.000 OA
ATOM      2  C   UNL     1       3.955   5.491  17.772  0.00  0.00    +0.000 A 
ATOM      3  N   UNL     1       3.554   6.803  17.708  0.00  0.00    +0.000 N 
ATOM      4  C   UNL     1       2.646   7.376  18.567  0.00  0.00    +0.000 A 
ATOM      5  N   UNL     1       2.308   8.679  18.295  0.00  0.00    +0.000 N 
ATOM      6  N   UNL     1       2.166   6.702  19.564  0.00  0.00    +0.000 NA
ATOM      7  C   UNL     1       2.549   5.373  19.763  0.00  0.00    +0.000 A 
ATOM      8  C   UNL     1       2.015   4.681  20.851  0.00  0.00    +0.000 A 
ATOM      9  C   UNL     1       2.374   3.354  21.071  0.00  0.00    +0.000 A 
ATOM     10  C   UNL     1       3.258   2.702  20.215  0.00  0.00    +0.000 A 
ATOM     11  C   UNL     1       3.789   3.381  19.120  0.00  0.00    +0.000 A 
ATOM     12  C   UNL     1       3.430   4.715  18.906  0.00  0.00    +0.000 A 
ATOM     13  H   UNL     1       3.898   7.312  16.910  0.00  0.00    +0.000 HD
ATOM     14  H   UNL     1       2.884   9.190  17.643  0.00  0.00    +0.000 HD
ENDROOT
BRANCH   5  15
ATOM     15  C   UNL     1       1.162   9.374  18.739  0.00  0.00    +0.000 A 
ATOM     16  C   UNL     1       1.017   9.851  20.051  0.00  0.00    +0.000 A 
ATOM     17  C   UNL     1      -0.112  10.574  20.439  0.00  0.00    +0.000 A 
ATOM     18 CL   UNL     1      -0.242  11.137  22.060  0.00  0.00    +0.000 Cl
ATOM     19  C   UNL     1      -1.126  10.840  19.530  0.00  0.00    +0.000 A 
ATOM     20  C   UNL     1      -0.996  10.378  18.225  0.00  0.00    +0.000 A 
ATOM     21 CL   UNL     1      -2.245  10.699  17.085  0.00  0.00    +0.000 Cl
ATOM     22  C   UNL     1       0.136   9.660  17.826  0.00  0.00    +0.000 A 
ENDBRANCH   5  15
BRANCH   9  23
ATOM     23  O   UNL     1       1.871   2.651  22.125  0.00  0.00    +0.000 OA
ATOM     24  H   UNL     1       0.921   2.838  22.202  0.00  0.00    +0.000 HD
ENDBRANCH   9  23
TORSDOF 2
ENDMDL
MODEL 7
REMARK VINA RESULT:      -7.6      4.261      7.349
REMARK  Name = 
REMARK  2 active torsions:
REMARK  status: ('A' for Active; 'I' for Inactive)
REMARK    1  A    between atoms: N_5  and  C_6
REMARK    2  A    between atoms: C_17  and  O_18
REMARK                            x       y       z     vdW  Elec       q    Type
REMARK                         _______ _______ _______ _____ _____    ______ ____
ROOT
ATOM      1  O   UNL     1       5.415   5.663  16.180  0.00  0.00    +0.000 OA
ATOM      2  C   UNL     1       4.448   5.837  16.913  0.00  0.00    +0.000 A 
ATOM      3  N   UNL     1       4.061   7.092  17.317  0.00  0.00    +0.000 N 
ATOM      4  C   UNL     1       2.926   7.352  18.048  0.00  0.00    +0.000 A 
ATOM      5  N   UNL     1       2.662   8.678  18.288  0.00  0.00    +0.000 N 
ATOM      6  N   UNL     1       2.180   6.382  18.474  0.00  0.00    +0.000 NA
ATOM      7  C   UNL     1       2.511   5.058  18.173  0.00  0.00    +0.000 A 
ATOM      8  C   UNL     1       1.686   4.040  18.655  0.00  0.00    +0.000 A 
ATOM      9  C   UNL     1       1.986   2.711  18.366  0.00  0.00    +0.000 A 
ATOM     10  C   UNL     1       3.099   2.381  17.597  0.00  0.00    +0.000 A 
ATOM     11  C   UNL     1       3.923   3.392  17.102  0.00  0.00    +0.000 A 
ATOM     12  C   UNL     1       3.621   4.724  17.400  0.00  0.00    +0.000 A 
ATOM     13  H   UNL     1       4.620   7.845  16.950  0.00  0.00    +0.000 HD
ATOM     14  H   UNL     1       3.398   9.346  18.112  0.00  0.00    +0.000 HD
ENDROOT
BRANCH   5  15
ATOM     15  C   UNL     1       1.423   9.250  18.650  0.00  0.00    +0.000 A 
ATOM     16  C   UNL     1       0.429   9.576  17.716  0.00  0.00    +0.000 A 
ATOM     17  C   UNL     1      -0.801  10.098  18.118  0.00  0.00    +0.000 A 
ATOM     18 CL   UNL     1      -1.988  10.483  16.933  0.00  0.00    +0.000 Cl
ATOM     19  C   UNL     1      -1.073  10.309  19.463  0.00  0.00    +0.000 A 
ATOM     20  C   UNL     1      -0.100   9.987  20.402  0.00  0.00    +0.000 A 
ATOM     21 CL   UNL     1      -0.419  10.242  22.074  0.00  0.00    +0.000 Cl
ATOM     22  C   UNL     1       1.133   9.456  20.007  0.00  0.00    +0.000 A 
ENDBRANCH   5  15
BRANCH   9  23
ATOM     23  O   UNL     1       1.202   1.694  18.823  0.00  0.00    +0.000 OA
ATOM     24  H   UNL     1       0.634   1.386  18.097  0.00  0.00    +0.000 HD
ENDBRANCH   9  23
TORSDOF 2
ENDMDL
MODEL 8
REMARK VINA RESULT:      -7.5      4.103      7.242
REMARK  Name = 
REMARK  2 active torsions:
REMARK  status: ('A' for Active; 'I' for Inactive)
REMARK    1  A    between atoms: N_5  and  C_6
REMARK    2  A    between atoms: C_17  and  O_18
REMARK                            x       y       z     vdW  Elec       q    Type
REMARK                         _______ _______ _______ _____ _____    ______ ____
ROOT
ATOM      1  O   UNL     1       4.772   4.918  17.037  0.00  0.00    +0.000 OA
ATOM      2  C   UNL     1       4.012   5.435  17.848  0.00  0.00    +0.000 A 
ATOM      3  N   UNL     1       3.620   6.748  17.742  0.00  0.00    +0.000 N 
ATOM      4  C   UNL     1       2.689   7.344  18.560  0.00  0.00    +0.000 A 
ATOM      5  N   UNL     1       2.367   8.642  18.248  0.00  0.00    +0.000 N 
ATOM      6  N   UNL     1       2.176   6.695  19.557  0.00  0.00    +0.000 NA
ATOM      7  C   UNL     1       2.546   5.369  19.797  0.00  0.00    +0.000 A 
ATOM      8  C   UNL     1       1.976   4.705  20.885  0.00  0.00    +0.000 A 
ATOM      9  C   UNL     1       2.321   3.381  21.145  0.00  0.00    +0.000 A 
ATOM     10  C   UNL     1       3.227   2.706  20.332  0.00  0.00    +0.000 A 
ATOM     11  C   UNL     1       3.795   3.357  19.238  0.00  0.00    +0.000 A 
ATOM     12  C   UNL     1       3.449   4.688  18.983  0.00  0.00    +0.000 A 
ATOM     13  H   UNL     1       3.990   7.236  16.943  0.00  0.00    +0.000 HD
ATOM     14  H   UNL     1       2.965   9.135  17.602  0.00  0.00    +0.000 HD
ENDROOT
BRANCH   5  15
ATOM     15  C   UNL     1       1.212   9.352  18.641  0.00  0.00    +0.000 A 
ATOM     16  C   UNL     1       0.158   9.643  17.762  0.00  0.00    +0.000 A 
ATOM     17  C   UNL     1      -0.989  10.308  18.201  0.00  0.00    +0.000 A 
ATOM     18 CL   UNL     1      -2.255  10.642  17.083  0.00  0.00    +0.000 Cl
ATOM     19  C   UNL     1      -1.113  10.702  19.526  0.00  0.00    +0.000 A 
ATOM     20  C   UNL     1      -0.079  10.417  20.410  0.00  0.00    +0.000 A 
ATOM     21 CL   UNL     1      -0.217  10.899  22.057  0.00  0.00    +0.000 Cl
ATOM     22  C   UNL     1       1.070   9.745  19.980  0.00  0.00    +0.000 A 
ENDBRANCH   5  15
BRANCH   9  23
ATOM     23  O   UNL     1       1.783   2.705  22.200  0.00  0.00    +0.000 OA
ATOM     24  H   UNL     1       1.901   1.752  22.054  0.00  0.00    +0.000 HD
ENDBRANCH   9  23
TORSDOF 2
ENDMDL
MODEL 9
REMARK VINA RESULT:      -7.3      0.969      1.073
REMARK  Name = 
REMARK  2 active torsions:
REMARK  status: ('A' for Active; 'I' for Inactive)
REMARK    1  A    between atoms: N_5  and  C_6
REMARK    2  A    between atoms: C_17  and  O_18
REMARK                            x       y       z     vdW  Elec       q    Type
REMARK                         _______ _______ _______ _____ _____    ______ ____
ROOT
ATOM      1  O   UNL     1      -0.101  11.551  22.253  0.00  0.00    +0.000 OA
ATOM      2  C   UNL     1       0.142  10.832  21.291  0.00  0.00    +0.000 A 
ATOM      3  N   UNL     1       1.036   9.792  21.369  0.00  0.00    +0.000 N 
ATOM      4  C   UNL     1       1.265   8.892  20.354  0.00  0.00    +0.000 A 
ATOM      5  N   UNL     1       2.136   7.872  20.648  0.00  0.00    +0.000 N 
ATOM      6  N   UNL     1       0.684   9.035  19.204  0.00  0.00    +0.000 NA
ATOM      7  C   UNL     1      -0.202  10.094  18.992  0.00  0.00    +0.000 A 
ATOM      8  C   UNL     1      -0.803  10.217  17.738  0.00  0.00    +0.000 A 
ATOM      9  C   UNL     1      -1.696  11.258  17.498  0.00  0.00    +0.000 A 
ATOM     10  C   UNL     1      -2.002  12.181  18.495  0.00  0.00    +0.000 A 
ATOM     11  C   UNL     1      -1.415  12.060  19.754  0.00  0.00    +0.000 A 
ATOM     12  C   UNL     1      -0.515  11.016  19.988  0.00  0.00    +0.000 A 
ATOM     13  H   UNL     1       1.454   9.661  22.276  0.00  0.00    +0.000 HD
ATOM     14  H   UNL     1       2.703   7.959  21.478  0.00  0.00    +0.000 HD
ENDROOT
BRANCH   5  15
ATOM     15  C   UNL     1       2.258   6.636  19.978  0.00  0.00    +0.000 A 
ATOM     16  C   UNL     1       3.065   6.457  18.844  0.00  0.00    +0.000 A 
ATOM     17  C   UNL     1       3.195   5.207  18.236  0.00  0.00    +0.000 A 
ATOM     18 CL   UNL     1       4.198   5.040  16.847  0.00  0.00    +0.000 Cl
ATOM     19  C   UNL     1       2.524   4.103  18.743  0.00  0.00    +0.000 A 
ATOM     20  C   UNL     1       1.724   4.262  19.868  0.00  0.00    +0.000 A 
ATOM     21 CL   UNL     1       0.884   2.903  20.509  0.00  0.00    +0.000 Cl
ATOM     22  C   UNL     1       1.594   5.510  20.487  0.00  0.00    +0.000 A 
ENDBRANCH   5  15
BRANCH   9  23
ATOM     23  O   UNL     1      -2.299  11.407  16.284  0.00  0.00    +0.000 OA
ATOM     24  H   UNL     1      -2.703  12.290  16.242  0.00  0.00    +0.000 HD
ENDBRANCH   9  23
TORSDOF 2
ENDMDL
