MODEL 1
REMARK VINA RESULT:      -6.6      0.000      0.000
REMARK  Name = 
REMARK  4 active torsions:
REMARK  status: ('A' for Active; 'I' for Inactive)
REMARK    1  A    between atoms: N_1  and  C_2
REMARK    2  A    between atoms: C_5  and  S_6
REMARK    3  A    between atoms: S_6  and  N_9
REMARK    4  A    between atoms: N_9  and  C_10
REMARK                            x       y       z     vdW  Elec       q    Type
REMARK                         _______ _______ _______ _____ _____    ______ ____
ROOT
ATOM      1  S   UNL     1       5.373   4.767  19.095  0.00  0.00    +0.000 S 
ATOM      2  O   UNL     1       6.583   5.078  19.825  0.00  0.00    +0.000 OA
ATOM      3  O   UNL     1       4.167   5.554  19.242  0.00  0.00    +0.000 OA
ENDROOT
BRANCH   1   7
ATOM      4  C   UNL     1       6.461   4.570  14.647  0.00  0.00    +0.000 A 
ATOM      5  C   UNL     1       7.452   4.735  15.621  0.00  0.00    +0.000 A 
ATOM      6  C   UNL     1       7.119   4.837  16.974  0.00  0.00    +0.000 A 
ATOM      7  C   UNL     1       5.781   4.736  17.365  0.00  0.00    +0.000 A 
ATOM      8  C   UNL     1       4.788   4.501  16.414  0.00  0.00    +0.000 A 
ATOM      9  C   UNL     1       5.135   4.403  15.061  0.00  0.00    +0.000 A 
BRANCH   4  10
ATOM     10  N   UNL     1       6.819   4.329  13.317  0.00  0.00    +0.000 N 
ATOM     11  H   UNL     1       6.036   4.342  12.670  0.00  0.00    +0.000 HD
ATOM     12  H   UNL     1       7.413   3.517  13.185  0.00  0.00    +0.000 HD
ENDBRANCH   4  10
ENDBRANCH   1   7
BRANCH   1  13
ATOM     13  N   UNL     1       5.050   3.112  19.391  0.00  0.00    +0.000 N 
ATOM     14  H   UNL     1       5.465   2.954  20.314  0.00  0.00    +0.000 HD
BRANCH  13  15
ATOM     15  C   UNL     1       3.646   2.857  19.513  0.00  0.00    +0.000 A 
ATOM     16  C   UNL     1       2.845   2.427  18.482  0.00  0.00    +0.000 A 
ATOM     17  C   UNL     1       1.501   2.217  18.920  0.00  0.00    +0.000 A 
ATOM     18  C   UNL     1       1.344   2.500  20.261  0.00  0.00    +0.000 A 
ATOM     19  S   UNL     1       2.823   2.955  20.995  0.00  0.00    +0.000 S 
ENDBRANCH  13  15
ENDBRANCH   1  13
TORSDOF 4
ENDMDL
MODEL 2
REMARK VINA RESULT:      -6.6      0.800      1.038
REMARK  Name = 
REMARK  4 active torsions:
REMARK  status: ('A' for Active; 'I' for Inactive)
REMARK    1  A    between atoms: N_1  and  C_2
REMARK    2  A    between atoms: C_5  and  S_6
REMARK    3  A    between atoms: S_6  and  N_9
REMARK    4  A    between atoms: N_9  and  C_10
REMARK                            x       y       z     vdW  Elec       q    Type
REMARK                         _______ _______ _______ _____ _____    ______ ____
ROOT
ATOM      1  S   UNL     1       5.331   4.740  19.101  0.00  0.00    +0.000 S 
ATOM      2  O   UNL     1       6.525   5.078  19.844  0.00  0.00    +0.000 OA
ATOM      3  O   UNL     1       4.107   5.500  19.234  0.00  0.00    +0.000 OA
ENDROOT
BRANCH   1   7
ATOM      4  C   UNL     1       6.466   4.565  14.663  0.00  0.00    +0.000 A 
ATOM      5  C   UNL     1       7.451   4.675  15.652  0.00  0.00    +0.000 A 
ATOM      6  C   UNL     1       7.105   4.769  17.002  0.00  0.00    +0.000 A 
ATOM      7  C   UNL     1       5.760   4.719  17.375  0.00  0.00    +0.000 A 
ATOM      8  C   UNL     1       4.769   4.540  16.409  0.00  0.00    +0.000 A 
ATOM      9  C   UNL     1       5.129   4.448  15.059  0.00  0.00    +0.000 A 
BRANCH   4  10
ATOM     10  N   UNL     1       6.830   4.330  13.334  0.00  0.00    +0.000 N 
ATOM     11  H   UNL     1       7.812   4.503  13.137  0.00  0.00    +0.000 HD
ATOM     12  H   UNL     1       6.219   4.766  12.651  0.00  0.00    +0.000 HD
ENDBRANCH   4  10
ENDBRANCH   1   7
BRANCH   1  13
ATOM     13  N   UNL     1       5.043   3.078  19.393  0.00  0.00    +0.000 N 
ATOM     14  H   UNL     1       5.489   2.919  20.301  0.00  0.00    +0.000 HD
BRANCH  13  15
ATOM     15  C   UNL     1       3.647   2.802  19.558  0.00  0.00    +0.000 A 
ATOM     16  C   UNL     1       2.960   2.964  20.738  0.00  0.00    +0.000 A 
ATOM     17  C   UNL     1       1.574   2.652  20.580  0.00  0.00    +0.000 A 
ATOM     18  C   UNL     1       1.275   2.266  19.290  0.00  0.00    +0.000 A 
ATOM     19  S   UNL     1       2.647   2.340  18.267  0.00  0.00    +0.000 S 
ENDBRANCH  13  15
ENDBRANCH   1  13
TORSDOF 4
ENDMDL
MODEL 3
REMARK VINA RESULT:      -6.6      0.821      1.599
REMARK  Name = 
REMARK  4 active torsions:
REMARK  status: ('A' for Active; 'I' for Inactive)
REMARK    1  A    between atoms: N_1  and  C_2
REMARK    2  A    between atoms: C_5  and  S_6
REMARK    3  A    between atoms: S_6  and  N_9
REMARK    4  A    between atoms: N_9  and  C_10
REMARK                            x       y       z     vdW  Elec       q    Type
REMARK                         _______ _______ _______ _____ _____    ______ ____
ROOT
ATOM      1  S   UNL     1       5.291   4.673  19.066  0.00  0.00    +0.000 S 
ATOM      2  O   UNL     1       6.448   5.019  19.863  0.00  0.00    +0.000 OA
ATOM      3  O   UNL     1       4.080   5.464  19.092  0.00  0.00    +0.000 OA
ENDROOT
BRANCH   1   7
ATOM      4  C   UNL     1       6.612   4.504  14.680  0.00  0.00    +0.000 A 
ATOM      5  C   UNL     1       5.267   4.344  15.031  0.00  0.00    +0.000 A 
ATOM      6  C   UNL     1       4.867   4.355  16.370  0.00  0.00    +0.000 A 
ATOM      7  C   UNL     1       5.819   4.563  17.371  0.00  0.00    +0.000 A 
ATOM      8  C   UNL     1       7.153   4.793  17.036  0.00  0.00    +0.000 A 
ATOM      9  C   UNL     1       7.540   4.778  15.691  0.00  0.00    +0.000 A 
BRANCH   4  10
ATOM     10  N   UNL     1       6.976   4.632  13.336  0.00  0.00    +0.000 N 
ATOM     11  H   UNL     1       6.277   5.094  12.761  0.00  0.00    +0.000 HD
ATOM     12  H   UNL     1       7.317   3.775  12.913  0.00  0.00    +0.000 HD
ENDBRANCH   4  10
ENDBRANCH   1   7
BRANCH   1  13
ATOM     13  N   UNL     1       4.946   3.033  19.415  0.00  0.00    +0.000 N 
ATOM     14  H   UNL     1       5.378   2.893  20.333  0.00  0.00    +0.000 HD
BRANCH  13  15
ATOM     15  C   UNL     1       3.541   2.807  19.574  0.00  0.00    +0.000 A 
ATOM     16  C   UNL     1       2.851   3.014  20.745  0.00  0.00    +0.000 A 
ATOM     17  C   UNL     1       1.456   2.746  20.581  0.00  0.00    +0.000 A 
ATOM     18  C   UNL     1       1.154   2.347  19.296  0.00  0.00    +0.000 A 
ATOM     19  S   UNL     1       2.535   2.356  18.282  0.00  0.00    +0.000 S 
ENDBRANCH  13  15
ENDBRANCH   1  13
TORSDOF 4
ENDMDL
MODEL 4
REMARK VINA RESULT:      -6.6      0.149      1.214
REMARK  Name = 
REMARK  4 active torsions:
REMARK  status: ('A' for Active; 'I' for Inactive)
REMARK    1  A    between atoms: N_1  and  C_2
REMARK    2  A    between atoms: C_5  and  S_6
REMARK    3  A    between atoms: S_6  and  N_9
REMARK    4  A    between atoms: N_9  and  C_10
REMARK                            x       y       z     vdW  Elec       q    Type
REMARK                         _______ _______ _______ _____ _____    ______ ____
ROOT
ATOM      1  S   UNL     1       5.332   4.685  19.037  0.00  0.00    +0.000 S 
ATOM      2  O   UNL     1       6.505   5.019  19.814  0.00  0.00    +0.000 OA
ATOM      3  O   UNL     1       4.134   5.496  19.073  0.00  0.00    +0.000 OA
ENDROOT
BRANCH   1   7
ATOM      4  C   UNL     1       6.578   4.452  14.632  0.00  0.00    +0.000 A 
ATOM      5  C   UNL     1       5.246   4.252  15.012  0.00  0.00    +0.000 A 
ATOM      6  C   UNL     1       4.871   4.282  16.358  0.00  0.00    +0.000 A 
ATOM      7  C   UNL     1       5.832   4.551  17.336  0.00  0.00    +0.000 A 
ATOM      8  C   UNL     1       7.151   4.821  16.969  0.00  0.00    +0.000 A 
ATOM      9  C   UNL     1       7.514   4.786  15.618  0.00  0.00    +0.000 A 
BRANCH   4  10
ATOM     10  N   UNL     1       6.912   4.559  13.279  0.00  0.00    +0.000 N 
ATOM     11  H   UNL     1       6.399   5.281  12.782  0.00  0.00    +0.000 HD
ATOM     12  H   UNL     1       6.914   3.676  12.778  0.00  0.00    +0.000 HD
ENDBRANCH   4  10
ENDBRANCH   1   7
BRANCH   1  13
ATOM     13  N   UNL     1       4.965   3.054  19.406  0.00  0.00    +0.000 N 
ATOM     14  H   UNL     1       5.368   2.929  20.339  0.00  0.00    +0.000 HD
BRANCH  13  15
ATOM     15  C   UNL     1       3.553   2.840  19.527  0.00  0.00    +0.000 A 
ATOM     16  C   UNL     1       2.748   2.398  18.505  0.00  0.00    +0.000 A 
ATOM     17  C   UNL     1       1.396   2.238  18.942  0.00  0.00    +0.000 A 
ATOM     18  C   UNL     1       1.239   2.568  20.271  0.00  0.00    +0.000 A 
ATOM     19  S   UNL     1       2.726   3.008  21.000  0.00  0.00    +0.000 S 
ENDBRANCH  13  15
ENDBRANCH   1  13
TORSDOF 4
ENDMDL
MODEL 5
REMARK VINA RESULT:      -6.5      1.432      1.711
REMARK  Name = 
REMARK  4 active torsions:
REMARK  status: ('A' for Active; 'I' for Inactive)
REMARK    1  A    between atoms: N_1  and  C_2
REMARK    2  A    between atoms: C_5  and  S_6
REMARK    3  A    between atoms: S_6  and  N_9
REMARK    4  A    between atoms: N_9  and  C_10
REMARK                            x       y       z     vdW  Elec       q    Type
REMARK                         _______ _______ _______ _____ _____    ______ ____
ROOT
ATOM      1  S   UNL     1       5.384   4.576  19.107  0.00  0.00    +0.000 S 
ATOM      2  O   UNL     1       5.067   3.206  19.446  0.00  0.00    +0.000 OA
ATOM      3  O   UNL     1       6.401   5.324  19.815  0.00  0.00    +0.000 OA
ENDROOT
BRANCH   1   7
ATOM      4  C   UNL     1       6.492   4.581  14.659  0.00  0.00    +0.000 A 
ATOM      5  C   UNL     1       7.461   4.817  15.640  0.00  0.00    +0.000 A 
ATOM      6  C   UNL     1       7.118   4.857  16.994  0.00  0.00    +0.000 A 
ATOM      7  C   UNL     1       5.795   4.623  17.378  0.00  0.00    +0.000 A 
ATOM      8  C   UNL     1       4.830   4.317  16.418  0.00  0.00    +0.000 A 
ATOM      9  C   UNL     1       5.186   4.282  15.065  0.00  0.00    +0.000 A 
BRANCH   4  10
ATOM     10  N   UNL     1       6.872   4.405  13.326  0.00  0.00    +0.000 N 
ATOM     11  H   UNL     1       6.312   4.933  12.663  0.00  0.00    +0.000 HD
ATOM     12  H   UNL     1       6.982   3.435  13.048  0.00  0.00    +0.000 HD
ENDBRANCH   4  10
ENDBRANCH   1   7
BRANCH   1  13
ATOM     13  N   UNL     1       3.896   5.425  19.118  0.00  0.00    +0.000 N 
ATOM     14  H   UNL     1       3.743   5.642  18.129  0.00  0.00    +0.000 HD
BRANCH  13  15
ATOM     15  C   UNL     1       2.810   4.590  19.537  0.00  0.00    +0.000 A 
ATOM     16  C   UNL     1       2.416   4.432  20.845  0.00  0.00    +0.000 A 
ATOM     17  C   UNL     1       1.277   3.574  20.944  0.00  0.00    +0.000 A 
ATOM     18  C   UNL     1       0.863   3.119  19.709  0.00  0.00    +0.000 A 
ATOM     19  S   UNL     1       1.806   3.774  18.438  0.00  0.00    +0.000 S 
ENDBRANCH  13  15
ENDBRANCH   1  13
TORSDOF 4
ENDMDL
MODEL 6
REMARK VINA RESULT:      -6.4      1.426      2.073
REMARK  Name = 
REMARK  4 active torsions:
REMARK  status: ('A' for Active; 'I' for Inactive)
REMARK    1  A    between atoms: N_1  and  C_2
REMARK    2  A    between atoms: C_5  and  S_6
REMARK    3  A    between atoms: S_6  and  N_9
REMARK    4  A    between atoms: N_9  and  C_10
REMARK                            x       y       z     vdW  Elec       q    Type
REMARK                         _______ _______ _______ _____ _____    ______ ____
ROOT
ATOM      1  S   UNL     1       5.321   4.595  19.043  0.00  0.00    +0.000 S 
ATOM      2  O   UNL     1       5.063   3.245  19.494  0.00  0.00    +0.000 OA
ATOM      3  O   UNL     1       6.249   5.467  19.731  0.00  0.00    +0.000 OA
ENDROOT
BRANCH   1   7
ATOM      4  C   UNL     1       6.599   4.484  14.643  0.00  0.00    +0.000 A 
ATOM      5  C   UNL     1       5.261   4.297  15.006  0.00  0.00    +0.000 A 
ATOM      6  C   UNL     1       4.875   4.290  16.349  0.00  0.00    +0.000 A 
ATOM      7  C   UNL     1       5.833   4.507  17.343  0.00  0.00    +0.000 A 
ATOM      8  C   UNL     1       7.159   4.764  16.996  0.00  0.00    +0.000 A 
ATOM      9  C   UNL     1       7.533   4.767  15.647  0.00  0.00    +0.000 A 
BRANCH   4  10
ATOM     10  N   UNL     1       6.947   4.629  13.297  0.00  0.00    +0.000 N 
ATOM     11  H   UNL     1       6.917   3.762  12.766  0.00  0.00    +0.000 HD
ATOM     12  H   UNL     1       7.807   5.145  13.142  0.00  0.00    +0.000 HD
ENDBRANCH   4  10
ENDBRANCH   1   7
BRANCH   1  13
ATOM     13  N   UNL     1       3.789   5.347  18.892  0.00  0.00    +0.000 N 
ATOM     14  H   UNL     1       3.659   5.410  17.878  0.00  0.00    +0.000 HD
BRANCH  13  15
ATOM     15  C   UNL     1       2.737   4.517  19.398  0.00  0.00    +0.000 A 
ATOM     16  C   UNL     1       2.338   4.491  20.713  0.00  0.00    +0.000 A 
ATOM     17  C   UNL     1       1.237   3.599  20.904  0.00  0.00    +0.000 A 
ATOM     18  C   UNL     1       0.854   2.990  19.728  0.00  0.00    +0.000 A 
ATOM     19  S   UNL     1       1.780   3.538  18.395  0.00  0.00    +0.000 S 
ENDBRANCH  13  15
ENDBRANCH   1  13
TORSDOF 4
ENDMDL
MODEL 7
REMARK VINA RESULT:      -6.3      1.222      1.346
REMARK  Name = 
REMARK  4 active torsions:
REMARK  status: ('A' for Active; 'I' for Inactive)
REMARK    1  A    between atoms: N_1  and  C_2
REMARK    2  A    between atoms: C_5  and  S_6
REMARK    3  A    between atoms: S_6  and  N_9
REMARK    4  A    between atoms: N_9  and  C_10
REMARK                            x       y       z     vdW  Elec       q    Type
REMARK                         _______ _______ _______ _____ _____    ______ ____
ROOT
ATOM      1  S   UNL     1       5.333   4.550  19.129  0.00  0.00    +0.000 S 
ATOM      2  O   UNL     1       5.008   3.185  19.482  0.00  0.00    +0.000 OA
ATOM      3  O   UNL     1       6.355   5.298  19.827  0.00  0.00    +0.000 OA
ENDROOT
BRANCH   1   7
ATOM      4  C   UNL     1       6.435   4.504  14.680  0.00  0.00    +0.000 A 
ATOM      5  C   UNL     1       7.401   4.774  15.656  0.00  0.00    +0.000 A 
ATOM      6  C   UNL     1       7.059   4.829  17.009  0.00  0.00    +0.000 A 
ATOM      7  C   UNL     1       5.741   4.576  17.399  0.00  0.00    +0.000 A 
ATOM      8  C   UNL     1       4.780   4.237  16.446  0.00  0.00    +0.000 A 
ATOM      9  C   UNL     1       5.135   4.187  15.093  0.00  0.00    +0.000 A 
BRANCH   4  10
ATOM     10  N   UNL     1       6.816   4.314  13.349  0.00  0.00    +0.000 N 
ATOM     11  H   UNL     1       6.526   5.061  12.725  0.00  0.00    +0.000 HD
ATOM     12  H   UNL     1       6.593   3.396  12.978  0.00  0.00    +0.000 HD
ENDBRANCH   4  10
ENDBRANCH   1   7
BRANCH   1  13
ATOM     13  N   UNL     1       3.850   5.408  19.135  0.00  0.00    +0.000 N 
ATOM     14  H   UNL     1       3.710   5.638  18.147  0.00  0.00    +0.000 HD
BRANCH  13  15
ATOM     15  C   UNL     1       2.755   4.574  19.530  0.00  0.00    +0.000 A 
ATOM     16  C   UNL     1       1.972   3.858  18.656  0.00  0.00    +0.000 A 
ATOM     17  C   UNL     1       0.990   3.085  19.350  0.00  0.00    +0.000 A 
ATOM     18  C   UNL     1       1.072   3.253  20.717  0.00  0.00    +0.000 A 
ATOM     19  S   UNL     1       2.365   4.287  21.157  0.00  0.00    +0.000 S 
ENDBRANCH  13  15
ENDBRANCH   1  13
TORSDOF 4
ENDMDL
MODEL 8
REMARK VINA RESULT:      -6.3      1.217      1.779
REMARK  Name = 
REMARK  4 active torsions:
REMARK  status: ('A' for Active; 'I' for Inactive)
REMARK    1  A    between atoms: N_1  and  C_2
REMARK    2  A    between atoms: C_5  and  S_6
REMARK    3  A    between atoms: S_6  and  N_9
REMARK    4  A    between atoms: N_9  and  C_10
REMARK                            x       y       z     vdW  Elec       q    Type
REMARK                         _______ _______ _______ _____ _____    ______ ____
ROOT
ATOM      1  S   UNL     1       5.231   4.570  19.031  0.00  0.00    +0.000 S 
ATOM      2  O   UNL     1       4.977   3.216  19.473  0.00  0.00    +0.000 OA
ATOM      3  O   UNL     1       6.133   5.450  19.742  0.00  0.00    +0.000 OA
ENDROOT
BRANCH   1   7
ATOM      4  C   UNL     1       6.607   4.481  14.660  0.00  0.00    +0.000 A 
ATOM      5  C   UNL     1       5.271   4.235  14.996  0.00  0.00    +0.000 A 
ATOM      6  C   UNL     1       4.858   4.221  16.331  0.00  0.00    +0.000 A 
ATOM      7  C   UNL     1       5.783   4.491  17.343  0.00  0.00    +0.000 A 
ATOM      8  C   UNL     1       7.103   4.807  17.021  0.00  0.00    +0.000 A 
ATOM      9  C   UNL     1       7.505   4.815  15.681  0.00  0.00    +0.000 A 
BRANCH   4  10
ATOM     10  N   UNL     1       6.977   4.630  13.320  0.00  0.00    +0.000 N 
ATOM     11  H   UNL     1       7.186   3.755  12.849  0.00  0.00    +0.000 HD
ATOM     12  H   UNL     1       7.691   5.333  13.161  0.00  0.00    +0.000 HD
ENDBRANCH   4  10
ENDBRANCH   1   7
BRANCH   1  13
ATOM     13  N   UNL     1       3.695   5.305  18.846  0.00  0.00    +0.000 N 
ATOM     14  H   UNL     1       3.585   5.364  17.830  0.00  0.00    +0.000 HD
BRANCH  13  15
ATOM     15  C   UNL     1       2.641   4.465  19.334  0.00  0.00    +0.000 A 
ATOM     16  C   UNL     1       1.916   3.600  18.550  0.00  0.00    +0.000 A 
ATOM     17  C   UNL     1       0.967   2.866  19.327  0.00  0.00    +0.000 A 
ATOM     18  C   UNL     1       1.015   3.210  20.662  0.00  0.00    +0.000 A 
ATOM     19  S   UNL     1       2.239   4.366  20.980  0.00  0.00    +0.000 S 
ENDBRANCH  13  15
ENDBRANCH   1  13
TORSDOF 4
ENDMDL
MODEL 9
REMARK VINA RESULT:      -6.3      2.108      5.441
REMARK  Name = 
REMARK  4 active torsions:
REMARK  status: ('A' for Active; 'I' for Inactive)
REMARK    1  A    between atoms: N_1  and  C_2
REMARK    2  A    between atoms: C_5  and  S_6
REMARK    3  A    between atoms: S_6  and  N_9
REMARK    4  A    between atoms: N_9  and  C_10
REMARK                            x       y       z     vdW  Elec       q    Type
REMARK                         _______ _______ _______ _____ _____    ______ ____
ROOT
ATOM      1  S   UNL     1       6.184   5.317  18.871  0.00  0.00    +0.000 S 
ATOM      2  O   UNL     1       5.955   6.438  17.986  0.00  0.00    +0.000 OA
ATOM      3  O   UNL     1       6.987   5.439  20.069  0.00  0.00    +0.000 OA
ENDROOT
BRANCH   1   7
ATOM      4  C   UNL     1       2.132   3.669  20.239  0.00  0.00    +0.000 A 
ATOM      5  C   UNL     1       3.217   2.813  20.019  0.00  0.00    +0.000 A 
ATOM      6  C   UNL     1       4.441   3.308  19.562  0.00  0.00    +0.000 A 
ATOM      7  C   UNL     1       4.596   4.681  19.356  0.00  0.00    +0.000 A 
ATOM      8  C   UNL     1       3.546   5.556  19.638  0.00  0.00    +0.000 A 
ATOM      9  C   UNL     1       2.325   5.047  20.092  0.00  0.00    +0.000 A 
BRANCH   4  10
ATOM     10  N   UNL     1       0.961   3.180  20.827  0.00  0.00    +0.000 N 
ATOM     11  H   UNL     1       1.058   2.953  21.813  0.00  0.00    +0.000 HD
ATOM     12  H   UNL     1       0.511   2.436  20.304  0.00  0.00    +0.000 HD
ENDBRANCH   4  10
ENDBRANCH   1   7
BRANCH   1  13
ATOM     13  N   UNL     1       6.765   4.043  17.885  0.00  0.00    +0.000 N 
ATOM     14  H   UNL     1       6.199   3.243  18.179  0.00  0.00    +0.000 HD
BRANCH  13  15
ATOM     15  C   UNL     1       6.481   4.271  16.499  0.00  0.00    +0.000 A 
ATOM     16  C   UNL     1       7.391   4.763  15.594  0.00  0.00    +0.000 A 
ATOM     17  C   UNL     1       6.829   4.837  14.281  0.00  0.00    +0.000 A 
ATOM     18  C   UNL     1       5.521   4.401  14.253  0.00  0.00    +0.000 A 
ATOM     19  S   UNL     1       4.999   3.849  15.788  0.00  0.00    +0.000 S 
ENDBRANCH  13  15
ENDBRANCH   1  13
TORSDOF 4
ENDMDL
