MODEL 1
REMARK VINA RESULT:      -5.2      0.000      0.000
REMARK  Name = 
REMARK  3 active torsions:
REMARK  status: ('A' for Active; 'I' for Inactive)
REMARK    1  A    between atoms: N_1  and  C_2
REMARK    2  A    between atoms: CA_7  and  C_8
REMARK    3  A    between atoms: C_8  and  OXT_10
REMARK                            x       y       z     vdW  Elec       q    Type
REMARK                         _______ _______ _______ _____ _____    ______ ____
ROOT
ATOM      1  C   UNL     1       6.571   5.116  17.017  0.00  0.00    +0.000 A 
ATOM      2  C   UNL     1       5.498   4.398  16.487  0.00  0.00    +0.000 A 
ATOM      3  C   UNL     1       4.602   3.730  17.324  0.00  0.00    +0.000 A 
ATOM      4  C   UNL     1       4.774   3.828  18.696  0.00  0.00    +0.000 A 
ATOM      5  N   UNL     1       5.760   4.545  19.274  0.00  0.00    +0.000 NA
ATOM      6  CA  UNL     1       6.622   5.187  18.419  0.00  0.00    +0.000 A 
ENDROOT
BRANCH   1   7
ATOM      7  N   UNL     1       7.361   5.888  16.155  0.00  0.00    +0.000 N 
ATOM      8  H   UNL     1       8.323   5.586  16.044  0.00  0.00    +0.000 HD
ATOM      9  H   UNL     1       7.277   6.898  16.315  0.00  0.00    +0.000 HD
ENDBRANCH   1   7
BRANCH   6  10
ATOM     10  C   UNL     1       7.682   5.972  19.128  0.00  0.00    +0.000 C 
ATOM     11  O   UNL     1       8.251   6.963  18.698  0.00  0.00    +0.000 OA
BRANCH  10  12
ATOM     12  OXT UNL     1       7.955   5.406  20.333  0.00  0.00    +0.000 OA
ATOM     13  HXT UNL     1       8.934   5.294  20.402  0.00  0.00    +0.000 HD
ENDBRANCH  10  12
ENDBRANCH   6  10
TORSDOF 3
ENDMDL
MODEL 2
REMARK VINA RESULT:      -5.1      4.219      5.351
REMARK  Name = 
REMARK  3 active torsions:
REMARK  status: ('A' for Active; 'I' for Inactive)
REMARK    1  A    between atoms: N_1  and  C_2
REMARK    2  A    between atoms: CA_7  and  C_8
REMARK    3  A    between atoms: C_8  and  OXT_10
REMARK                            x       y       z     vdW  Elec       q    Type
REMARK                         _______ _______ _______ _____ _____    ______ ____
ROOT
ATOM      1  C   UNL     1       2.207   2.849  20.670  0.00  0.00    +0.000 A 
ATOM      2  C   UNL     1       0.917   2.886  20.139  0.00  0.00    +0.000 A 
ATOM      3  C   UNL     1       0.699   2.671  18.776  0.00  0.00    +0.000 A 
ATOM      4  C   UNL     1       1.786   2.378  17.967  0.00  0.00    +0.000 A 
ATOM      5  N   UNL     1       3.051   2.279  18.425  0.00  0.00    +0.000 NA
ATOM      6  CA  UNL     1       3.227   2.497  19.770  0.00  0.00    +0.000 A 
ENDROOT
BRANCH   1   7
ATOM      7  N   UNL     1       2.369   2.927  22.060  0.00  0.00    +0.000 N 
ATOM      8  H   UNL     1       3.111   3.536  22.387  0.00  0.00    +0.000 HD
ATOM      9  H   UNL     1       2.370   2.012  22.524  0.00  0.00    +0.000 HD
ENDBRANCH   1   7
BRANCH   6  10
ATOM     10  C   UNL     1       4.650   2.359  20.211  0.00  0.00    +0.000 C 
ATOM     11  O   UNL     1       5.050   1.695  21.154  0.00  0.00    +0.000 OA
BRANCH  10  12
ATOM     12  OXT UNL     1       5.460   3.111  19.418  0.00  0.00    +0.000 OA
ATOM     13  HXT UNL     1       4.922   3.434  18.654  0.00  0.00    +0.000 HD
ENDBRANCH  10  12
ENDBRANCH   6  10
TORSDOF 3
ENDMDL
MODEL 3
REMARK VINA RESULT:      -5.1      4.405      5.258
REMARK  Name = 
REMARK  3 active torsions:
REMARK  status: ('A' for Active; 'I' for Inactive)
REMARK    1  A    between atoms: N_1  and  C_2
REMARK    2  A    between atoms: CA_7  and  C_8
REMARK    3  A    between atoms: C_8  and  OXT_10
REMARK                            x       y       z     vdW  Elec       q    Type
REMARK                         _______ _______ _______ _____ _____    ______ ____
ROOT
ATOM      1  C   UNL     1       3.795   2.670  19.200  0.00  0.00    +0.000 A 
ATOM      2  C   UNL     1       4.074   3.069  17.892  0.00  0.00    +0.000 A 
ATOM      3  C   UNL     1       3.113   3.733  17.127  0.00  0.00    +0.000 A 
ATOM      4  C   UNL     1       1.888   4.026  17.706  0.00  0.00    +0.000 A 
ATOM      5  N   UNL     1       1.572   3.713  18.980  0.00  0.00    +0.000 NA
ATOM      6  CA  UNL     1       2.542   3.060  19.701  0.00  0.00    +0.000 A 
ENDROOT
BRANCH   1   7
ATOM      7  N   UNL     1       4.830   2.138  19.980  0.00  0.00    +0.000 N 
ATOM      8  H   UNL     1       5.713   2.636  19.946  0.00  0.00    +0.000 HD
ATOM      9  H   UNL     1       4.942   1.123  19.876  0.00  0.00    +0.000 HD
ENDBRANCH   1   7
BRANCH   6  10
ATOM     10  C   UNL     1       2.129   2.755  21.107  0.00  0.00    +0.000 C 
ATOM     11  O   UNL     1       2.874   2.447  22.025  0.00  0.00    +0.000 OA
BRANCH  10  12
ATOM     12  OXT UNL     1       0.778   2.843  21.227  0.00  0.00    +0.000 OA
ATOM     13  HXT UNL     1       0.374   2.406  20.438  0.00  0.00    +0.000 HD
ENDBRANCH  10  12
ENDBRANCH   6  10
TORSDOF 3
ENDMDL
MODEL 4
REMARK VINA RESULT:      -5.0      3.685      4.895
REMARK  Name = 
REMARK  3 active torsions:
REMARK  status: ('A' for Active; 'I' for Inactive)
REMARK    1  A    between atoms: N_1  and  C_2
REMARK    2  A    between atoms: CA_7  and  C_8
REMARK    3  A    between atoms: C_8  and  OXT_10
REMARK                            x       y       z     vdW  Elec       q    Type
REMARK                         _______ _______ _______ _____ _____    ______ ____
ROOT
ATOM      1  C   UNL     1       2.138   2.871  18.615  0.00  0.00    +0.000 A 
ATOM      2  C   UNL     1       1.509   3.993  18.071  0.00  0.00    +0.000 A 
ATOM      3  C   UNL     1       2.206   5.192  17.906  0.00  0.00    +0.000 A 
ATOM      4  C   UNL     1       3.548   5.236  18.253  0.00  0.00    +0.000 A 
ATOM      5  N   UNL     1       4.227   4.176  18.737  0.00  0.00    +0.000 NA
ATOM      6  CA  UNL     1       3.509   3.014  18.887  0.00  0.00    +0.000 A 
ENDROOT
BRANCH   1   7
ATOM      7  N   UNL     1       1.449   1.651  18.632  0.00  0.00    +0.000 N 
ATOM      8  H   UNL     1       1.315   1.230  19.544  0.00  0.00    +0.000 HD
ATOM      9  H   UNL     1       1.784   0.982  17.929  0.00  0.00    +0.000 HD
ENDBRANCH   1   7
BRANCH   6  10
ATOM     10  C   UNL     1       4.327   1.877  19.417  0.00  0.00    +0.000 C 
ATOM     11  O   UNL     1       4.977   1.880  20.450  0.00  0.00    +0.000 OA
BRANCH  10  12
ATOM     12  OXT UNL     1       4.272   0.823  18.560  0.00  0.00    +0.000 OA
ATOM     13  HXT UNL     1       3.470   0.934  17.994  0.00  0.00    +0.000 HD
ENDBRANCH  10  12
ENDBRANCH   6  10
TORSDOF 3
ENDMDL
MODEL 5
REMARK VINA RESULT:      -5.0      0.912      2.377
REMARK  Name = 
REMARK  3 active torsions:
REMARK  status: ('A' for Active; 'I' for Inactive)
REMARK    1  A    between atoms: N_1  and  C_2
REMARK    2  A    between atoms: CA_7  and  C_8
REMARK    3  A    between atoms: C_8  and  OXT_10
REMARK                            x       y       z     vdW  Elec       q    Type
REMARK                         _______ _______ _______ _____ _____    ______ ____
ROOT
ATOM      1  C   UNL     1       5.468   5.106  18.164  0.00  0.00    +0.000 A 
ATOM      2  C   UNL     1       4.851   4.545  17.044  0.00  0.00    +0.000 A 
ATOM      3  C   UNL     1       5.590   4.243  15.898  0.00  0.00    +0.000 A 
ATOM      4  C   UNL     1       6.957   4.471  15.908  0.00  0.00    +0.000 A 
ATOM      5  N   UNL     1       7.622   4.963  16.973  0.00  0.00    +0.000 NA
ATOM      6  CA  UNL     1       6.863   5.250  18.082  0.00  0.00    +0.000 A 
ENDROOT
BRANCH   1   7
ATOM      7  N   UNL     1       4.723   5.260  19.340  0.00  0.00    +0.000 N 
ATOM      8  H   UNL     1       5.259   5.363  20.195  0.00  0.00    +0.000 HD
ATOM      9  H   UNL     1       3.955   4.587  19.430  0.00  0.00    +0.000 HD
ENDBRANCH   1   7
BRANCH   6  10
ATOM     10  C   UNL     1       7.667   5.780  19.228  0.00  0.00    +0.000 C 
ATOM     11  O   UNL     1       7.727   5.298  20.348  0.00  0.00    +0.000 OA
BRANCH  10  12
ATOM     12  OXT UNL     1       8.318   6.914  18.856  0.00  0.00    +0.000 OA
ATOM     13  HXT UNL     1       8.591   7.391  19.678  0.00  0.00    +0.000 HD
ENDBRANCH  10  12
ENDBRANCH   6  10
TORSDOF 3
ENDMDL
MODEL 6
REMARK VINA RESULT:      -4.9      1.026      2.634
REMARK  Name = 
REMARK  3 active torsions:
REMARK  status: ('A' for Active; 'I' for Inactive)
REMARK    1  A    between atoms: N_1  and  C_2
REMARK    2  A    between atoms: CA_7  and  C_8
REMARK    3  A    between atoms: C_8  and  OXT_10
REMARK                            x       y       z     vdW  Elec       q    Type
REMARK                         _______ _______ _______ _____ _____    ______ ____
ROOT
ATOM      1  C   UNL     1       5.920   4.373  17.509  0.00  0.00    +0.000 A 
ATOM      2  C   UNL     1       5.373   3.813  16.352  0.00  0.00    +0.000 A 
ATOM      3  C   UNL     1       5.807   4.219  15.089  0.00  0.00    +0.000 A 
ATOM      4  C   UNL     1       6.822   5.160  15.004  0.00  0.00    +0.000 A 
ATOM      5  N   UNL     1       7.427   5.702  16.080  0.00  0.00    +0.000 NA
ATOM      6  CA  UNL     1       6.973   5.280  17.307  0.00  0.00    +0.000 A 
ENDROOT
BRANCH   1   7
ATOM      7  N   UNL     1       5.562   3.837  18.753  0.00  0.00    +0.000 N 
ATOM      8  H   UNL     1       5.105   2.933  18.732  0.00  0.00    +0.000 HD
ATOM      9  H   UNL     1       5.089   4.509  19.368  0.00  0.00    +0.000 HD
ENDBRANCH   1   7
BRANCH   6  10
ATOM     10  C   UNL     1       7.696   5.913  18.455  0.00  0.00    +0.000 C 
ATOM     11  O   UNL     1       8.029   5.357  19.489  0.00  0.00    +0.000 OA
BRANCH  10  12
ATOM     12  OXT UNL     1       7.916   7.230  18.199  0.00  0.00    +0.000 OA
ATOM     13  HXT UNL     1       8.463   7.293  17.379  0.00  0.00    +0.000 HD
ENDBRANCH  10  12
ENDBRANCH   6  10
TORSDOF 3
ENDMDL
MODEL 7
REMARK VINA RESULT:      -4.9      3.438      4.619
REMARK  Name = 
REMARK  3 active torsions:
REMARK  status: ('A' for Active; 'I' for Inactive)
REMARK    1  A    between atoms: N_1  and  C_2
REMARK    2  A    between atoms: CA_7  and  C_8
REMARK    3  A    between atoms: C_8  and  OXT_10
REMARK                            x       y       z     vdW  Elec       q    Type
REMARK                         _______ _______ _______ _____ _____    ______ ____
ROOT
ATOM      1  C   UNL     1       2.296   2.711  18.898  0.00  0.00    +0.000 A 
ATOM      2  C   UNL     1       1.138   2.889  19.658  0.00  0.00    +0.000 A 
ATOM      3  C   UNL     1       1.045   3.931  20.583  0.00  0.00    +0.000 A 
ATOM      4  C   UNL     1       2.109   4.812  20.703  0.00  0.00    +0.000 A 
ATOM      5  N   UNL     1       3.235   4.725  19.965  0.00  0.00    +0.000 NA
ATOM      6  CA  UNL     1       3.291   3.687  19.066  0.00  0.00    +0.000 A 
ENDROOT
BRANCH   1   7
ATOM      7  N   UNL     1       2.295   1.745  17.882  0.00  0.00    +0.000 N 
ATOM      8  H   UNL     1       3.075   1.096  17.886  0.00  0.00    +0.000 HD
ATOM      9  H   UNL     1       2.103   2.130  16.951  0.00  0.00    +0.000 HD
ENDBRANCH   1   7
BRANCH   6  10
ATOM     10  C   UNL     1       4.561   3.659  18.274  0.00  0.00    +0.000 C 
ATOM     11  O   UNL     1       4.649   3.669  17.056  0.00  0.00    +0.000 OA
BRANCH  10  12
ATOM     12  OXT UNL     1       5.631   3.592  19.110  0.00  0.00    +0.000 OA
ATOM     13  HXT UNL     1       5.295   3.412  20.021  0.00  0.00    +0.000 HD
ENDBRANCH  10  12
ENDBRANCH   6  10
TORSDOF 3
ENDMDL
MODEL 8
REMARK VINA RESULT:      -4.9      3.307      4.485
REMARK  Name = 
REMARK  3 active torsions:
REMARK  status: ('A' for Active; 'I' for Inactive)
REMARK    1  A    between atoms: N_1  and  C_2
REMARK    2  A    between atoms: CA_7  and  C_8
REMARK    3  A    between atoms: C_8  and  OXT_10
REMARK                            x       y       z     vdW  Elec       q    Type
REMARK                         _______ _______ _______ _____ _____    ______ ____
ROOT
ATOM      1  C   UNL     1       2.290   4.581  20.076  0.00  0.00    +0.000 A 
ATOM      2  C   UNL     1       1.029   3.989  20.164  0.00  0.00    +0.000 A 
ATOM      3  C   UNL     1       0.770   2.766  19.541  0.00  0.00    +0.000 A 
ATOM      4  C   UNL     1       1.801   2.130  18.868  0.00  0.00    +0.000 A 
ATOM      5  N   UNL     1       3.053   2.624  18.787  0.00  0.00    +0.000 NA
ATOM      6  CA  UNL     1       3.271   3.828  19.411  0.00  0.00    +0.000 A 
ENDROOT
BRANCH   1   7
ATOM      7  N   UNL     1       2.550   5.732  20.831  0.00  0.00    +0.000 N 
ATOM      8  H   UNL     1       3.528   5.928  21.019  0.00  0.00    +0.000 HD
ATOM      9  H   UNL     1       1.960   5.818  21.666  0.00  0.00    +0.000 HD
ENDBRANCH   1   7
BRANCH   6  10
ATOM     10  C   UNL     1       4.683   4.310  19.291  0.00  0.00    +0.000 C 
ATOM     11  O   UNL     1       5.058   5.469  19.378  0.00  0.00    +0.000 OA
BRANCH  10  12
ATOM     12  OXT UNL     1       5.514   3.264  19.039  0.00  0.00    +0.000 OA
ATOM     13  HXT UNL     1       6.402   3.629  18.806  0.00  0.00    +0.000 HD
ENDBRANCH  10  12
ENDBRANCH   6  10
TORSDOF 3
ENDMDL
MODEL 9
REMARK VINA RESULT:      -4.9      2.158      2.363
REMARK  Name = 
REMARK  3 active torsions:
REMARK  status: ('A' for Active; 'I' for Inactive)
REMARK    1  A    between atoms: N_1  and  C_2
REMARK    2  A    between atoms: CA_7  and  C_8
REMARK    3  A    between atoms: C_8  and  OXT_10
REMARK                            x       y       z     vdW  Elec       q    Type
REMARK                         _______ _______ _______ _____ _____    ______ ____
ROOT
ATOM      1  C   UNL     1       5.092   6.009  16.779  0.00  0.00    +0.000 A 
ATOM      2  C   UNL     1       3.958   6.444  17.469  0.00  0.00    +0.000 A 
ATOM      3  C   UNL     1       3.679   5.971  18.752  0.00  0.00    +0.000 A 
ATOM      4  C   UNL     1       4.570   5.091  19.347  0.00  0.00    +0.000 A 
ATOM      5  N   UNL     1       5.707   4.670  18.755  0.00  0.00    +0.000 NA
ATOM      6  CA  UNL     1       5.949   5.156  17.493  0.00  0.00    +0.000 A 
ENDROOT
BRANCH   1   7
ATOM      7  N   UNL     1       5.413   6.614  15.556  0.00  0.00    +0.000 N 
ATOM      8  H   UNL     1       4.628   6.864  14.965  0.00  0.00    +0.000 HD
ATOM      9  H   UNL     1       6.159   6.131  15.043  0.00  0.00    +0.000 HD
ENDBRANCH   1   7
BRANCH   6  10
ATOM     10  C   UNL     1       7.231   4.657  16.903  0.00  0.00    +0.000 C 
ATOM     11  O   UNL     1       7.566   4.746  15.732  0.00  0.00    +0.000 OA
BRANCH  10  12
ATOM     12  OXT UNL     1       7.982   4.053  17.861  0.00  0.00    +0.000 OA
ATOM     13  HXT UNL     1       7.445   3.323  18.254  0.00  0.00    +0.000 HD
ENDBRANCH  10  12
ENDBRANCH   6  10
TORSDOF 3
ENDMDL
