MODEL 1
REMARK VINA RESULT:      -7.1      0.000      0.000
REMARK  Name = 
REMARK  4 active torsions:
REMARK  status: ('A' for Active; 'I' for Inactive)
REMARK    1  A    between atoms: C_1  and  S_2
REMARK    2  A    between atoms: S_2  and  N_5
REMARK    3  A    between atoms: N_11  and  C_12
REMARK    4  A    between atoms: C_12  and  C_13
REMARK                            x       y       z     vdW  Elec       q    Type
REMARK                         _______ _______ _______ _____ _____    ______ ____
ROOT
ATOM      1  N   UNL     1       2.676   4.804  18.960  0.00  0.00    +0.000 NA
ATOM      2  C   UNL     1       2.093   6.337  19.167  0.00  0.00    +0.000 C 
ATOM      3  C   UNL     1       2.324   7.256  17.971  0.00  0.00    +0.000 C 
ATOM      4  O   UNL     1       3.682   7.625  17.842  0.00  0.00    +0.000 OA
ATOM      5  C   UNL     1       4.677   6.606  17.867  0.00  0.00    +0.000 C 
ATOM      6  C   UNL     1       4.678   5.626  16.678  0.00  0.00    +0.000 C 
ATOM      7  N   UNL     1       5.879   4.756  16.684  0.00  0.00    +0.000 NA
ATOM      8  C   UNL     1       6.189   4.192  18.009  0.00  0.00    +0.000 C 
ATOM      9  C   UNL     1       6.223   5.212  19.154  0.00  0.00    +0.000 C 
ATOM     10  C   UNL     1       4.884   5.912  19.245  0.00  0.00    +0.000 C 
ATOM     11  C   UNL     1       3.900   4.842  19.778  0.00  0.00    +0.000 C 
ENDROOT
BRANCH   1  13
ATOM     12  C   UNL     1       3.499   1.599  18.527  0.00  0.00    +0.000 C 
ATOM     13  S   UNL     1       2.270   3.074  18.323  0.00  0.00    +0.000 S 
ATOM     14  O   UNL     1       2.138   3.207  16.882  0.00  0.00    +0.000 OA
ATOM     15  O   UNL     1       1.134   2.685  19.108  0.00  0.00    +0.000 OA
ENDBRANCH   1  13
BRANCH   7  16
ATOM     16  C   UNL     1       5.744   3.665  15.682  0.00  0.00    +0.000 C 
BRANCH  16  17
ATOM     17  C   UNL     1       6.374   4.005  14.343  0.00  0.00    +0.000 A 
ATOM     18  C   UNL     1       7.389   4.971  14.240  0.00  0.00    +0.000 A 
ATOM     19  C   UNL     1       7.803   5.435  12.990  0.00  0.00    +0.000 A 
ATOM     20  C   UNL     1       7.267   4.870  11.841  0.00  0.00    +0.000 A 
ATOM     21  F   UNL     1       7.649   5.330  10.641  0.00  0.00    +0.000 F 
ATOM     22  C   UNL     1       6.340   3.838  11.919  0.00  0.00    +0.000 A 
ATOM     23  C   UNL     1       5.881   3.412  13.167  0.00  0.00    +0.000 A 
ENDBRANCH  16  17
ENDBRANCH   7  16
TORSDOF 3
ENDMDL
MODEL 2
REMARK VINA RESULT:      -7.1      4.260      7.240
REMARK  Name = 
REMARK  4 active torsions:
REMARK  status: ('A' for Active; 'I' for Inactive)
REMARK    1  A    between atoms: C_1  and  S_2
REMARK    2  A    between atoms: S_2  and  N_5
REMARK    3  A    between atoms: N_11  and  C_12
REMARK    4  A    between atoms: C_12  and  C_13
REMARK                            x       y       z     vdW  Elec       q    Type
REMARK                         _______ _______ _______ _____ _____    ______ ____
ROOT
ATOM      1  N   UNL     1       4.540   3.429  18.620  0.00  0.00    +0.000 NA
ATOM      2  C   UNL     1       3.840   2.130  17.873  0.00  0.00    +0.000 C 
ATOM      3  C   UNL     1       2.640   2.489  17.002  0.00  0.00    +0.000 C 
ATOM      4  O   UNL     1       1.512   2.845  17.775  0.00  0.00    +0.000 OA
ATOM      5  C   UNL     1       1.665   3.814  18.808  0.00  0.00    +0.000 C 
ATOM      6  C   UNL     1       1.989   5.249  18.352  0.00  0.00    +0.000 C 
ATOM      7  N   UNL     1       1.903   6.216  19.474  0.00  0.00    +0.000 NA
ATOM      8  C   UNL     1       2.562   5.746  20.705  0.00  0.00    +0.000 C 
ATOM      9  C   UNL     1       2.174   4.329  21.146  0.00  0.00    +0.000 C 
ATOM     10  C   UNL     1       2.498   3.350  20.039  0.00  0.00    +0.000 C 
ATOM     11  C   UNL     1       4.044   3.277  19.998  0.00  0.00    +0.000 C 
ENDROOT
BRANCH   1  13
ATOM     12  C   UNL     1       7.501   4.502  17.518  0.00  0.00    +0.000 C 
ATOM     13  S   UNL     1       5.836   4.791  18.451  0.00  0.00    +0.000 S 
ATOM     14  O   UNL     1       6.258   5.102  19.807  0.00  0.00    +0.000 OA
ATOM     15  O   UNL     1       5.173   5.792  17.667  0.00  0.00    +0.000 OA
ENDBRANCH   1  13
BRANCH   7  16
ATOM     16  C   UNL     1       2.451   7.539  19.073  0.00  0.00    +0.000 C 
BRANCH  16  17
ATOM     17  C   UNL     1       1.470   8.678  19.283  0.00  0.00    +0.000 A 
ATOM     18  C   UNL     1       0.959   8.973  20.559  0.00  0.00    +0.000 A 
ATOM     19  C   UNL     1      -0.101   9.869  20.709  0.00  0.00    +0.000 A 
ATOM     20  C   UNL     1      -0.593  10.537  19.596  0.00  0.00    +0.000 A 
ATOM     21  F   UNL     1      -1.625  11.380  19.736  0.00  0.00    +0.000 F 
ATOM     22  C   UNL     1      -0.031  10.341  18.341  0.00  0.00    +0.000 A 
ATOM     23  C   UNL     1       0.992   9.403  18.178  0.00  0.00    +0.000 A 
ENDBRANCH  16  17
ENDBRANCH   7  16
TORSDOF 3
ENDMDL
MODEL 3
REMARK VINA RESULT:      -7.0      4.390      7.597
REMARK  Name = 
REMARK  4 active torsions:
REMARK  status: ('A' for Active; 'I' for Inactive)
REMARK    1  A    between atoms: C_1  and  S_2
REMARK    2  A    between atoms: S_2  and  N_5
REMARK    3  A    between atoms: N_11  and  C_12
REMARK    4  A    between atoms: C_12  and  C_13
REMARK                            x       y       z     vdW  Elec       q    Type
REMARK                         _______ _______ _______ _____ _____    ______ ____
ROOT
ATOM      1  N   UNL     1       4.443   3.270  18.683  0.00  0.00    +0.000 NA
ATOM      2  C   UNL     1       3.722   2.044  17.840  0.00  0.00    +0.000 C 
ATOM      3  C   UNL     1       2.457   2.463  17.097  0.00  0.00    +0.000 C 
ATOM      4  O   UNL     1       1.378   2.697  17.979  0.00  0.00    +0.000 OA
ATOM      5  C   UNL     1       1.581   3.548  19.104  0.00  0.00    +0.000 C 
ATOM      6  C   UNL     1       1.842   5.034  18.794  0.00  0.00    +0.000 C 
ATOM      7  N   UNL     1       1.813   5.865  20.023  0.00  0.00    +0.000 NA
ATOM      8  C   UNL     1       2.566   5.279  21.145  0.00  0.00    +0.000 C 
ATOM      9  C   UNL     1       2.239   3.811  21.446  0.00  0.00    +0.000 C 
ATOM     10  C   UNL     1       2.507   2.972  20.215  0.00  0.00    +0.000 C 
ATOM     11  C   UNL     1       4.048   2.949  20.064  0.00  0.00    +0.000 C 
ENDROOT
BRANCH   1  13
ATOM     12  C   UNL     1       7.294   4.549  17.510  0.00  0.00    +0.000 C 
ATOM     13  S   UNL     1       5.695   4.679  18.585  0.00  0.00    +0.000 S 
ATOM     14  O   UNL     1       6.209   4.843  19.935  0.00  0.00    +0.000 OA
ATOM     15  O   UNL     1       4.956   5.745  17.972  0.00  0.00    +0.000 OA
ENDBRANCH   1  13
BRANCH   7  16
ATOM     16  C   UNL     1       2.304   7.240  19.740  0.00  0.00    +0.000 C 
BRANCH  16  17
ATOM     17  C   UNL     1       1.323   8.320  20.159  0.00  0.00    +0.000 A 
ATOM     18  C   UNL     1       1.052   9.420  19.327  0.00  0.00    +0.000 A 
ATOM     19  C   UNL     1       0.328  10.513  19.808  0.00  0.00    +0.000 A 
ATOM     20  C   UNL     1      -0.202  10.469  21.090  0.00  0.00    +0.000 A 
ATOM     21  F   UNL     1      -0.879  11.526  21.560  0.00  0.00    +0.000 F 
ATOM     22  C   UNL     1      -0.037   9.347  21.892  0.00  0.00    +0.000 A 
ATOM     23  C   UNL     1       0.735   8.276  21.435  0.00  0.00    +0.000 A 
ENDBRANCH  16  17
ENDBRANCH   7  16
TORSDOF 3
ENDMDL
MODEL 4
REMARK VINA RESULT:      -6.7      0.265      1.041
REMARK  Name = 
REMARK  4 active torsions:
REMARK  status: ('A' for Active; 'I' for Inactive)
REMARK    1  A    between atoms: C_1  and  S_2
REMARK    2  A    between atoms: S_2  and  N_5
REMARK    3  A    between atoms: N_11  and  C_12
REMARK    4  A    between atoms: C_12  and  C_13
REMARK                            x       y       z     vdW  Elec       q    Type
REMARK                         _______ _______ _______ _____ _____    ______ ____
ROOT
ATOM      1  N   UNL     1       2.567   4.962  19.011  0.00  0.00    +0.000 NA
ATOM      2  C   UNL     1       2.037   6.519  19.182  0.00  0.00    +0.000 C 
ATOM      3  C   UNL     1       2.325   7.408  17.975  0.00  0.00    +0.000 C 
ATOM      4  O   UNL     1       3.698   7.726  17.867  0.00  0.00    +0.000 OA
ATOM      5  C   UNL     1       4.654   6.671  17.929  0.00  0.00    +0.000 C 
ATOM      6  C   UNL     1       4.641   5.672  16.757  0.00  0.00    +0.000 C 
ATOM      7  N   UNL     1       5.810   4.759  16.800  0.00  0.00    +0.000 NA
ATOM      8  C   UNL     1       6.073   4.207  18.140  0.00  0.00    +0.000 C 
ATOM      9  C   UNL     1       6.122   5.244  19.269  0.00  0.00    +0.000 C 
ATOM     10  C   UNL     1       4.809   5.994  19.322  0.00  0.00    +0.000 C 
ATOM     11  C   UNL     1       3.775   4.970  19.852  0.00  0.00    +0.000 C 
ENDROOT
BRANCH   1  13
ATOM     12  C   UNL     1       3.342   1.756  18.509  0.00  0.00    +0.000 C 
ATOM     13  S   UNL     1       2.110   3.238  18.395  0.00  0.00    +0.000 S 
ATOM     14  O   UNL     1       1.882   3.378  16.966  0.00  0.00    +0.000 OA
ATOM     15  O   UNL     1       1.027   2.850  19.252  0.00  0.00    +0.000 OA
ENDBRANCH   1  13
BRANCH   7  16
ATOM     16  C   UNL     1       5.654   3.657  15.814  0.00  0.00    +0.000 C 
BRANCH  16  17
ATOM     17  C   UNL     1       6.089   4.045  14.412  0.00  0.00    +0.000 A 
ATOM     18  C   UNL     1       5.516   3.442  13.279  0.00  0.00    +0.000 A 
ATOM     19  C   UNL     1       6.073   3.640  12.013  0.00  0.00    +0.000 A 
ATOM     20  C   UNL     1       7.144   4.509  11.867  0.00  0.00    +0.000 A 
ATOM     21  F   UNL     1       7.692   4.682  10.656  0.00  0.00    +0.000 F 
ATOM     22  C   UNL     1       7.657   5.199  12.958  0.00  0.00    +0.000 A 
ATOM     23  C   UNL     1       7.141   4.961  14.234  0.00  0.00    +0.000 A 
ENDBRANCH  16  17
ENDBRANCH   7  16
TORSDOF 3
ENDMDL
MODEL 5
REMARK VINA RESULT:      -6.7      2.108      2.970
REMARK  Name = 
REMARK  4 active torsions:
REMARK  status: ('A' for Active; 'I' for Inactive)
REMARK    1  A    between atoms: C_1  and  S_2
REMARK    2  A    between atoms: S_2  and  N_5
REMARK    3  A    between atoms: N_11  and  C_12
REMARK    4  A    between atoms: C_12  and  C_13
REMARK                            x       y       z     vdW  Elec       q    Type
REMARK                         _______ _______ _______ _____ _____    ______ ____
ROOT
ATOM      1  N   UNL     1       2.713   3.091  20.089  0.00  0.00    +0.000 NA
ATOM      2  C   UNL     1       1.072   2.910  19.997  0.00  0.00    +0.000 C 
ATOM      3  C   UNL     1       0.561   2.600  18.594  0.00  0.00    +0.000 C 
ATOM      4  O   UNL     1       0.638   3.724  17.741  0.00  0.00    +0.000 OA
ATOM      5  C   UNL     1       1.866   4.442  17.660  0.00  0.00    +0.000 C 
ATOM      6  C   UNL     1       3.050   3.693  17.021  0.00  0.00    +0.000 C 
ATOM      7  N   UNL     1       4.204   4.594  16.778  0.00  0.00    +0.000 NA
ATOM      8  C   UNL     1       4.512   5.474  17.918  0.00  0.00    +0.000 C 
ATOM      9  C   UNL     1       3.310   6.235  18.492  0.00  0.00    +0.000 C 
ATOM     10  C   UNL     1       2.253   5.246  18.935  0.00  0.00    +0.000 C 
ATOM     11  C   UNL     1       2.842   4.555  20.190  0.00  0.00    +0.000 C 
ENDROOT
BRANCH   1  13
ATOM     12  C   UNL     1       4.815   0.611  19.340  0.00  0.00    +0.000 C 
ATOM     13  S   UNL     1       4.351   2.190  20.348  0.00  0.00    +0.000 S 
ATOM     14  O   UNL     1       4.328   1.719  21.723  0.00  0.00    +0.000 OA
ATOM     15  O   UNL     1       5.334   3.155  19.945  0.00  0.00    +0.000 OA
ENDBRANCH   1  13
BRANCH   7  16
ATOM     16  C   UNL     1       5.410   3.813  16.393  0.00  0.00    +0.000 C 
BRANCH  16  17
ATOM     17  C   UNL     1       5.896   4.122  14.988  0.00  0.00    +0.000 A 
ATOM     18  C   UNL     1       5.295   3.531  13.863  0.00  0.00    +0.000 A 
ATOM     19  C   UNL     1       5.884   3.644  12.603  0.00  0.00    +0.000 A 
ATOM     20  C   UNL     1       7.024   4.420  12.449  0.00  0.00    +0.000 A 
ATOM     21  F   UNL     1       7.603   4.511  11.243  0.00  0.00    +0.000 F 
ATOM     22  C   UNL     1       7.575   5.100  13.528  0.00  0.00    +0.000 A 
ATOM     23  C   UNL     1       7.022   4.944  14.801  0.00  0.00    +0.000 A 
ENDBRANCH  16  17
ENDBRANCH   7  16
TORSDOF 3
ENDMDL
MODEL 6
REMARK VINA RESULT:      -6.7      4.134      6.913
REMARK  Name = 
REMARK  4 active torsions:
REMARK  status: ('A' for Active; 'I' for Inactive)
REMARK    1  A    between atoms: C_1  and  S_2
REMARK    2  A    between atoms: S_2  and  N_5
REMARK    3  A    between atoms: N_11  and  C_12
REMARK    4  A    between atoms: C_12  and  C_13
REMARK                            x       y       z     vdW  Elec       q    Type
REMARK                         _______ _______ _______ _____ _____    ______ ____
ROOT
ATOM      1  N   UNL     1       4.466   3.874  18.727  0.00  0.00    +0.000 NA
ATOM      2  C   UNL     1       3.767   2.459  18.232  0.00  0.00    +0.000 C 
ATOM      3  C   UNL     1       2.690   2.638  17.167  0.00  0.00    +0.000 C 
ATOM      4  O   UNL     1       1.512   3.212  17.696  0.00  0.00    +0.000 OA
ATOM      5  C   UNL     1       1.618   4.397  18.480  0.00  0.00    +0.000 C 
ATOM      6  C   UNL     1       2.078   5.666  17.738  0.00  0.00    +0.000 C 
ATOM      7  N   UNL     1       1.936   6.878  18.580  0.00  0.00    +0.000 NA
ATOM      8  C   UNL     1       2.431   6.698  19.956  0.00  0.00    +0.000 C 
ATOM      9  C   UNL     1       1.909   5.445  20.672  0.00  0.00    +0.000 C 
ATOM     10  C   UNL     1       2.285   4.215  19.875  0.00  0.00    +0.000 C 
ATOM     11  C   UNL     1       3.820   4.079  20.034  0.00  0.00    +0.000 C 
ENDROOT
BRANCH   1  13
ATOM     12  C   UNL     1       7.489   4.583  17.505  0.00  0.00    +0.000 C 
ATOM     13  S   UNL     1       5.856   5.106  18.393  0.00  0.00    +0.000 S 
ATOM     14  O   UNL     1       6.310   5.551  19.700  0.00  0.00    +0.000 OA
ATOM     15  O   UNL     1       5.261   6.048  17.489  0.00  0.00    +0.000 OA
ENDBRANCH   1  13
BRANCH   7  16
ATOM     16  C   UNL     1       2.606   8.043  17.944  0.00  0.00    +0.000 C 
BRANCH  16  17
ATOM     17  C   UNL     1       1.806   9.328  18.062  0.00  0.00    +0.000 A 
ATOM     18  C   UNL     1       2.444  10.577  18.158  0.00  0.00    +0.000 A 
ATOM     19  C   UNL     1       1.716  11.722  18.488  0.00  0.00    +0.000 A 
ATOM     20  C   UNL     1       0.339  11.637  18.634  0.00  0.00    +0.000 A 
ATOM     21  F   UNL     1      -0.357  12.731  18.972  0.00  0.00    +0.000 F 
ATOM     22  C   UNL     1      -0.326  10.433  18.438  0.00  0.00    +0.000 A 
ATOM     23  C   UNL     1       0.405   9.274  18.164  0.00  0.00    +0.000 A 
ENDBRANCH  16  17
ENDBRANCH   7  16
TORSDOF 3
ENDMDL
MODEL 7
REMARK VINA RESULT:      -6.6      4.318      7.292
REMARK  Name = 
REMARK  4 active torsions:
REMARK  status: ('A' for Active; 'I' for Inactive)
REMARK    1  A    between atoms: C_1  and  S_2
REMARK    2  A    between atoms: S_2  and  N_5
REMARK    3  A    between atoms: N_11  and  C_12
REMARK    4  A    between atoms: C_12  and  C_13
REMARK                            x       y       z     vdW  Elec       q    Type
REMARK                         _______ _______ _______ _____ _____    ______ ____
ROOT
ATOM      1  N   UNL     1       4.573   3.431  18.670  0.00  0.00    +0.000 NA
ATOM      2  C   UNL     1       3.892   2.121  17.926  0.00  0.00    +0.000 C 
ATOM      3  C   UNL     1       2.688   2.461  17.052  0.00  0.00    +0.000 C 
ATOM      4  O   UNL     1       1.555   2.805  17.823  0.00  0.00    +0.000 OA
ATOM      5  C   UNL     1       1.694   3.778  18.854  0.00  0.00    +0.000 C 
ATOM      6  C   UNL     1       1.999   5.216  18.395  0.00  0.00    +0.000 C 
ATOM      7  N   UNL     1       1.899   6.184  19.514  0.00  0.00    +0.000 NA
ATOM      8  C   UNL     1       2.562   5.727  20.747  0.00  0.00    +0.000 C 
ATOM      9  C   UNL     1       2.192   4.305  21.191  0.00  0.00    +0.000 C 
ATOM     10  C   UNL     1       2.531   3.328  20.087  0.00  0.00    +0.000 C 
ATOM     11  C   UNL     1       4.078   3.275  20.048  0.00  0.00    +0.000 C 
ENDROOT
BRANCH   1  13
ATOM     12  C   UNL     1       5.610   6.275  17.268  0.00  0.00    +0.000 C 
ATOM     13  S   UNL     1       5.852   4.809  18.500  0.00  0.00    +0.000 S 
ATOM     14  O   UNL     1       7.064   4.164  18.024  0.00  0.00    +0.000 OA
ATOM     15  O   UNL     1       5.842   5.439  19.788  0.00  0.00    +0.000 OA
ENDBRANCH   1  13
BRANCH   7  16
ATOM     16  C   UNL     1       2.430   7.513  19.111  0.00  0.00    +0.000 C 
BRANCH  16  17
ATOM     17  C   UNL     1       1.447   8.645  19.350  0.00  0.00    +0.000 A 
ATOM     18  C   UNL     1       1.093   9.533  18.318  0.00  0.00    +0.000 A 
ATOM     19  C   UNL     1       0.369  10.693  18.598  0.00  0.00    +0.000 A 
ATOM     20  C   UNL     1      -0.077  10.924  19.892  0.00  0.00    +0.000 A 
ATOM     21  F   UNL     1      -0.753  12.049  20.165  0.00  0.00    +0.000 F 
ATOM     22  C   UNL     1       0.170  10.007  20.906  0.00  0.00    +0.000 A 
ATOM     23  C   UNL     1       0.942   8.873  20.642  0.00  0.00    +0.000 A 
ENDBRANCH  16  17
ENDBRANCH   7  16
TORSDOF 3
ENDMDL
MODEL 8
REMARK VINA RESULT:      -6.5      3.431      4.538
REMARK  Name = 
REMARK  4 active torsions:
REMARK  status: ('A' for Active; 'I' for Inactive)
REMARK    1  A    between atoms: C_1  and  S_2
REMARK    2  A    between atoms: S_2  and  N_5
REMARK    3  A    between atoms: N_11  and  C_12
REMARK    4  A    between atoms: C_12  and  C_13
REMARK                            x       y       z     vdW  Elec       q    Type
REMARK                         _______ _______ _______ _____ _____    ______ ____
ROOT
ATOM      1  N   UNL     1       2.709   2.579  20.149  0.00  0.00    +0.000 NA
ATOM      2  C   UNL     1       1.124   2.136  19.994  0.00  0.00    +0.000 C 
ATOM      3  C   UNL     1       0.612   2.161  18.557  0.00  0.00    +0.000 C 
ATOM      4  O   UNL     1       0.449   3.479  18.075  0.00  0.00    +0.000 OA
ATOM      5  C   UNL     1       1.526   4.402  18.220  0.00  0.00    +0.000 C 
ATOM      6  C   UNL     1       2.793   4.101  17.399  0.00  0.00    +0.000 C 
ATOM      7  N   UNL     1       3.756   5.229  17.442  0.00  0.00    +0.000 NA
ATOM      8  C   UNL     1       3.956   5.779  18.794  0.00  0.00    +0.000 C 
ATOM      9  C   UNL     1       2.665   6.106  19.556  0.00  0.00    +0.000 C 
ATOM     10  C   UNL     1       1.822   4.855  19.679  0.00  0.00    +0.000 C 
ATOM     11  C   UNL     1       2.581   3.948  20.678  0.00  0.00    +0.000 C 
ENDROOT
BRANCH   1  13
ATOM     12  C   UNL     1       5.247   1.018  21.652  0.00  0.00    +0.000 C 
ATOM     13  S   UNL     1       4.491   1.958  20.144  0.00  0.00    +0.000 S 
ATOM     14  O   UNL     1       5.322   3.146  20.037  0.00  0.00    +0.000 OA
ATOM     15  O   UNL     1       4.506   0.985  19.091  0.00  0.00    +0.000 OA
ENDBRANCH   1  13
BRANCH   7  16
ATOM     16  C   UNL     1       5.063   4.829  16.854  0.00  0.00    +0.000 C 
BRANCH  16  17
ATOM     17  C   UNL     1       6.217   5.695  17.324  0.00  0.00    +0.000 A 
ATOM     18  C   UNL     1       7.116   5.241  18.305  0.00  0.00    +0.000 A 
ATOM     19  C   UNL     1       8.033   6.118  18.888  0.00  0.00    +0.000 A 
ATOM     20  C   UNL     1       8.113   7.426  18.429  0.00  0.00    +0.000 A 
ATOM     21  F   UNL     1       8.978   8.274  19.004  0.00  0.00    +0.000 F 
ATOM     22  C   UNL     1       7.307   7.867  17.387  0.00  0.00    +0.000 A 
ATOM     23  C   UNL     1       6.350   7.009  16.840  0.00  0.00    +0.000 A 
ENDBRANCH  16  17
ENDBRANCH   7  16
TORSDOF 3
ENDMDL
MODEL 9
REMARK VINA RESULT:      -6.4      4.078      6.989
REMARK  Name = 
REMARK  4 active torsions:
REMARK  status: ('A' for Active; 'I' for Inactive)
REMARK    1  A    between atoms: C_1  and  S_2
REMARK    2  A    between atoms: S_2  and  N_5
REMARK    3  A    between atoms: N_11  and  C_12
REMARK    4  A    between atoms: C_12  and  C_13
REMARK                            x       y       z     vdW  Elec       q    Type
REMARK                         _______ _______ _______ _____ _____    ______ ____
ROOT
ATOM      1  N   UNL     1       4.494   3.667  18.856  0.00  0.00    +0.000 NA
ATOM      2  C   UNL     1       3.824   2.237  18.364  0.00  0.00    +0.000 C 
ATOM      3  C   UNL     1       2.733   2.394  17.309  0.00  0.00    +0.000 C 
ATOM      4  O   UNL     1       1.547   2.940  17.851  0.00  0.00    +0.000 OA
ATOM      5  C   UNL     1       1.633   4.125  18.637  0.00  0.00    +0.000 C 
ATOM      6  C   UNL     1       2.057   5.405  17.893  0.00  0.00    +0.000 C 
ATOM      7  N   UNL     1       1.895   6.613  18.741  0.00  0.00    +0.000 NA
ATOM      8  C   UNL     1       2.407   6.441  20.111  0.00  0.00    +0.000 C 
ATOM      9  C   UNL     1       1.921   5.175  20.829  0.00  0.00    +0.000 C 
ATOM     10  C   UNL     1       2.318   3.956  20.025  0.00  0.00    +0.000 C 
ATOM     11  C   UNL     1       3.856   3.854  20.169  0.00  0.00    +0.000 C 
ENDROOT
BRANCH   1  13
ATOM     12  C   UNL     1       7.350   4.529  17.361  0.00  0.00    +0.000 C 
ATOM     13  S   UNL     1       5.853   4.931  18.512  0.00  0.00    +0.000 S 
ATOM     14  O   UNL     1       6.477   5.197  19.798  0.00  0.00    +0.000 OA
ATOM     15  O   UNL     1       5.166   5.986  17.825  0.00  0.00    +0.000 OA
ENDBRANCH   1  13
BRANCH   7  16
ATOM     16  C   UNL     1       2.532   7.794  18.101  0.00  0.00    +0.000 C 
BRANCH  16  17
ATOM     17  C   UNL     1       1.898   9.110  18.515  0.00  0.00    +0.000 A 
ATOM     18  C   UNL     1       0.761   9.142  19.341  0.00  0.00    +0.000 A 
ATOM     19  C   UNL     1       0.057  10.333  19.533  0.00  0.00    +0.000 A 
ATOM     20  C   UNL     1       0.538  11.508  18.973  0.00  0.00    +0.000 A 
ATOM     21  F   UNL     1      -0.149  12.647  19.139  0.00  0.00    +0.000 F 
ATOM     22  C   UNL     1       1.719  11.518  18.241  0.00  0.00    +0.000 A 
ATOM     23  C   UNL     1       2.395  10.320  17.999  0.00  0.00    +0.000 A 
ENDBRANCH  16  17
ENDBRANCH   7  16
TORSDOF 3
ENDMDL
