MODEL 1
REMARK VINA RESULT:      -7.5      0.000      0.000
REMARK  Name = 
REMARK  12 active torsions:
REMARK  status: ('A' for Active; 'I' for Inactive)
REMARK    1  A    between atoms: C_1  and  O_2
REMARK    2  A    between atoms: O_2  and  C_3
REMARK    3  A    between atoms: C_6  and  C_7
REMARK    4  A    between atoms: C_8  and  S_10
REMARK    5  A    between atoms: S_10  and  C_12
REMARK    6  A    between atoms: C_14  and  O_15
REMARK    7  A    between atoms: O_15  and  C_16
REMARK    8  A    between atoms: C_17  and  O_18
REMARK    9  A    between atoms: O_18  and  C_19
REMARK   10  A    between atoms: C_20  and  O_21
REMARK   11  A    between atoms: O_21  and  C_22
REMARK   12  A    between atoms: C_25  and  O_26
REMARK                            x       y       z     vdW  Elec       q    Type
REMARK                         _______ _______ _______ _____ _____    ______ ____
ROOT
ATOM      1  S   UNL     1       4.193   3.608  18.840  0.00  0.00    +0.000 S 
ATOM      2  O   UNL     1       3.486   2.295  18.341  0.00  0.00    +0.000 OA
ENDROOT
BRANCH   1   3
ATOM      3  C   UNL     1       5.327   4.126  17.529  0.00  0.00    +0.000 A 
ATOM      4  C   UNL     1       5.286   3.524  16.267  0.00  0.00    +0.000 A 
ATOM      5  C   UNL     1       6.112   3.963  15.220  0.00  0.00    +0.000 A 
ATOM      6  C   UNL     1       6.967   5.066  15.433  0.00  0.00    +0.000 A 
ATOM      7  C   UNL     1       6.979   5.692  16.701  0.00  0.00    +0.000 A 
ATOM      8  C   UNL     1       6.183   5.208  17.741  0.00  0.00    +0.000 A 
BRANCH   5   9
ATOM      9  O   UNL     1       6.112   3.363  13.988  0.00  0.00    +0.000 OA
ATOM     10  C   UNL     1       5.020   3.596  13.108  0.00  0.00    +0.000 C 
ENDBRANCH   5   9
BRANCH   6  11
ATOM     11  O   UNL     1       7.814   5.653  14.526  0.00  0.00    +0.000 OA
ATOM     12  C   UNL     1       7.832   5.211  13.180  0.00  0.00    +0.000 C 
ENDBRANCH   6  11
BRANCH   7  13
ATOM     13  O   UNL     1       7.831   6.762  16.862  0.00  0.00    +0.000 OA
ATOM     14  C   UNL     1       7.250   7.936  17.420  0.00  0.00    +0.000 C 
ENDBRANCH   7  13
ENDBRANCH   1   3
BRANCH   1  16
ATOM     15  C   UNL     1       3.092   5.981  19.636  0.00  0.00    +0.000 C 
ATOM     16  C   UNL     1       2.965   4.904  18.839  0.00  0.00    +0.000 C 
ATOM     17 CL   UNL     1       1.756   4.697  17.627  0.00  0.00    +0.000 Cl
BRANCH  15  21
ATOM     18  C   UNL     1       0.994   9.741  19.551  0.00  0.00    +0.000 A 
ATOM     19  C   UNL     1       0.960   8.914  20.684  0.00  0.00    +0.000 A 
ATOM     20  C   UNL     1       1.608   7.672  20.702  0.00  0.00    +0.000 A 
ATOM     21  C   UNL     1       2.314   7.231  19.580  0.00  0.00    +0.000 A 
ATOM     22  C   UNL     1       2.378   8.071  18.462  0.00  0.00    +0.000 A 
ATOM     23  C   UNL     1       1.701   9.297  18.433  0.00  0.00    +0.000 A 
BRANCH  18  25
ATOM     24  C   UNL     1      -0.059  11.295  21.031  0.00  0.00    +0.000 C 
ATOM     25  O   UNL     1       0.310  10.914  19.712  0.00  0.00    +0.000 OA
ENDBRANCH  18  25
BRANCH  23  26
ATOM     26  O   UNL     1       1.768  10.032  17.280  0.00  0.00    +0.000 OA
ATOM     27  H   UNL     1       1.744   9.432  16.519  0.00  0.00    +0.000 HD
ENDBRANCH  23  26
ENDBRANCH  15  21
ENDBRANCH   1  16
TORSDOF 8
ENDMDL
MODEL 2
REMARK VINA RESULT:      -7.3      3.599      6.855
REMARK  Name = 
REMARK  12 active torsions:
REMARK  status: ('A' for Active; 'I' for Inactive)
REMARK    1  A    between atoms: C_1  and  O_2
REMARK    2  A    between atoms: O_2  and  C_3
REMARK    3  A    between atoms: C_6  and  C_7
REMARK    4  A    between atoms: C_8  and  S_10
REMARK    5  A    between atoms: S_10  and  C_12
REMARK    6  A    between atoms: C_14  and  O_15
REMARK    7  A    between atoms: O_15  and  C_16
REMARK    8  A    between atoms: C_17  and  O_18
REMARK    9  A    between atoms: O_18  and  C_19
REMARK   10  A    between atoms: C_20  and  O_21
REMARK   11  A    between atoms: O_21  and  C_22
REMARK   12  A    between atoms: C_25  and  O_26
REMARK                            x       y       z     vdW  Elec       q    Type
REMARK                         _______ _______ _______ _____ _____    ______ ____
ROOT
ATOM      1  S   UNL     1       6.981   5.775  16.713  0.00  0.00    +0.000 S 
ATOM      2  O   UNL     1       7.829   4.458  16.852  0.00  0.00    +0.000 OA
ENDROOT
BRANCH   1   3
ATOM      3  C   UNL     1       5.431   5.499  17.605  0.00  0.00    +0.000 A 
ATOM      4  C   UNL     1       4.502   6.534  17.763  0.00  0.00    +0.000 A 
ATOM      5  C   UNL     1       3.265   6.315  18.391  0.00  0.00    +0.000 A 
ATOM      6  C   UNL     1       2.935   5.015  18.830  0.00  0.00    +0.000 A 
ATOM      7  C   UNL     1       3.865   3.967  18.636  0.00  0.00    +0.000 A 
ATOM      8  C   UNL     1       5.108   4.217  18.052  0.00  0.00    +0.000 A 
BRANCH   5   9
ATOM      9  O   UNL     1       2.357   7.322  18.588  0.00  0.00    +0.000 OA
ATOM     10  C   UNL     1       2.382   8.452  17.724  0.00  0.00    +0.000 C 
ENDBRANCH   5   9
BRANCH   6  11
ATOM     11  O   UNL     1       1.769   4.607  19.430  0.00  0.00    +0.000 OA
ATOM     12  C   UNL     1       1.536   4.890  20.798  0.00  0.00    +0.000 C 
ENDBRANCH   6  11
BRANCH   7  13
ATOM     13  O   UNL     1       3.500   2.716  19.084  0.00  0.00    +0.000 OA
ATOM     14  C   UNL     1       4.319   2.164  20.109  0.00  0.00    +0.000 C 
ENDBRANCH   7  13
ENDBRANCH   1   3
BRANCH   1  16
ATOM     15  C   UNL     1       7.937   8.284  17.229  0.00  0.00    +0.000 C 
ATOM     16  C   UNL     1       7.786   7.030  17.694  0.00  0.00    +0.000 C 
ATOM     17 CL   UNL     1       8.167   6.507  19.293  0.00  0.00    +0.000 Cl
BRANCH  15  21
ATOM     18  C   UNL     1       9.337  11.753  19.362  0.00  0.00    +0.000 A 
ATOM     19  C   UNL     1       9.462  10.466  19.905  0.00  0.00    +0.000 A 
ATOM     20  C   UNL     1       8.972   9.339  19.233  0.00  0.00    +0.000 A 
ATOM     21  C   UNL     1       8.348   9.477  17.990  0.00  0.00    +0.000 A 
ATOM     22  C   UNL     1       8.254  10.758  17.432  0.00  0.00    +0.000 A 
ATOM     23  C   UNL     1       8.713  11.888  18.121  0.00  0.00    +0.000 A 
BRANCH  18  25
ATOM     24  C   UNL     1      11.222  13.112  19.922  0.00  0.00    +0.000 C 
ATOM     25  O   UNL     1       9.872  12.732  20.153  0.00  0.00    +0.000 OA
ENDBRANCH  18  25
BRANCH  23  26
ATOM     26  O   UNL     1       8.533  13.108  17.529  0.00  0.00    +0.000 OA
ATOM     27  H   UNL     1       7.618  13.177  17.215  0.00  0.00    +0.000 HD
ENDBRANCH  23  26
ENDBRANCH  15  21
ENDBRANCH   1  16
TORSDOF 8
ENDMDL
MODEL 3
REMARK VINA RESULT:      -7.2      1.200      1.678
REMARK  Name = 
REMARK  12 active torsions:
REMARK  status: ('A' for Active; 'I' for Inactive)
REMARK    1  A    between atoms: C_1  and  O_2
REMARK    2  A    between atoms: O_2  and  C_3
REMARK    3  A    between atoms: C_6  and  C_7
REMARK    4  A    between atoms: C_8  and  S_10
REMARK    5  A    between atoms: S_10  and  C_12
REMARK    6  A    between atoms: C_14  and  O_15
REMARK    7  A    between atoms: O_15  and  C_16
REMARK    8  A    between atoms: C_17  and  O_18
REMARK    9  A    between atoms: O_18  and  C_19
REMARK   10  A    between atoms: C_20  and  O_21
REMARK   11  A    between atoms: O_21  and  C_22
REMARK   12  A    between atoms: C_25  and  O_26
REMARK                            x       y       z     vdW  Elec       q    Type
REMARK                         _______ _______ _______ _____ _____    ______ ____
ROOT
ATOM      1  S   UNL     1       3.545   3.536  17.801  0.00  0.00    +0.000 S 
ATOM      2  O   UNL     1       2.318   3.247  16.860  0.00  0.00    +0.000 OA
ENDROOT
BRANCH   1   3
ATOM      3  C   UNL     1       4.921   4.028  16.735  0.00  0.00    +0.000 A 
ATOM      4  C   UNL     1       5.006   3.568  15.417  0.00  0.00    +0.000 A 
ATOM      5  C   UNL     1       6.029   3.998  14.557  0.00  0.00    +0.000 A 
ATOM      6  C   UNL     1       6.963   4.949  15.020  0.00  0.00    +0.000 A 
ATOM      7  C   UNL     1       6.851   5.437  16.342  0.00  0.00    +0.000 A 
ATOM      8  C   UNL     1       5.853   4.959  17.194  0.00  0.00    +0.000 A 
BRANCH   5   9
ATOM      9  O   UNL     1       6.151   3.531  13.274  0.00  0.00    +0.000 OA
ATOM     10  C   UNL     1       4.999   3.492  12.442  0.00  0.00    +0.000 C 
ENDBRANCH   5   9
BRANCH   6  11
ATOM     11  O   UNL     1       8.004   5.507  14.318  0.00  0.00    +0.000 OA
ATOM     12  C   UNL     1       7.989   5.505  12.902  0.00  0.00    +0.000 C 
ENDBRANCH   6  11
BRANCH   7  13
ATOM     13  O   UNL     1       7.787   6.362  16.750  0.00  0.00    +0.000 OA
ATOM     14  C   UNL     1       7.275   7.491  17.451  0.00  0.00    +0.000 C 
ENDBRANCH   7  13
ENDBRANCH   1   3
BRANCH   1  16
ATOM     15  C   UNL     1       2.869   6.173  18.054  0.00  0.00    +0.000 C 
ATOM     16  C   UNL     1       3.181   5.034  18.701  0.00  0.00    +0.000 C 
ATOM     17 CL   UNL     1       3.113   4.805  20.408  0.00  0.00    +0.000 Cl
BRANCH  15  21
ATOM     18  C   UNL     1       1.043   9.706  19.707  0.00  0.00    +0.000 A 
ATOM     19  C   UNL     1       1.419   9.645  18.357  0.00  0.00    +0.000 A 
ATOM     20  C   UNL     1       2.049   8.513  17.824  0.00  0.00    +0.000 A 
ATOM     21  C   UNL     1       2.313   7.407  18.637  0.00  0.00    +0.000 A 
ATOM     22  C   UNL     1       1.907   7.454  19.976  0.00  0.00    +0.000 A 
ATOM     23  C   UNL     1       1.308   8.599  20.515  0.00  0.00    +0.000 A 
BRANCH  18  25
ATOM     24  C   UNL     1      -0.927  11.060  19.703  0.00  0.00    +0.000 C 
ATOM     25  O   UNL     1       0.440  10.884  20.052  0.00  0.00    +0.000 OA
ENDBRANCH  18  25
BRANCH  23  26
ATOM     26  O   UNL     1       0.992   8.583  21.847  0.00  0.00    +0.000 OA
ATOM     27  H   UNL     1       0.094   8.931  21.965  0.00  0.00    +0.000 HD
ENDBRANCH  23  26
ENDBRANCH  15  21
ENDBRANCH   1  16
TORSDOF 8
ENDMDL
MODEL 4
REMARK VINA RESULT:      -7.2      0.409      2.504
REMARK  Name = 
REMARK  12 active torsions:
REMARK  status: ('A' for Active; 'I' for Inactive)
REMARK    1  A    between atoms: C_1  and  O_2
REMARK    2  A    between atoms: O_2  and  C_3
REMARK    3  A    between atoms: C_6  and  C_7
REMARK    4  A    between atoms: C_8  and  S_10
REMARK    5  A    between atoms: S_10  and  C_12
REMARK    6  A    between atoms: C_14  and  O_15
REMARK    7  A    between atoms: O_15  and  C_16
REMARK    8  A    between atoms: C_17  and  O_18
REMARK    9  A    between atoms: O_18  and  C_19
REMARK   10  A    between atoms: C_20  and  O_21
REMARK   11  A    between atoms: O_21  and  C_22
REMARK   12  A    between atoms: C_25  and  O_26
REMARK                            x       y       z     vdW  Elec       q    Type
REMARK                         _______ _______ _______ _____ _____    ______ ____
ROOT
ATOM      1  S   UNL     1       4.106   3.527  18.436  0.00  0.00    +0.000 S 
ATOM      2  O   UNL     1       3.377   2.281  17.812  0.00  0.00    +0.000 OA
ENDROOT
BRANCH   1   3
ATOM      3  C   UNL     1       5.223   4.172  17.168  0.00  0.00    +0.000 A 
ATOM      4  C   UNL     1       6.056   5.265  17.436  0.00  0.00    +0.000 A 
ATOM      5  C   UNL     1       6.977   5.731  16.485  0.00  0.00    +0.000 A 
ATOM      6  C   UNL     1       7.098   5.055  15.252  0.00  0.00    +0.000 A 
ATOM      7  C   UNL     1       6.278   3.931  15.001  0.00  0.00    +0.000 A 
ATOM      8  C   UNL     1       5.335   3.514  15.943  0.00  0.00    +0.000 A 
BRANCH   5   9
ATOM      9  O   UNL     1       7.776   6.822  16.714  0.00  0.00    +0.000 OA
ATOM     10  C   UNL     1       7.824   7.379  18.021  0.00  0.00    +0.000 C 
ENDBRANCH   5   9
BRANCH   6  11
ATOM     11  O   UNL     1       7.960   5.343  14.223  0.00  0.00    +0.000 OA
ATOM     12  C   UNL     1       7.459   5.821  12.987  0.00  0.00    +0.000 C 
ENDBRANCH   6  11
BRANCH   7  13
ATOM     13  O   UNL     1       6.429   3.305  13.784  0.00  0.00    +0.000 OA
ATOM     14  C   UNL     1       5.321   3.407  12.895  0.00  0.00    +0.000 C 
ENDBRANCH   7  13
ENDBRANCH   1   3
BRANCH   1  16
ATOM     15  C   UNL     1       3.132   5.910  19.357  0.00  0.00    +0.000 C 
ATOM     16  C   UNL     1       2.892   4.827  18.595  0.00  0.00    +0.000 C 
ATOM     17 CL   UNL     1       1.525   4.612  17.567  0.00  0.00    +0.000 Cl
BRANCH  15  21
ATOM     18  C   UNL     1       1.040   9.669  19.565  0.00  0.00    +0.000 A 
ATOM     19  C   UNL     1       1.014   8.762  20.634  0.00  0.00    +0.000 A 
ATOM     20  C   UNL     1       1.660   7.521  20.556  0.00  0.00    +0.000 A 
ATOM     21  C   UNL     1       2.356   7.162  19.399  0.00  0.00    +0.000 A 
ATOM     22  C   UNL     1       2.411   8.082  18.344  0.00  0.00    +0.000 A 
ATOM     23  C   UNL     1       1.737   9.307  18.411  0.00  0.00    +0.000 A 
BRANCH  18  25
ATOM     24  C   UNL     1       0.794  11.633  20.905  0.00  0.00    +0.000 C 
ATOM     25  O   UNL     1       0.359  10.828  19.817  0.00  0.00    +0.000 OA
ENDBRANCH  18  25
BRANCH  23  26
ATOM     26  O   UNL     1       1.796  10.124  17.315  0.00  0.00    +0.000 OA
ATOM     27  H   UNL     1       2.454  10.819  17.471  0.00  0.00    +0.000 HD
ENDBRANCH  23  26
ENDBRANCH  15  21
ENDBRANCH   1  16
TORSDOF 8
ENDMDL
MODEL 5
REMARK VINA RESULT:      -7.2      1.074      1.097
REMARK  Name = 
REMARK  12 active torsions:
REMARK  status: ('A' for Active; 'I' for Inactive)
REMARK    1  A    between atoms: C_1  and  O_2
REMARK    2  A    between atoms: O_2  and  C_3
REMARK    3  A    between atoms: C_6  and  C_7
REMARK    4  A    between atoms: C_8  and  S_10
REMARK    5  A    between atoms: S_10  and  C_12
REMARK    6  A    between atoms: C_14  and  O_15
REMARK    7  A    between atoms: O_15  and  C_16
REMARK    8  A    between atoms: C_17  and  O_18
REMARK    9  A    between atoms: O_18  and  C_19
REMARK   10  A    between atoms: C_20  and  O_21
REMARK   11  A    between atoms: O_21  and  C_22
REMARK   12  A    between atoms: C_25  and  O_26
REMARK                            x       y       z     vdW  Elec       q    Type
REMARK                         _______ _______ _______ _____ _____    ______ ____
ROOT
ATOM      1  S   UNL     1       3.607   3.475  17.720  0.00  0.00    +0.000 S 
ATOM      2  O   UNL     1       2.398   3.185  16.756  0.00  0.00    +0.000 OA
ENDROOT
BRANCH   1   3
ATOM      3  C   UNL     1       4.983   4.031  16.686  0.00  0.00    +0.000 A 
ATOM      4  C   UNL     1       5.196   3.477  15.419  0.00  0.00    +0.000 A 
ATOM      5  C   UNL     1       6.217   3.948  14.578  0.00  0.00    +0.000 A 
ATOM      6  C   UNL     1       7.013   5.034  15.002  0.00  0.00    +0.000 A 
ATOM      7  C   UNL     1       6.769   5.612  16.269  0.00  0.00    +0.000 A 
ATOM      8  C   UNL     1       5.780   5.096  17.108  0.00  0.00    +0.000 A 
BRANCH   5   9
ATOM      9  O   UNL     1       6.466   3.395  13.349  0.00  0.00    +0.000 OA
ATOM     10  C   UNL     1       5.406   3.308  12.405  0.00  0.00    +0.000 C 
ENDBRANCH   5   9
BRANCH   6  11
ATOM     11  O   UNL     1       8.027   5.647  14.307  0.00  0.00    +0.000 OA
ATOM     12  C   UNL     1       8.059   5.586  12.893  0.00  0.00    +0.000 C 
ENDBRANCH   6  11
BRANCH   7  13
ATOM     13  O   UNL     1       7.573   6.667  16.641  0.00  0.00    +0.000 OA
ATOM     14  C   UNL     1       7.722   6.867  18.043  0.00  0.00    +0.000 C 
ENDBRANCH   7  13
ENDBRANCH   1   3
BRANCH   1  16
ATOM     15  C   UNL     1       2.758   6.053  18.048  0.00  0.00    +0.000 C 
ATOM     16  C   UNL     1       3.197   4.937  18.659  0.00  0.00    +0.000 C 
ATOM     17 CL   UNL     1       3.265   4.694  20.365  0.00  0.00    +0.000 Cl
BRANCH  15  21
ATOM     18  C   UNL     1       1.198   9.593  19.941  0.00  0.00    +0.000 A 
ATOM     19  C   UNL     1       1.438   8.422  20.674  0.00  0.00    +0.000 A 
ATOM     20  C   UNL     1       1.908   7.256  20.056  0.00  0.00    +0.000 A 
ATOM     21  C   UNL     1       2.155   7.239  18.680  0.00  0.00    +0.000 A 
ATOM     22  C   UNL     1       1.947   8.419  17.954  0.00  0.00    +0.000 A 
ATOM     23  C   UNL     1       1.445   9.573  18.567  0.00  0.00    +0.000 A 
BRANCH  18  25
ATOM     24  C   UNL     1      -0.441  10.433  21.465  0.00  0.00    +0.000 C 
ATOM     25  O   UNL     1       0.744  10.632  20.706  0.00  0.00    +0.000 OA
ENDBRANCH  18  25
BRANCH  23  26
ATOM     26  O   UNL     1       1.219  10.665  17.774  0.00  0.00    +0.000 OA
ATOM     27  H   UNL     1       1.277  10.400  16.843  0.00  0.00    +0.000 HD
ENDBRANCH  23  26
ENDBRANCH  15  21
ENDBRANCH   1  16
TORSDOF 8
ENDMDL
MODEL 6
REMARK VINA RESULT:      -7.2      3.588      6.630
REMARK  Name = 
REMARK  12 active torsions:
REMARK  status: ('A' for Active; 'I' for Inactive)
REMARK    1  A    between atoms: C_1  and  O_2
REMARK    2  A    between atoms: O_2  and  C_3
REMARK    3  A    between atoms: C_6  and  C_7
REMARK    4  A    between atoms: C_8  and  S_10
REMARK    5  A    between atoms: S_10  and  C_12
REMARK    6  A    between atoms: C_14  and  O_15
REMARK    7  A    between atoms: O_15  and  C_16
REMARK    8  A    between atoms: C_17  and  O_18
REMARK    9  A    between atoms: O_18  and  C_19
REMARK   10  A    between atoms: C_20  and  O_21
REMARK   11  A    between atoms: O_21  and  C_22
REMARK   12  A    between atoms: C_25  and  O_26
REMARK                            x       y       z     vdW  Elec       q    Type
REMARK                         _______ _______ _______ _____ _____    ______ ____
ROOT
ATOM      1  S   UNL     1       6.946   5.797  16.586  0.00  0.00    +0.000 S 
ATOM      2  O   UNL     1       7.830   4.497  16.646  0.00  0.00    +0.000 OA
ENDROOT
BRANCH   1   3
ATOM      3  C   UNL     1       5.423   5.440  17.495  0.00  0.00    +0.000 A 
ATOM      4  C   UNL     1       5.169   4.157  17.990  0.00  0.00    +0.000 A 
ATOM      5  C   UNL     1       4.025   3.883  18.757  0.00  0.00    +0.000 A 
ATOM      6  C   UNL     1       3.140   4.935  19.074  0.00  0.00    +0.000 A 
ATOM      7  C   UNL     1       3.421   6.237  18.600  0.00  0.00    +0.000 A 
ATOM      8  C   UNL     1       4.539   6.476  17.799  0.00  0.00    +0.000 A 
BRANCH   5   9
ATOM      9  O   UNL     1       3.739   2.625  19.221  0.00  0.00    +0.000 OA
ATOM     10  C   UNL     1       2.873   1.791  18.463  0.00  0.00    +0.000 C 
ENDBRANCH   5   9
BRANCH   6  11
ATOM     11  O   UNL     1       1.998   4.865  19.834  0.00  0.00    +0.000 OA
ATOM     12  C   UNL     1       2.079   4.556  21.214  0.00  0.00    +0.000 C 
ENDBRANCH   6  11
BRANCH   7  13
ATOM     13  O   UNL     1       2.526   7.230  18.932  0.00  0.00    +0.000 OA
ATOM     14  C   UNL     1       2.241   8.173  17.903  0.00  0.00    +0.000 C 
ENDBRANCH   7  13
ENDBRANCH   1   3
BRANCH   1  16
ATOM     15  C   UNL     1       7.933   8.281  17.160  0.00  0.00    +0.000 C 
ATOM     16  C   UNL     1       7.741   7.026  17.608  0.00  0.00    +0.000 C 
ATOM     17 CL   UNL     1       8.054   6.480  19.213  0.00  0.00    +0.000 Cl
BRANCH  15  21
ATOM     18  C   UNL     1       9.322  11.708  19.368  0.00  0.00    +0.000 A 
ATOM     19  C   UNL     1       9.465  10.409  19.876  0.00  0.00    +0.000 A 
ATOM     20  C   UNL     1       8.979   9.294  19.180  0.00  0.00    +0.000 A 
ATOM     21  C   UNL     1       8.340   9.458  17.948  0.00  0.00    +0.000 A 
ATOM     22  C   UNL     1       8.229  10.752  17.424  0.00  0.00    +0.000 A 
ATOM     23  C   UNL     1       8.684  11.868  18.137  0.00  0.00    +0.000 A 
BRANCH  18  25
ATOM     24  C   UNL     1      11.235  12.982  20.026  0.00  0.00    +0.000 C 
ATOM     25  O   UNL     1       9.856  12.672  20.178  0.00  0.00    +0.000 OA
ENDBRANCH  18  25
BRANCH  23  26
ATOM     26  O   UNL     1       8.486  13.101  17.578  0.00  0.00    +0.000 OA
ATOM     27  H   UNL     1       8.845  13.104  16.677  0.00  0.00    +0.000 HD
ENDBRANCH  23  26
ENDBRANCH  15  21
ENDBRANCH   1  16
TORSDOF 8
ENDMDL
MODEL 7
REMARK VINA RESULT:      -7.1      0.871      2.883
REMARK  Name = 
REMARK  12 active torsions:
REMARK  status: ('A' for Active; 'I' for Inactive)
REMARK    1  A    between atoms: C_1  and  O_2
REMARK    2  A    between atoms: O_2  and  C_3
REMARK    3  A    between atoms: C_6  and  C_7
REMARK    4  A    between atoms: C_8  and  S_10
REMARK    5  A    between atoms: S_10  and  C_12
REMARK    6  A    between atoms: C_14  and  O_15
REMARK    7  A    between atoms: O_15  and  C_16
REMARK    8  A    between atoms: C_17  and  O_18
REMARK    9  A    between atoms: O_18  and  C_19
REMARK   10  A    between atoms: C_20  and  O_21
REMARK   11  A    between atoms: O_21  and  C_22
REMARK   12  A    between atoms: C_25  and  O_26
REMARK                            x       y       z     vdW  Elec       q    Type
REMARK                         _______ _______ _______ _____ _____    ______ ____
ROOT
ATOM      1  S   UNL     1       4.050   3.612  18.253  0.00  0.00    +0.000 S 
ATOM      2  O   UNL     1       3.274   2.421  17.579  0.00  0.00    +0.000 OA
ENDROOT
BRANCH   1   3
ATOM      3  C   UNL     1       5.218   4.242  17.024  0.00  0.00    +0.000 A 
ATOM      4  C   UNL     1       6.079   5.301  17.331  0.00  0.00    +0.000 A 
ATOM      5  C   UNL     1       7.039   5.753  16.412  0.00  0.00    +0.000 A 
ATOM      6  C   UNL     1       7.168   5.093  15.171  0.00  0.00    +0.000 A 
ATOM      7  C   UNL     1       6.319   4.001  14.880  0.00  0.00    +0.000 A 
ATOM      8  C   UNL     1       5.340   3.600  15.791  0.00  0.00    +0.000 A 
BRANCH   5   9
ATOM      9  O   UNL     1       7.867   6.812  16.679  0.00  0.00    +0.000 OA
ATOM     10  C   UNL     1       7.437   7.808  17.598  0.00  0.00    +0.000 C 
ENDBRANCH   5   9
BRANCH   6  11
ATOM     11  O   UNL     1       8.065   5.371  14.167  0.00  0.00    +0.000 OA
ATOM     12  C   UNL     1       7.606   5.841  12.913  0.00  0.00    +0.000 C 
ENDBRANCH   6  11
BRANCH   7  13
ATOM     13  O   UNL     1       6.480   3.391  13.656  0.00  0.00    +0.000 OA
ATOM     14  C   UNL     1       5.333   3.390  12.811  0.00  0.00    +0.000 C 
ENDBRANCH   7  13
ENDBRANCH   1   3
BRANCH   1  16
ATOM     15  C   UNL     1       3.255   6.107  19.042  0.00  0.00    +0.000 C 
ATOM     16  C   UNL     1       2.895   4.962  18.432  0.00  0.00    +0.000 C 
ATOM     17 CL   UNL     1       1.401   4.695  17.613  0.00  0.00    +0.000 Cl
BRANCH  15  21
ATOM     18  C   UNL     1       0.919   9.725  19.021  0.00  0.00    +0.000 A 
ATOM     19  C   UNL     1       1.574   9.275  17.865  0.00  0.00    +0.000 A 
ATOM     20  C   UNL     1       2.367   8.120  17.877  0.00  0.00    +0.000 A 
ATOM     21  C   UNL     1       2.518   7.383  19.054  0.00  0.00    +0.000 A 
ATOM     22  C   UNL     1       1.837   7.812  20.200  0.00  0.00    +0.000 A 
ATOM     23  C   UNL     1       1.072   8.986  20.195  0.00  0.00    +0.000 A 
BRANCH  18  25
ATOM     24  C   UNL     1      -1.059  10.750  18.156  0.00  0.00    +0.000 C 
ATOM     25  O   UNL     1       0.189  10.865  18.825  0.00  0.00    +0.000 OA
ENDBRANCH  18  25
BRANCH  23  26
ATOM     26  O   UNL     1       0.485   9.365  21.372  0.00  0.00    +0.000 OA
ATOM     27  H   UNL     1      -0.338   9.840  21.178  0.00  0.00    +0.000 HD
ENDBRANCH  23  26
ENDBRANCH  15  21
ENDBRANCH   1  16
TORSDOF 8
ENDMDL
MODEL 8
REMARK VINA RESULT:      -7.1      3.572      9.098
REMARK  Name = 
REMARK  12 active torsions:
REMARK  status: ('A' for Active; 'I' for Inactive)
REMARK    1  A    between atoms: C_1  and  O_2
REMARK    2  A    between atoms: O_2  and  C_3
REMARK    3  A    between atoms: C_6  and  C_7
REMARK    4  A    between atoms: C_8  and  S_10
REMARK    5  A    between atoms: S_10  and  C_12
REMARK    6  A    between atoms: C_14  and  O_15
REMARK    7  A    between atoms: O_15  and  C_16
REMARK    8  A    between atoms: C_17  and  O_18
REMARK    9  A    between atoms: O_18  and  C_19
REMARK   10  A    between atoms: C_20  and  O_21
REMARK   11  A    between atoms: O_21  and  C_22
REMARK   12  A    between atoms: C_25  and  O_26
REMARK                            x       y       z     vdW  Elec       q    Type
REMARK                         _______ _______ _______ _____ _____    ______ ____
ROOT
ATOM      1  S   UNL     1       1.392  10.821  18.879  0.00  0.00    +0.000 S 
ATOM      2  O   UNL     1       2.161  11.354  17.615  0.00  0.00    +0.000 OA
ENDROOT
BRANCH   1   3
ATOM      3  C   UNL     1      -0.375  10.959  18.518  0.00  0.00    +0.000 A 
ATOM      4  C   UNL     1      -0.968  10.164  17.531  0.00  0.00    +0.000 A 
ATOM      5  C   UNL     1      -2.350  10.210  17.288  0.00  0.00    +0.000 A 
ATOM      6  C   UNL     1      -3.163  11.042  18.089  0.00  0.00    +0.000 A 
ATOM      7  C   UNL     1      -2.562  11.817  19.107  0.00  0.00    +0.000 A 
ATOM      8  C   UNL     1      -1.179  11.790  19.299  0.00  0.00    +0.000 A 
BRANCH   5   9
ATOM      9  O   UNL     1      -2.946   9.467  16.303  0.00  0.00    +0.000 OA
ATOM     10  C   UNL     1      -2.892   9.932  14.960  0.00  0.00    +0.000 C 
ENDBRANCH   5   9
BRANCH   6  11
ATOM     11  O   UNL     1      -4.527  11.191  18.021  0.00  0.00    +0.000 OA
ATOM     12  C   UNL     1      -5.106  11.979  16.997  0.00  0.00    +0.000 C 
ENDBRANCH   6  11
BRANCH   7  13
ATOM     13  O   UNL     1      -3.394  12.615  19.860  0.00  0.00    +0.000 OA
ATOM     14  C   UNL     1      -2.972  12.858  21.198  0.00  0.00    +0.000 C 
ENDBRANCH   7  13
ENDBRANCH   1   3
BRANCH   1  16
ATOM     15  C   UNL     1       2.223   8.396  17.926  0.00  0.00    +0.000 C 
ATOM     16  C   UNL     1       1.647   9.055  18.949  0.00  0.00    +0.000 C 
ATOM     17 CL   UNL     1       1.246   8.368  20.479  0.00  0.00    +0.000 Cl
BRANCH  15  21
ATOM     18  C   UNL     1       3.636   4.334  17.702  0.00  0.00    +0.000 A 
ATOM     19  C   UNL     1       2.291   4.623  17.976  0.00  0.00    +0.000 A 
ATOM     20  C   UNL     1       1.835   5.942  18.089  0.00  0.00    +0.000 A 
ATOM     21  C   UNL     1       2.721   7.010  17.923  0.00  0.00    +0.000 A 
ATOM     22  C   UNL     1       4.057   6.723  17.615  0.00  0.00    +0.000 A 
ATOM     23  C   UNL     1       4.519   5.403  17.537  0.00  0.00    +0.000 A 
BRANCH  18  25
ATOM     24  C   UNL     1       2.846   2.089  17.916  0.00  0.00    +0.000 C 
ATOM     25  O   UNL     1       3.902   2.995  17.626  0.00  0.00    +0.000 OA
ENDBRANCH  18  25
BRANCH  23  26
ATOM     26  O   UNL     1       5.850   5.211  17.287  0.00  0.00    +0.000 OA
ATOM     27  H   UNL     1       6.219   6.016  16.891  0.00  0.00    +0.000 HD
ENDBRANCH  23  26
ENDBRANCH  15  21
ENDBRANCH   1  16
TORSDOF 8
ENDMDL
MODEL 9
REMARK VINA RESULT:      -7.1      3.526      9.372
REMARK  Name = 
REMARK  12 active torsions:
REMARK  status: ('A' for Active; 'I' for Inactive)
REMARK    1  A    between atoms: C_1  and  O_2
REMARK    2  A    between atoms: O_2  and  C_3
REMARK    3  A    between atoms: C_6  and  C_7
REMARK    4  A    between atoms: C_8  and  S_10
REMARK    5  A    between atoms: S_10  and  C_12
REMARK    6  A    between atoms: C_14  and  O_15
REMARK    7  A    between atoms: O_15  and  C_16
REMARK    8  A    between atoms: C_17  and  O_18
REMARK    9  A    between atoms: O_18  and  C_19
REMARK   10  A    between atoms: C_20  and  O_21
REMARK   11  A    between atoms: O_21  and  C_22
REMARK   12  A    between atoms: C_25  and  O_26
REMARK                            x       y       z     vdW  Elec       q    Type
REMARK                         _______ _______ _______ _____ _____    ______ ____
ROOT
ATOM      1  S   UNL     1       1.407  10.552  18.823  0.00  0.00    +0.000 S 
ATOM      2  O   UNL     1       2.045  11.014  17.461  0.00  0.00    +0.000 OA
ENDROOT
BRANCH   1   3
ATOM      3  C   UNL     1      -0.388  10.647  18.623  0.00  0.00    +0.000 A 
ATOM      4  C   UNL     1      -1.157  11.474  19.448  0.00  0.00    +0.000 A 
ATOM      5  C   UNL     1      -2.542  11.611  19.259  0.00  0.00    +0.000 A 
ATOM      6  C   UNL     1      -3.161  10.936  18.185  0.00  0.00    +0.000 A 
ATOM      7  C   UNL     1      -2.371  10.128  17.334  0.00  0.00    +0.000 A 
ATOM      8  C   UNL     1      -1.004   9.970  17.570  0.00  0.00    +0.000 A 
BRANCH   5   9
ATOM      9  O   UNL     1      -3.319  12.388  20.078  0.00  0.00    +0.000 OA
ATOM     10  C   UNL     1      -2.789  13.610  20.575  0.00  0.00    +0.000 C 
ENDBRANCH   5   9
BRANCH   6  11
ATOM     11  O   UNL     1      -4.486  10.976  17.826  0.00  0.00    +0.000 OA
ATOM     12  C   UNL     1      -4.999  12.091  17.120  0.00  0.00    +0.000 C 
ENDBRANCH   6  11
BRANCH   7  13
ATOM     13  O   UNL     1      -3.020   9.487  16.301  0.00  0.00    +0.000 OA
ATOM     14  C   UNL     1      -2.879  10.086  15.017  0.00  0.00    +0.000 C 
ENDBRANCH   7  13
ENDBRANCH   1   3
BRANCH   1  16
ATOM     15  C   UNL     1       2.199   8.085  17.949  0.00  0.00    +0.000 C 
ATOM     16  C   UNL     1       1.698   8.797  18.975  0.00  0.00    +0.000 C 
ATOM     17 CL   UNL     1       1.437   8.198  20.571  0.00  0.00    +0.000 Cl
BRANCH  15  21
ATOM     18  C   UNL     1       3.712   4.054  17.840  0.00  0.00    +0.000 A 
ATOM     19  C   UNL     1       2.336   4.313  17.908  0.00  0.00    +0.000 A 
ATOM     20  C   UNL     1       1.840   5.621  17.983  0.00  0.00    +0.000 A 
ATOM     21  C   UNL     1       2.720   6.707  17.987  0.00  0.00    +0.000 A 
ATOM     22  C   UNL     1       4.093   6.451  17.884  0.00  0.00    +0.000 A 
ATOM     23  C   UNL     1       4.588   5.141  17.843  0.00  0.00    +0.000 A 
BRANCH  18  25
ATOM     24  C   UNL     1       3.303   1.832  18.622  0.00  0.00    +0.000 C 
ATOM     25  O   UNL     1       4.014   2.722  17.771  0.00  0.00    +0.000 OA
ENDBRANCH  18  25
BRANCH  23  26
ATOM     26  O   UNL     1       5.946   4.977  17.800  0.00  0.00    +0.000 OA
ATOM     27  H   UNL     1       6.299   5.006  18.703  0.00  0.00    +0.000 HD
ENDBRANCH  23  26
ENDBRANCH  15  21
ENDBRANCH   1  16
TORSDOF 8
ENDMDL
