MODEL 1
REMARK VINA RESULT:      -8.0      0.000      0.000
REMARK  Name = 
REMARK  8 active torsions:
REMARK  status: ('A' for Active; 'I' for Inactive)
REMARK    1  A    between atoms: C_1  and  O_2
REMARK    2  A    between atoms: O_2  and  C_3
REMARK    3  A    between atoms: C_6  and  N_7
REMARK    4  A    between atoms: N_7  and  C_8
REMARK    5  A    between atoms: C_11  and  C_12
REMARK    6  A    between atoms: C_15  and  C_16
REMARK    7  A    between atoms: C_17  and  S_18
REMARK    8  A    between atoms: S_18  and  N_21
REMARK                            x       y       z     vdW  Elec       q    Type
REMARK                         _______ _______ _______ _____ _____    ______ ____
ROOT
ATOM      1  C   UNL     1       1.597   9.424  18.700  0.00  0.00    +0.000 A 
ATOM      2  N   UNL     1       1.921  10.603  18.122  0.00  0.00    +0.000 NA
ATOM      3  N   UNL     1       1.259  11.761  18.515  0.00  0.00    +0.000 NA
ATOM      4  C   UNL     1       0.435  11.710  19.580  0.00  0.00    +0.000 A 
ATOM      5  C   UNL     1       0.788  10.685  20.461  0.00  0.00    +0.000 A 
ATOM      6  C   UNL     1       0.830  10.754  21.869  0.00  0.00    +0.000 A 
ATOM      7  C   UNL     1       0.048   9.879  22.603  0.00  0.00    +0.000 A 
ATOM      8  C   UNL     1      -0.658   8.925  21.894  0.00  0.00    +0.000 A 
ATOM      9  C   UNL     1      -0.216   8.612  20.584  0.00  0.00    +0.000 A 
ATOM     10  C   UNL     1       0.747   9.448  19.882  0.00  0.00    +0.000 A 
ENDROOT
BRANCH   4  11
ATOM     11  C   UNL     1      -1.060  11.758  19.127  0.00  0.00    +0.000 A 
ATOM     12  C   UNL     1      -1.476  10.939  18.052  0.00  0.00    +0.000 A 
ATOM     13  C   UNL     1      -2.826  10.728  17.717  0.00  0.00    +0.000 A 
ATOM     14  C   UNL     1      -3.865  11.341  18.423  0.00  0.00    +0.000 A 
ATOM     15  C   UNL     1      -5.280  10.928  18.118  0.00  0.00    +0.000 C 
ATOM     16  C   UNL     1      -3.506  12.239  19.446  0.00  0.00    +0.000 A 
ATOM     17  C   UNL     1      -2.119  12.418  19.810  0.00  0.00    +0.000 A 
BRANCH  16  18
ATOM     18  S   UNL     1      -4.774  12.981  20.482  0.00  0.00    +0.000 S 
ATOM     19  O   UNL     1      -5.544  13.839  19.653  0.00  0.00    +0.000 OA
ATOM     20  O   UNL     1      -5.402  11.909  21.220  0.00  0.00    +0.000 OA
BRANCH  18  21
ATOM     21  N   UNL     1      -3.981  13.989  21.671  0.00  0.00    +0.000 NA
ATOM     22  C   UNL     1      -3.784  13.454  23.059  0.00  0.00    +0.000 C 
ATOM     23  C   UNL     1      -5.100  13.451  23.847  0.00  0.00    +0.000 C 
ATOM     24  O   UNL     1      -5.703  14.755  23.895  0.00  0.00    +0.000 OA
ATOM     25  C   UNL     1      -5.897  15.317  22.587  0.00  0.00    +0.000 C 
ATOM     26  C   UNL     1      -4.576  15.368  21.806  0.00  0.00    +0.000 C 
ENDBRANCH  18  21
ENDBRANCH  16  18
ENDBRANCH   4  11
BRANCH   1  27
ATOM     27  N   UNL     1       1.937   8.217  17.991  0.00  0.00    +0.000 N 
ATOM     28  H   UNL     1       2.493   8.641  17.236  0.00  0.00    +0.000 HD
BRANCH  27  32
ATOM     29  C   UNL     1       4.337   4.808  19.134  0.00  0.00    +0.000 A 
ATOM     30  C   UNL     1       4.718   5.599  18.049  0.00  0.00    +0.000 A 
ATOM     31  C   UNL     1       4.008   6.770  17.674  0.00  0.00    +0.000 A 
ATOM     32  C   UNL     1       2.871   7.171  18.386  0.00  0.00    +0.000 A 
ATOM     33  C   UNL     1       2.514   6.366  19.492  0.00  0.00    +0.000 A 
ATOM     34  C   UNL     1       3.229   5.208  19.874  0.00  0.00    +0.000 A 
BRANCH  29  36
ATOM     35  C   UNL     1       4.437   2.513  19.854  0.00  0.00    +0.000 C 
ATOM     36  O   UNL     1       5.083   3.674  19.331  0.00  0.00    +0.000 OA
ENDBRANCH  29  36
ENDBRANCH  27  32
ENDBRANCH   1  27
TORSDOF 6
ENDMDL
MODEL 2
REMARK VINA RESULT:      -7.8      0.744      1.222
REMARK  Name = 
REMARK  8 active torsions:
REMARK  status: ('A' for Active; 'I' for Inactive)
REMARK    1  A    between atoms: C_1  and  O_2
REMARK    2  A    between atoms: O_2  and  C_3
REMARK    3  A    between atoms: C_6  and  N_7
REMARK    4  A    between atoms: N_7  and  C_8
REMARK    5  A    between atoms: C_11  and  C_12
REMARK    6  A    between atoms: C_15  and  C_16
REMARK    7  A    between atoms: C_17  and  S_18
REMARK    8  A    between atoms: S_18  and  N_21
REMARK                            x       y       z     vdW  Elec       q    Type
REMARK                         _______ _______ _______ _____ _____    ______ ____
ROOT
ATOM      1  C   UNL     1       1.608   9.107  18.739  0.00  0.00    +0.000 A 
ATOM      2  N   UNL     1       2.011  10.251  18.142  0.00  0.00    +0.000 NA
ATOM      3  N   UNL     1       1.441  11.459  18.529  0.00  0.00    +0.000 NA
ATOM      4  C   UNL     1       0.628  11.482  19.603  0.00  0.00    +0.000 A 
ATOM      5  C   UNL     1       0.915  10.444  20.494  0.00  0.00    +0.000 A 
ATOM      6  C   UNL     1       0.980  10.527  21.899  0.00  0.00    +0.000 A 
ATOM      7  C   UNL     1       0.144   9.720  22.654  0.00  0.00    +0.000 A 
ATOM      8  C   UNL     1      -0.638   8.813  21.964  0.00  0.00    +0.000 A 
ATOM      9  C   UNL     1      -0.237   8.453  20.653  0.00  0.00    +0.000 A 
ATOM     10  C   UNL     1       0.776   9.207  19.930  0.00  0.00    +0.000 A 
ENDROOT
BRANCH   4  11
ATOM     11  C   UNL     1      -0.864  11.635  19.167  0.00  0.00    +0.000 A 
ATOM     12  C   UNL     1      -1.325  10.916  18.041  0.00  0.00    +0.000 A 
ATOM     13  C   UNL     1      -2.685  10.795  17.702  0.00  0.00    +0.000 A 
ATOM     14  C   UNL     1      -3.689  11.407  18.458  0.00  0.00    +0.000 A 
ATOM     15  C   UNL     1      -5.125  11.086  18.136  0.00  0.00    +0.000 C 
ATOM     16  C   UNL     1      -3.282  12.212  19.538  0.00  0.00    +0.000 A 
ATOM     17  C   UNL     1      -1.886  12.297  19.903  0.00  0.00    +0.000 A 
BRANCH  16  18
ATOM     18  S   UNL     1      -4.507  12.941  20.634  0.00  0.00    +0.000 S 
ATOM     19  O   UNL     1      -5.117  14.012  19.929  0.00  0.00    +0.000 OA
ATOM     20  O   UNL     1      -5.305  11.857  21.162  0.00  0.00    +0.000 OA
BRANCH  18  21
ATOM     21  N   UNL     1      -3.667  13.635  22.001  0.00  0.00    +0.000 NA
ATOM     22  C   UNL     1      -3.898  13.056  23.365  0.00  0.00    +0.000 C 
ATOM     23  C   UNL     1      -5.268  13.465  23.920  0.00  0.00    +0.000 C 
ATOM     24  O   UNL     1      -5.434  14.893  23.948  0.00  0.00    +0.000 OA
ATOM     25  C   UNL     1      -5.205  15.497  22.665  0.00  0.00    +0.000 C 
ATOM     26  C   UNL     1      -3.817  15.132  22.122  0.00  0.00    +0.000 C 
ENDBRANCH  18  21
ENDBRANCH  16  18
ENDBRANCH   4  11
BRANCH   1  27
ATOM     27  N   UNL     1       1.849   7.870  18.041  0.00  0.00    +0.000 N 
ATOM     28  H   UNL     1       2.127   8.265  17.133  0.00  0.00    +0.000 HD
BRANCH  27  32
ATOM     29  C   UNL     1       5.413   5.480  18.570  0.00  0.00    +0.000 A 
ATOM     30  C   UNL     1       4.349   5.356  19.465  0.00  0.00    +0.000 A 
ATOM     31  C   UNL     1       3.128   6.063  19.299  0.00  0.00    +0.000 A 
ATOM     32  C   UNL     1       2.953   6.935  18.217  0.00  0.00    +0.000 A 
ATOM     33  C   UNL     1       4.036   7.031  17.314  0.00  0.00    +0.000 A 
ATOM     34  C   UNL     1       5.247   6.318  17.471  0.00  0.00    +0.000 A 
BRANCH  29  36
ATOM     35  C   UNL     1       7.600   4.696  17.938  0.00  0.00    +0.000 C 
ATOM     36  O   UNL     1       6.549   4.786  18.900  0.00  0.00    +0.000 OA
ENDBRANCH  29  36
ENDBRANCH  27  32
ENDBRANCH   1  27
TORSDOF 6
ENDMDL
MODEL 3
REMARK VINA RESULT:      -7.7      1.056      1.298
REMARK  Name = 
REMARK  8 active torsions:
REMARK  status: ('A' for Active; 'I' for Inactive)
REMARK    1  A    between atoms: C_1  and  O_2
REMARK    2  A    between atoms: O_2  and  C_3
REMARK    3  A    between atoms: C_6  and  N_7
REMARK    4  A    between atoms: N_7  and  C_8
REMARK    5  A    between atoms: C_11  and  C_12
REMARK    6  A    between atoms: C_15  and  C_16
REMARK    7  A    between atoms: C_17  and  S_18
REMARK    8  A    between atoms: S_18  and  N_21
REMARK                            x       y       z     vdW  Elec       q    Type
REMARK                         _______ _______ _______ _____ _____    ______ ____
ROOT
ATOM      1  C   UNL     1       1.612   9.335  18.747  0.00  0.00    +0.000 A 
ATOM      2  N   UNL     1       1.954  10.503  18.157  0.00  0.00    +0.000 NA
ATOM      3  N   UNL     1       1.310  11.675  18.539  0.00  0.00    +0.000 NA
ATOM      4  C   UNL     1       0.485  11.648  19.603  0.00  0.00    +0.000 A 
ATOM      5  C   UNL     1       0.821  10.627  20.495  0.00  0.00    +0.000 A 
ATOM      6  C   UNL     1       0.863  10.710  21.902  0.00  0.00    +0.000 A 
ATOM      7  C   UNL     1       0.067   9.855  22.645  0.00  0.00    +0.000 A 
ATOM      8  C   UNL     1      -0.653   8.905  21.945  0.00  0.00    +0.000 A 
ATOM      9  C   UNL     1      -0.216   8.572  20.638  0.00  0.00    +0.000 A 
ATOM     10  C   UNL     1       0.761   9.385  19.928  0.00  0.00    +0.000 A 
ENDROOT
BRANCH   4  11
ATOM     11  C   UNL     1      -1.009  11.716  19.149  0.00  0.00    +0.000 A 
ATOM     12  C   UNL     1      -1.481  10.771  18.209  0.00  0.00    +0.000 A 
ATOM     13  C   UNL     1      -2.844  10.592  17.909  0.00  0.00    +0.000 A 
ATOM     14  C   UNL     1      -3.839  11.363  18.516  0.00  0.00    +0.000 A 
ATOM     15  C   UNL     1      -5.279  10.992  18.277  0.00  0.00    +0.000 C 
ATOM     16  C   UNL     1      -3.420  12.381  19.392  0.00  0.00    +0.000 A 
ATOM     17  C   UNL     1      -2.021  12.532  19.725  0.00  0.00    +0.000 A 
BRANCH  16  18
ATOM     18  S   UNL     1      -4.633  13.343  20.306  0.00  0.00    +0.000 S 
ATOM     19  O   UNL     1      -3.924  14.350  21.013  0.00  0.00    +0.000 OA
ATOM     20  O   UNL     1      -5.684  13.695  19.378  0.00  0.00    +0.000 OA
BRANCH  18  21
ATOM     21  N   UNL     1      -5.368  12.297  21.498  0.00  0.00    +0.000 NA
ATOM     22  C   UNL     1      -6.814  11.926  21.345  0.00  0.00    +0.000 C 
ATOM     23  C   UNL     1      -7.733  13.097  21.714  0.00  0.00    +0.000 C 
ATOM     24  O   UNL     1      -7.479  13.581  23.044  0.00  0.00    +0.000 OA
ATOM     25  C   UNL     1      -6.101  13.934  23.245  0.00  0.00    +0.000 C 
ATOM     26  C   UNL     1      -5.176  12.753  22.923  0.00  0.00    +0.000 C 
ENDBRANCH  18  21
ENDBRANCH  16  18
ENDBRANCH   4  11
BRANCH   1  27
ATOM     27  N   UNL     1       1.932   8.116  18.051  0.00  0.00    +0.000 N 
ATOM     28  H   UNL     1       2.475   8.526  17.279  0.00  0.00    +0.000 HD
BRANCH  27  32
ATOM     29  C   UNL     1       4.347   4.711  19.176  0.00  0.00    +0.000 A 
ATOM     30  C   UNL     1       4.740   5.526  18.113  0.00  0.00    +0.000 A 
ATOM     31  C   UNL     1       4.024   6.697  17.746  0.00  0.00    +0.000 A 
ATOM     32  C   UNL     1       2.870   7.073  18.444  0.00  0.00    +0.000 A 
ATOM     33  C   UNL     1       2.500   6.243  19.528  0.00  0.00    +0.000 A 
ATOM     34  C   UNL     1       3.220   5.085  19.902  0.00  0.00    +0.000 A 
BRANCH  29  36
ATOM     35  C   UNL     1       4.483   2.439  19.959  0.00  0.00    +0.000 C 
ATOM     36  O   UNL     1       5.100   3.581  19.366  0.00  0.00    +0.000 OA
ENDBRANCH  29  36
ENDBRANCH  27  32
ENDBRANCH   1  27
TORSDOF 6
ENDMDL
MODEL 4
REMARK VINA RESULT:      -7.5      4.847      6.480
REMARK  Name = 
REMARK  8 active torsions:
REMARK  status: ('A' for Active; 'I' for Inactive)
REMARK    1  A    between atoms: C_1  and  O_2
REMARK    2  A    between atoms: O_2  and  C_3
REMARK    3  A    between atoms: C_6  and  N_7
REMARK    4  A    between atoms: N_7  and  C_8
REMARK    5  A    between atoms: C_11  and  C_12
REMARK    6  A    between atoms: C_15  and  C_16
REMARK    7  A    between atoms: C_17  and  S_18
REMARK    8  A    between atoms: S_18  and  N_21
REMARK                            x       y       z     vdW  Elec       q    Type
REMARK                         _______ _______ _______ _____ _____    ______ ____
ROOT
ATOM      1  C   UNL     1       1.256   8.910  20.918  0.00  0.00    +0.000 A 
ATOM      2  N   UNL     1       1.221   9.654  22.046  0.00  0.00    +0.000 NA
ATOM      3  N   UNL     1       0.805  10.979  21.976  0.00  0.00    +0.000 NA
ATOM      4  C   UNL     1       0.285  11.439  20.822  0.00  0.00    +0.000 A 
ATOM      5  C   UNL     1      -0.279  10.412  20.061  0.00  0.00    +0.000 A 
ATOM      6  C   UNL     1      -1.502  10.449  19.362  0.00  0.00    +0.000 A 
ATOM      7  C   UNL     1      -1.497  10.224  17.996  0.00  0.00    +0.000 A 
ATOM      8  C   UNL     1      -0.286   9.882  17.423  0.00  0.00    +0.000 A 
ATOM      9  C   UNL     1       0.723   9.360  18.270  0.00  0.00    +0.000 A 
ATOM     10  C   UNL     1       0.625   9.446  19.719  0.00  0.00    +0.000 A 
ENDROOT
BRANCH   4  11
ATOM     11  C   UNL     1       1.301  12.374  20.089  0.00  0.00    +0.000 A 
ATOM     12  C   UNL     1       1.064  12.716  18.738  0.00  0.00    +0.000 A 
ATOM     13  C   UNL     1       1.773  13.723  18.058  0.00  0.00    +0.000 A 
ATOM     14  C   UNL     1       2.791  14.453  18.678  0.00  0.00    +0.000 A 
ATOM     15  C   UNL     1       3.379  15.629  17.944  0.00  0.00    +0.000 C 
ATOM     16  C   UNL     1       3.132  14.093  19.994  0.00  0.00    +0.000 A 
ATOM     17  C   UNL     1       2.372  13.085  20.699  0.00  0.00    +0.000 A 
BRANCH  16  18
ATOM     18  S   UNL     1       4.348  15.053  20.908  0.00  0.00    +0.000 S 
ATOM     19  O   UNL     1       5.602  14.855  20.273  0.00  0.00    +0.000 OA
ATOM     20  O   UNL     1       3.805  16.382  21.071  0.00  0.00    +0.000 OA
BRANCH  18  21
ATOM     21  N   UNL     1       4.473  14.379  22.516  0.00  0.00    +0.000 NA
ATOM     22  C   UNL     1       4.548  15.311  23.690  0.00  0.00    +0.000 C 
ATOM     23  C   UNL     1       5.929  15.970  23.790  0.00  0.00    +0.000 C 
ATOM     24  O   UNL     1       6.987  14.998  23.855  0.00  0.00    +0.000 OA
ATOM     25  C   UNL     1       6.946  14.070  22.759  0.00  0.00    +0.000 C 
ATOM     26  C   UNL     1       5.583  13.370  22.678  0.00  0.00    +0.000 C 
ENDBRANCH  18  21
ENDBRANCH  16  18
ENDBRANCH   4  11
BRANCH   1  27
ATOM     27  N   UNL     1       2.093   7.737  20.917  0.00  0.00    +0.000 N 
ATOM     28  H   UNL     1       1.857   7.387  21.855  0.00  0.00    +0.000 HD
BRANCH  27  32
ATOM     29  C   UNL     1       2.032   4.049  18.663  0.00  0.00    +0.000 A 
ATOM     30  C   UNL     1       1.409   4.116  19.911  0.00  0.00    +0.000 A 
ATOM     31  C   UNL     1       1.337   5.320  20.661  0.00  0.00    +0.000 A 
ATOM     32  C   UNL     1       1.911   6.500  20.171  0.00  0.00    +0.000 A 
ATOM     33  C   UNL     1       2.520   6.413  18.898  0.00  0.00    +0.000 A 
ATOM     34  C   UNL     1       2.581   5.218  18.144  0.00  0.00    +0.000 A 
BRANCH  29  36
ATOM     35  C   UNL     1       3.187   1.954  18.390  0.00  0.00    +0.000 C 
ATOM     36  O   UNL     1       2.079   2.803  18.091  0.00  0.00    +0.000 OA
ENDBRANCH  29  36
ENDBRANCH  27  32
ENDBRANCH   1  27
TORSDOF 6
ENDMDL
MODEL 5
REMARK VINA RESULT:      -7.4      1.332      1.631
REMARK  Name = 
REMARK  8 active torsions:
REMARK  status: ('A' for Active; 'I' for Inactive)
REMARK    1  A    between atoms: C_1  and  O_2
REMARK    2  A    between atoms: O_2  and  C_3
REMARK    3  A    between atoms: C_6  and  N_7
REMARK    4  A    between atoms: N_7  and  C_8
REMARK    5  A    between atoms: C_11  and  C_12
REMARK    6  A    between atoms: C_15  and  C_16
REMARK    7  A    between atoms: C_17  and  S_18
REMARK    8  A    between atoms: S_18  and  N_21
REMARK                            x       y       z     vdW  Elec       q    Type
REMARK                         _______ _______ _______ _____ _____    ______ ____
ROOT
ATOM      1  C   UNL     1       0.870   9.744  20.311  0.00  0.00    +0.000 A 
ATOM      2  N   UNL     1       1.220  10.034  19.037  0.00  0.00    +0.000 NA
ATOM      3  N   UNL     1       0.666  11.146  18.414  0.00  0.00    +0.000 NA
ATOM      4  C   UNL     1      -0.071  12.004  19.146  0.00  0.00    +0.000 A 
ATOM      5  C   UNL     1       0.287  11.974  20.496  0.00  0.00    +0.000 A 
ATOM      6  C   UNL     1       0.446  13.081  21.355  0.00  0.00    +0.000 A 
ATOM      7  C   UNL     1      -0.327  13.152  22.501  0.00  0.00    +0.000 A 
ATOM      8  C   UNL     1      -1.147  12.072  22.771  0.00  0.00    +0.000 A 
ATOM      9  C   UNL     1      -0.833  10.833  22.158  0.00  0.00    +0.000 A 
ATOM     10  C   UNL     1       0.121  10.742  21.062  0.00  0.00    +0.000 A 
ENDROOT
BRANCH   4  11
ATOM     11  C   UNL     1      -1.591  11.845  18.822  0.00  0.00    +0.000 A 
ATOM     12  C   UNL     1      -1.997  10.836  17.919  0.00  0.00    +0.000 A 
ATOM     13  C   UNL     1      -3.338  10.454  17.736  0.00  0.00    +0.000 A 
ATOM     14  C   UNL     1      -4.381  11.071  18.432  0.00  0.00    +0.000 A 
ATOM     15  C   UNL     1      -5.765  10.489  18.314  0.00  0.00    +0.000 C 
ATOM     16  C   UNL     1      -4.045  12.145  19.277  0.00  0.00    +0.000 A 
ATOM     17  C   UNL     1      -2.661  12.504  19.490  0.00  0.00    +0.000 A 
BRANCH  16  18
ATOM     18  S   UNL     1      -5.305  12.919  20.299  0.00  0.00    +0.000 S 
ATOM     19  O   UNL     1      -6.201  13.590  19.425  0.00  0.00    +0.000 OA
ATOM     20  O   UNL     1      -5.786  11.913  21.218  0.00  0.00    +0.000 OA
BRANCH  18  21
ATOM     21  N   UNL     1      -4.531  14.142  21.280  0.00  0.00    +0.000 NA
ATOM     22  C   UNL     1      -4.305  13.867  22.738  0.00  0.00    +0.000 C 
ATOM     23  C   UNL     1      -5.613  13.966  23.533  0.00  0.00    +0.000 C 
ATOM     24  O   UNL     1      -6.253  15.242  23.359  0.00  0.00    +0.000 OA
ATOM     25  C   UNL     1      -6.476  15.558  21.975  0.00  0.00    +0.000 C 
ATOM     26  C   UNL     1      -5.165  15.507  21.179  0.00  0.00    +0.000 C 
ENDBRANCH  18  21
ENDBRANCH  16  18
ENDBRANCH   4  11
BRANCH   1  27
ATOM     27  N   UNL     1       1.075   8.394  20.769  0.00  0.00    +0.000 N 
ATOM     28  H   UNL     1       0.122   8.039  20.611  0.00  0.00    +0.000 HD
BRANCH  27  32
ATOM     29  C   UNL     1       2.859   4.972  18.822  0.00  0.00    +0.000 A 
ATOM     30  C   UNL     1       2.979   6.241  18.253  0.00  0.00    +0.000 A 
ATOM     31  C   UNL     1       2.475   7.409  18.885  0.00  0.00    +0.000 A 
ATOM     32  C   UNL     1       1.816   7.323  20.118  0.00  0.00    +0.000 A 
ATOM     33  C   UNL     1       1.722   6.030  20.684  0.00  0.00    +0.000 A 
ATOM     34  C   UNL     1       2.235   4.869  20.061  0.00  0.00    +0.000 A 
BRANCH  29  36
ATOM     35  C   UNL     1       2.493   2.804  17.840  0.00  0.00    +0.000 C 
ATOM     36  O   UNL     1       3.336   3.934  18.062  0.00  0.00    +0.000 OA
ENDBRANCH  29  36
ENDBRANCH  27  32
ENDBRANCH   1  27
TORSDOF 6
ENDMDL
MODEL 6
REMARK VINA RESULT:      -7.4      1.138      1.703
REMARK  Name = 
REMARK  8 active torsions:
REMARK  status: ('A' for Active; 'I' for Inactive)
REMARK    1  A    between atoms: C_1  and  O_2
REMARK    2  A    between atoms: O_2  and  C_3
REMARK    3  A    between atoms: C_6  and  N_7
REMARK    4  A    between atoms: N_7  and  C_8
REMARK    5  A    between atoms: C_11  and  C_12
REMARK    6  A    between atoms: C_15  and  C_16
REMARK    7  A    between atoms: C_17  and  S_18
REMARK    8  A    between atoms: S_18  and  N_21
REMARK                            x       y       z     vdW  Elec       q    Type
REMARK                         _______ _______ _______ _____ _____    ______ ____
ROOT
ATOM      1  C   UNL     1       1.583   8.989  18.892  0.00  0.00    +0.000 A 
ATOM      2  N   UNL     1       2.005  10.094  18.237  0.00  0.00    +0.000 NA
ATOM      3  N   UNL     1       1.463  11.331  18.566  0.00  0.00    +0.000 NA
ATOM      4  C   UNL     1       0.658  11.424  19.642  0.00  0.00    +0.000 A 
ATOM      5  C   UNL     1       0.930  10.427  20.582  0.00  0.00    +0.000 A 
ATOM      6  C   UNL     1       1.006  10.578  21.981  0.00  0.00    +0.000 A 
ATOM      7  C   UNL     1       0.159   9.827  22.780  0.00  0.00    +0.000 A 
ATOM      8  C   UNL     1      -0.647   8.903  22.141  0.00  0.00    +0.000 A 
ATOM      9  C   UNL     1      -0.262   8.470  20.847  0.00  0.00    +0.000 A 
ATOM     10  C   UNL     1       0.762   9.166  20.081  0.00  0.00    +0.000 A 
ENDROOT
BRANCH   4  11
ATOM     11  C   UNL     1      -0.834  11.587  19.208  0.00  0.00    +0.000 A 
ATOM     12  C   UNL     1      -1.370  10.692  18.254  0.00  0.00    +0.000 A 
ATOM     13  C   UNL     1      -2.744  10.596  17.967  0.00  0.00    +0.000 A 
ATOM     14  C   UNL     1      -3.686  11.410  18.601  0.00  0.00    +0.000 A 
ATOM     15  C   UNL     1      -5.148  11.127  18.372  0.00  0.00    +0.000 C 
ATOM     16  C   UNL     1      -3.200  12.383  19.494  0.00  0.00    +0.000 A 
ATOM     17  C   UNL     1      -1.792  12.446  19.813  0.00  0.00    +0.000 A 
BRANCH  16  18
ATOM     18  S   UNL     1      -4.347  13.392  20.443  0.00  0.00    +0.000 S 
ATOM     19  O   UNL     1      -3.584  14.405  21.083  0.00  0.00    +0.000 OA
ATOM     20  O   UNL     1      -5.439  13.738  19.562  0.00  0.00    +0.000 OA
BRANCH  18  21
ATOM     21  N   UNL     1      -5.035  12.394  21.701  0.00  0.00    +0.000 NA
ATOM     22  C   UNL     1      -6.524  12.389  21.890  0.00  0.00    +0.000 C 
ATOM     23  C   UNL     1      -7.005  13.679  22.564  0.00  0.00    +0.000 C 
ATOM     24  O   UNL     1      -6.342  13.910  23.820  0.00  0.00    +0.000 OA
ATOM     25  C   UNL     1      -4.911  13.907  23.692  0.00  0.00    +0.000 C 
ATOM     26  C   UNL     1      -4.416  12.599  23.061  0.00  0.00    +0.000 C 
ENDBRANCH  18  21
ENDBRANCH  16  18
ENDBRANCH   4  11
BRANCH   1  27
ATOM     27  N   UNL     1       1.794   7.714  18.256  0.00  0.00    +0.000 N 
ATOM     28  H   UNL     1       1.918   8.050  17.291  0.00  0.00    +0.000 HD
BRANCH  27  32
ATOM     29  C   UNL     1       5.528   5.548  18.487  0.00  0.00    +0.000 A 
ATOM     30  C   UNL     1       4.538   5.339  19.449  0.00  0.00    +0.000 A 
ATOM     31  C   UNL     1       3.267   5.970  19.382  0.00  0.00    +0.000 A 
ATOM     32  C   UNL     1       2.963   6.849  18.335  0.00  0.00    +0.000 A 
ATOM     33  C   UNL     1       3.974   7.031  17.363  0.00  0.00    +0.000 A 
ATOM     34  C   UNL     1       5.234   6.393  17.422  0.00  0.00    +0.000 A 
BRANCH  29  36
ATOM     35  C   UNL     1       7.752   5.643  19.404  0.00  0.00    +0.000 C 
ATOM     36  O   UNL     1       6.726   4.922  18.724  0.00  0.00    +0.000 OA
ENDBRANCH  29  36
ENDBRANCH  27  32
ENDBRANCH   1  27
TORSDOF 6
ENDMDL
MODEL 7
REMARK VINA RESULT:      -7.4      4.897      6.480
REMARK  Name = 
REMARK  8 active torsions:
REMARK  status: ('A' for Active; 'I' for Inactive)
REMARK    1  A    between atoms: C_1  and  O_2
REMARK    2  A    between atoms: O_2  and  C_3
REMARK    3  A    between atoms: C_6  and  N_7
REMARK    4  A    between atoms: N_7  and  C_8
REMARK    5  A    between atoms: C_11  and  C_12
REMARK    6  A    between atoms: C_15  and  C_16
REMARK    7  A    between atoms: C_17  and  S_18
REMARK    8  A    between atoms: S_18  and  N_21
REMARK                            x       y       z     vdW  Elec       q    Type
REMARK                         _______ _______ _______ _____ _____    ______ ____
ROOT
ATOM      1  C   UNL     1       1.185   9.088  20.833  0.00  0.00    +0.000 A 
ATOM      2  N   UNL     1       1.029   9.705  22.026  0.00  0.00    +0.000 NA
ATOM      3  N   UNL     1       0.373  10.931  22.080  0.00  0.00    +0.000 NA
ATOM      4  C   UNL     1      -0.239  11.391  20.972  0.00  0.00    +0.000 A 
ATOM      5  C   UNL     1      -0.614  10.352  20.116  0.00  0.00    +0.000 A 
ATOM      6  C   UNL     1      -1.834  10.225  19.420  0.00  0.00    +0.000 A 
ATOM      7  C   UNL     1      -1.807  10.132  18.039  0.00  0.00    +0.000 A 
ATOM      8  C   UNL     1      -0.562  10.076  17.440  0.00  0.00    +0.000 A 
ATOM      9  C   UNL     1       0.539   9.675  18.237  0.00  0.00    +0.000 A 
ATOM     10  C   UNL     1       0.448   9.606  19.688  0.00  0.00    +0.000 A 
ENDROOT
BRANCH   4  11
ATOM     11  C   UNL     1       0.574  12.562  20.334  0.00  0.00    +0.000 A 
ATOM     12  C   UNL     1       0.009  13.278  19.253  0.00  0.00    +0.000 A 
ATOM     13  C   UNL     1       0.540  14.484  18.761  0.00  0.00    +0.000 A 
ATOM     14  C   UNL     1       1.695  15.055  19.302  0.00  0.00    +0.000 A 
ATOM     15  C   UNL     1       2.098  16.431  18.841  0.00  0.00    +0.000 C 
ATOM     16  C   UNL     1       2.351  14.339  20.320  0.00  0.00    +0.000 A 
ATOM     17  C   UNL     1       1.777  13.122  20.847  0.00  0.00    +0.000 A 
BRANCH  16  18
ATOM     18  S   UNL     1       3.775  15.053  21.154  0.00  0.00    +0.000 S 
ATOM     19  O   UNL     1       3.292  16.094  21.991  0.00  0.00    +0.000 OA
ATOM     20  O   UNL     1       4.539  13.958  21.706  0.00  0.00    +0.000 OA
BRANCH  18  21
ATOM     21  N   UNL     1       4.796  15.796  19.945  0.00  0.00    +0.000 NA
ATOM     22  C   UNL     1       5.933  15.004  19.368  0.00  0.00    +0.000 C 
ATOM     23  C   UNL     1       7.092  14.886  20.365  0.00  0.00    +0.000 C 
ATOM     24  O   UNL     1       7.554  16.174  20.808  0.00  0.00    +0.000 OA
ATOM     25  C   UNL     1       6.496  16.978  21.354  0.00  0.00    +0.000 C 
ATOM     26  C   UNL     1       5.350  17.141  20.346  0.00  0.00    +0.000 C 
ENDBRANCH  18  21
ENDBRANCH  16  18
ENDBRANCH   4  11
BRANCH   1  27
ATOM     27  N   UNL     1       2.225   8.097  20.724  0.00  0.00    +0.000 N 
ATOM     28  H   UNL     1       2.199   7.751  21.693  0.00  0.00    +0.000 HD
BRANCH  27  32
ATOM     29  C   UNL     1       1.622   4.290  18.768  0.00  0.00    +0.000 A 
ATOM     30  C   UNL     1       2.224   5.343  18.077  0.00  0.00    +0.000 A 
ATOM     31  C   UNL     1       2.511   6.591  18.692  0.00  0.00    +0.000 A 
ATOM     32  C   UNL     1       2.181   6.816  20.034  0.00  0.00    +0.000 A 
ATOM     33  C   UNL     1       1.590   5.729  20.720  0.00  0.00    +0.000 A 
ATOM     34  C   UNL     1       1.317   4.482  20.112  0.00  0.00    +0.000 A 
BRANCH  29  36
ATOM     35  C   UNL     1       2.430   2.319  17.646  0.00  0.00    +0.000 C 
ATOM     36  O   UNL     1       1.349   3.172  18.022  0.00  0.00    +0.000 OA
ENDBRANCH  29  36
ENDBRANCH  27  32
ENDBRANCH   1  27
TORSDOF 6
ENDMDL
MODEL 8
REMARK VINA RESULT:      -7.4      1.133      1.581
REMARK  Name = 
REMARK  8 active torsions:
REMARK  status: ('A' for Active; 'I' for Inactive)
REMARK    1  A    between atoms: C_1  and  O_2
REMARK    2  A    between atoms: O_2  and  C_3
REMARK    3  A    between atoms: C_6  and  N_7
REMARK    4  A    between atoms: N_7  and  C_8
REMARK    5  A    between atoms: C_11  and  C_12
REMARK    6  A    between atoms: C_15  and  C_16
REMARK    7  A    between atoms: C_17  and  S_18
REMARK    8  A    between atoms: S_18  and  N_21
REMARK                            x       y       z     vdW  Elec       q    Type
REMARK                         _______ _______ _______ _____ _____    ______ ____
ROOT
ATOM      1  C   UNL     1       1.580   9.702  18.703  0.00  0.00    +0.000 A 
ATOM      2  N   UNL     1       1.920  10.934  18.260  0.00  0.00    +0.000 NA
ATOM      3  N   UNL     1       1.281  12.050  18.788  0.00  0.00    +0.000 NA
ATOM      4  C   UNL     1       0.462  11.892  19.846  0.00  0.00    +0.000 A 
ATOM      5  C   UNL     1       0.802  10.769  20.603  0.00  0.00    +0.000 A 
ATOM      6  C   UNL     1       0.853  10.677  22.008  0.00  0.00    +0.000 A 
ATOM      7  C   UNL     1       0.060   9.737  22.645  0.00  0.00    +0.000 A 
ATOM      8  C   UNL     1      -0.666   8.882  21.837  0.00  0.00    +0.000 A 
ATOM      9  C   UNL     1      -0.238   8.712  20.497  0.00  0.00    +0.000 A 
ATOM     10  C   UNL     1       0.736   9.606  19.887  0.00  0.00    +0.000 A 
ENDROOT
BRANCH   4  11
ATOM     11  C   UNL     1      -1.034  12.017  19.413  0.00  0.00    +0.000 A 
ATOM     12  C   UNL     1      -1.443  11.436  18.191  0.00  0.00    +0.000 A 
ATOM     13  C   UNL     1      -2.791  11.284  17.818  0.00  0.00    +0.000 A 
ATOM     14  C   UNL     1      -3.835  11.724  18.636  0.00  0.00    +0.000 A 
ATOM     15  C   UNL     1      -5.247  11.367  18.252  0.00  0.00    +0.000 C 
ATOM     16  C   UNL     1      -3.485  12.393  19.823  0.00  0.00    +0.000 A 
ATOM     17  C   UNL     1      -2.099  12.508  20.218  0.00  0.00    +0.000 A 
BRANCH  16  18
ATOM     18  S   UNL     1      -4.759  12.889  20.992  0.00  0.00    +0.000 S 
ATOM     19  O   UNL     1      -5.664  11.801  21.111  0.00  0.00    +0.000 OA
ATOM     20  O   UNL     1      -4.086  13.419  22.155  0.00  0.00    +0.000 OA
BRANCH  18  21
ATOM     21  N   UNL     1      -5.646  14.223  20.293  0.00  0.00    +0.000 NA
ATOM     22  C   UNL     1      -5.404  15.608  20.816  0.00  0.00    +0.000 C 
ATOM     23  C   UNL     1      -6.060  15.808  22.188  0.00  0.00    +0.000 C 
ATOM     24  O   UNL     1      -7.470  15.524  22.157  0.00  0.00    +0.000 OA
ATOM     25  C   UNL     1      -7.753  14.212  21.646  0.00  0.00    +0.000 C 
ATOM     26  C   UNL     1      -7.140  14.018  20.253  0.00  0.00    +0.000 C 
ENDBRANCH  18  21
ENDBRANCH  16  18
ENDBRANCH   4  11
BRANCH   1  27
ATOM     27  N   UNL     1       1.894   8.578  17.859  0.00  0.00    +0.000 N 
ATOM     28  H   UNL     1       2.617   9.026  17.281  0.00  0.00    +0.000 HD
BRANCH  27  32
ATOM     29  C   UNL     1       4.430   5.252  18.952  0.00  0.00    +0.000 A 
ATOM     30  C   UNL     1       3.248   5.491  19.656  0.00  0.00    +0.000 A 
ATOM     31  C   UNL     1       2.343   6.524  19.295  0.00  0.00    +0.000 A 
ATOM     32  C   UNL     1       2.618   7.363  18.208  0.00  0.00    +0.000 A 
ATOM     33  C   UNL     1       3.811   7.092  17.499  0.00  0.00    +0.000 A 
ATOM     34  C   UNL     1       4.705   6.054  17.850  0.00  0.00    +0.000 A 
BRANCH  29  36
ATOM     35  C   UNL     1       4.691   2.951  19.609  0.00  0.00    +0.000 C 
ATOM     36  O   UNL     1       5.232   4.263  19.461  0.00  0.00    +0.000 OA
ENDBRANCH  29  36
ENDBRANCH  27  32
ENDBRANCH   1  27
TORSDOF 6
ENDMDL
MODEL 9
REMARK VINA RESULT:      -7.3      2.502      4.265
REMARK  Name = 
REMARK  8 active torsions:
REMARK  status: ('A' for Active; 'I' for Inactive)
REMARK    1  A    between atoms: C_1  and  O_2
REMARK    2  A    between atoms: O_2  and  C_3
REMARK    3  A    between atoms: C_6  and  N_7
REMARK    4  A    between atoms: N_7  and  C_8
REMARK    5  A    between atoms: C_11  and  C_12
REMARK    6  A    between atoms: C_15  and  C_16
REMARK    7  A    between atoms: C_17  and  S_18
REMARK    8  A    between atoms: S_18  and  N_21
REMARK                            x       y       z     vdW  Elec       q    Type
REMARK                         _______ _______ _______ _____ _____    ______ ____
ROOT
ATOM      1  C   UNL     1       0.563  11.618  19.462  0.00  0.00    +0.000 A 
ATOM      2  N   UNL     1      -0.543  11.829  18.713  0.00  0.00    +0.000 NA
ATOM      3  N   UNL     1      -0.901  13.130  18.376  0.00  0.00    +0.000 NA
ATOM      4  C   UNL     1      -0.048  14.134  18.657  0.00  0.00    +0.000 A 
ATOM      5  C   UNL     1       1.275  13.690  18.719  0.00  0.00    +0.000 A 
ATOM      6  C   UNL     1       2.410  14.330  18.182  0.00  0.00    +0.000 A 
ATOM      7  C   UNL     1       3.446  14.677  19.032  0.00  0.00    +0.000 A 
ATOM      8  C   UNL     1       3.329  14.282  20.352  0.00  0.00    +0.000 A 
ATOM      9  C   UNL     1       2.444  13.215  20.649  0.00  0.00    +0.000 A 
ATOM     10  C   UNL     1       1.471  12.737  19.678  0.00  0.00    +0.000 A 
ENDROOT
BRANCH   4  11
ATOM     11  C   UNL     1      -0.560  14.974  19.871  0.00  0.00    +0.000 A 
ATOM     12  C   UNL     1      -0.069  16.288  20.050  0.00  0.00    +0.000 A 
ATOM     13  C   UNL     1      -0.626  17.206  20.957  0.00  0.00    +0.000 A 
ATOM     14  C   UNL     1      -1.710  16.870  21.774  0.00  0.00    +0.000 A 
ATOM     15  C   UNL     1      -2.360  17.958  22.587  0.00  0.00    +0.000 C 
ATOM     16  C   UNL     1      -2.182  15.547  21.704  0.00  0.00    +0.000 A 
ATOM     17  C   UNL     1      -1.630  14.621  20.740  0.00  0.00    +0.000 A 
BRANCH  16  18
ATOM     18  S   UNL     1      -3.644  15.059  22.630  0.00  0.00    +0.000 S 
ATOM     19  O   UNL     1      -3.339  15.213  24.008  0.00  0.00    +0.000 OA
ATOM     20  O   UNL     1      -4.770  15.748  22.042  0.00  0.00    +0.000 OA
BRANCH  18  21
ATOM     21  N   UNL     1      -3.919  13.355  22.350  0.00  0.00    +0.000 NA
ATOM     22  C   UNL     1      -5.310  12.887  22.035  0.00  0.00    +0.000 C 
ATOM     23  C   UNL     1      -6.197  12.890  23.285  0.00  0.00    +0.000 C 
ATOM     24  O   UNL     1      -5.633  12.100  24.347  0.00  0.00    +0.000 OA
ATOM     25  C   UNL     1      -4.293  12.501  24.675  0.00  0.00    +0.000 C 
ATOM     26  C   UNL     1      -3.385  12.457  23.438  0.00  0.00    +0.000 C 
ENDBRANCH  18  21
ENDBRANCH  16  18
ENDBRANCH   4  11
BRANCH   1  27
ATOM     27  N   UNL     1       0.663  10.367  20.168  0.00  0.00    +0.000 N 
ATOM     28  H   UNL     1      -0.330  10.102  20.138  0.00  0.00    +0.000 HD
BRANCH  27  32
ATOM     29  C   UNL     1       2.749   6.897  18.652  0.00  0.00    +0.000 A 
ATOM     30  C   UNL     1       2.280   6.912  19.967  0.00  0.00    +0.000 A 
ATOM     31  C   UNL     1       1.527   7.994  20.494  0.00  0.00    +0.000 A 
ATOM     32  C   UNL     1       1.236   9.111  19.702  0.00  0.00    +0.000 A 
ATOM     33  C   UNL     1       1.705   9.067  18.368  0.00  0.00    +0.000 A 
ATOM     34  C   UNL     1       2.443   7.983  17.839  0.00  0.00    +0.000 A 
BRANCH  29  36
ATOM     35  C   UNL     1       3.206   4.545  18.884  0.00  0.00    +0.000 C 
ATOM     36  O   UNL     1       3.517   5.813  18.309  0.00  0.00    +0.000 OA
ENDBRANCH  29  36
ENDBRANCH  27  32
ENDBRANCH   1  27
TORSDOF 6
ENDMDL
