MODEL 1
REMARK VINA RESULT:      -7.7      0.000      0.000
REMARK  Name = 
REMARK  4 active torsions:
REMARK  status: ('A' for Active; 'I' for Inactive)
REMARK    1  A    between atoms: C_1  and  N_2
REMARK    2  A    between atoms: C_4  and  C_5
REMARK    3  A    between atoms: C_7  and  C_8
REMARK    4  A    between atoms: C_11  and  C_12
REMARK                            x       y       z     vdW  Elec       q    Type
REMARK                         _______ _______ _______ _____ _____    ______ ____
ROOT
ATOM      1  C   UNL     1       1.240   8.659  19.724  0.00  0.00    +0.000 A 
ATOM      2  N   UNL     1       1.885   8.366  18.624  0.00  0.00    +0.000 NA
ATOM      3  C   UNL     1       2.541   7.202  18.945  0.00  0.00    +0.000 A 
ATOM      4  N   UNL     1       2.304   6.786  20.203  0.00  0.00    +0.000 NA
ATOM      5  O   UNL     1       1.440   7.754  20.722  0.00  0.00    +0.000 OA
ENDROOT
BRANCH   1   9
ATOM      6  C   UNL     1       1.041  13.304  21.090  0.00  0.00    +0.000 C 
ATOM      7  N   UNL     1       0.527  11.976  20.845  0.00  0.00    +0.000 N 
ATOM      8  C   UNL     1       1.092  11.122  19.835  0.00  0.00    +0.000 C 
ATOM      9  C   UNL     1       0.341   9.803  19.980  0.00  0.00    +0.000 C 
ATOM     10  C   UNL     1      -0.171   9.806  21.424  0.00  0.00    +0.000 C 
ATOM     11  C   UNL     1      -0.107  11.251  21.841  0.00  0.00    +0.000 C 
ATOM     12  O   UNL     1      -0.513  11.688  22.905  0.00  0.00    +0.000 OA
ENDBRANCH   1   9
BRANCH   3  13
ATOM     13  C   UNL     1       3.387   6.506  17.986  0.00  0.00    +0.000 A 
ATOM     14  C   UNL     1       4.290   7.205  17.172  0.00  0.00    +0.000 A 
ATOM     15  C   UNL     1       5.113   6.523  16.265  0.00  0.00    +0.000 A 
ATOM     16  C   UNL     1       5.050   5.127  16.153  0.00  0.00    +0.000 A 
ATOM     17  C   UNL     1       4.144   4.427  16.957  0.00  0.00    +0.000 A 
ATOM     18  C   UNL     1       3.327   5.112  17.859  0.00  0.00    +0.000 A 
ATOM     19  F   UNL     1       2.488   4.376  18.602  0.00  0.00    +0.000 F 
BRANCH  16  20
ATOM     20  C   UNL     1       5.937   4.367  15.197  0.00  0.00    +0.000 C 
ATOM     21  F   UNL     1       5.505   4.408  13.907  0.00  0.00    +0.000 F 
ATOM     22  F   UNL     1       7.210   4.846  15.183  0.00  0.00    +0.000 F 
ATOM     23  F   UNL     1       6.034   3.049  15.518  0.00  0.00    +0.000 F 
ENDBRANCH  16  20
ENDBRANCH   3  13
TORSDOF 3
ENDMDL
MODEL 2
REMARK VINA RESULT:      -7.6      4.231      8.540
REMARK  Name = 
REMARK  4 active torsions:
REMARK  status: ('A' for Active; 'I' for Inactive)
REMARK    1  A    between atoms: C_1  and  N_2
REMARK    2  A    between atoms: C_4  and  C_5
REMARK    3  A    between atoms: C_7  and  C_8
REMARK    4  A    between atoms: C_11  and  C_12
REMARK                            x       y       z     vdW  Elec       q    Type
REMARK                         _______ _______ _______ _____ _____    ______ ____
ROOT
ATOM      1  C   UNL     1       4.145   6.765  17.463  0.00  0.00    +0.000 A 
ATOM      2  N   UNL     1       3.698   7.841  18.057  0.00  0.00    +0.000 NA
ATOM      3  C   UNL     1       2.534   7.415  18.648  0.00  0.00    +0.000 A 
ATOM      4  N   UNL     1       2.273   6.112  18.431  0.00  0.00    +0.000 NA
ATOM      5  O   UNL     1       3.342   5.680  17.643  0.00  0.00    +0.000 OA
ENDROOT
BRANCH   1   9
ATOM      6  C   UNL     1       6.468   3.936  14.288  0.00  0.00    +0.000 C 
ATOM      7  N   UNL     1       6.342   4.961  15.297  0.00  0.00    +0.000 N 
ATOM      8  C   UNL     1       5.133   5.725  15.452  0.00  0.00    +0.000 C 
ATOM      9  C   UNL     1       5.383   6.602  16.673  0.00  0.00    +0.000 C 
ATOM     10  C   UNL     1       6.464   5.862  17.466  0.00  0.00    +0.000 C 
ATOM     11  C   UNL     1       7.079   4.917  16.470  0.00  0.00    +0.000 C 
ATOM     12  O   UNL     1       8.044   4.203  16.689  0.00  0.00    +0.000 OA
ENDBRANCH   1   9
BRANCH   3  13
ATOM     13  C   UNL     1       1.700   8.307  19.440  0.00  0.00    +0.000 A 
ATOM     14  C   UNL     1       1.443   8.050  20.795  0.00  0.00    +0.000 A 
ATOM     15  C   UNL     1       0.653   8.925  21.553  0.00  0.00    +0.000 A 
ATOM     16  C   UNL     1       0.102  10.077  20.972  0.00  0.00    +0.000 A 
ATOM     17  C   UNL     1       0.350  10.331  19.618  0.00  0.00    +0.000 A 
ATOM     18  C   UNL     1       1.137   9.456  18.869  0.00  0.00    +0.000 A 
ATOM     19  F   UNL     1       1.337   9.767  17.580  0.00  0.00    +0.000 F 
BRANCH  16  20
ATOM     20  C   UNL     1      -0.738  11.044  21.770  0.00  0.00    +0.000 C 
ATOM     21  F   UNL     1      -0.042  12.123  22.221  0.00  0.00    +0.000 F 
ATOM     22  F   UNL     1      -1.777  11.541  21.046  0.00  0.00    +0.000 F 
ATOM     23  F   UNL     1      -1.288  10.464  22.871  0.00  0.00    +0.000 F 
ENDBRANCH  16  20
ENDBRANCH   3  13
TORSDOF 3
ENDMDL
MODEL 3
REMARK VINA RESULT:      -7.6      4.451      8.609
REMARK  Name = 
REMARK  4 active torsions:
REMARK  status: ('A' for Active; 'I' for Inactive)
REMARK    1  A    between atoms: C_1  and  N_2
REMARK    2  A    between atoms: C_4  and  C_5
REMARK    3  A    between atoms: C_7  and  C_8
REMARK    4  A    between atoms: C_11  and  C_12
REMARK                            x       y       z     vdW  Elec       q    Type
REMARK                         _______ _______ _______ _____ _____    ______ ____
ROOT
ATOM      1  C   UNL     1       2.944   6.795  18.285  0.00  0.00    +0.000 A 
ATOM      2  N   UNL     1       2.156   7.097  19.286  0.00  0.00    +0.000 NA
ATOM      3  C   UNL     1       1.904   8.433  19.096  0.00  0.00    +0.000 A 
ATOM      4  N   UNL     1       2.513   8.941  18.008  0.00  0.00    +0.000 NA
ATOM      5  O   UNL     1       3.205   7.853  17.469  0.00  0.00    +0.000 OA
ENDROOT
BRANCH   1   9
ATOM      6  C   UNL     1       2.433   1.998  18.735  0.00  0.00    +0.000 C 
ATOM      7  N   UNL     1       3.139   3.233  18.483  0.00  0.00    +0.000 N 
ATOM      8  C   UNL     1       2.469   4.394  17.962  0.00  0.00    +0.000 C 
ATOM      9  C   UNL     1       3.534   5.483  17.949  0.00  0.00    +0.000 C 
ATOM     10  C   UNL     1       4.554   5.038  19.002  0.00  0.00    +0.000 C 
ATOM     11  C   UNL     1       4.282   3.570  19.191  0.00  0.00    +0.000 C 
ATOM     12  O   UNL     1       4.945   2.822  19.891  0.00  0.00    +0.000 OA
ENDBRANCH   1   9
BRANCH   3  13
ATOM     13  C   UNL     1       1.044   9.190  19.994  0.00  0.00    +0.000 A 
ATOM     14  C   UNL     1       1.126   9.030  21.385  0.00  0.00    +0.000 A 
ATOM     15  C   UNL     1       0.305   9.777  22.242  0.00  0.00    +0.000 A 
ATOM     16  C   UNL     1      -0.616  10.699  21.726  0.00  0.00    +0.000 A 
ATOM     17  C   UNL     1      -0.707  10.855  20.337  0.00  0.00    +0.000 A 
ATOM     18  C   UNL     1       0.114  10.108  19.490  0.00  0.00    +0.000 A 
ATOM     19  F   UNL     1      -0.024  10.314  18.172  0.00  0.00    +0.000 F 
BRANCH  16  20
ATOM     20  C   UNL     1      -1.499  11.527  22.626  0.00  0.00    +0.000 C 
ATOM     21  F   UNL     1      -2.524  12.137  21.970  0.00  0.00    +0.000 F 
ATOM     22  F   UNL     1      -2.072  10.784  23.611  0.00  0.00    +0.000 F 
ATOM     23  F   UNL     1      -0.812  12.519  23.255  0.00  0.00    +0.000 F 
ENDBRANCH  16  20
ENDBRANCH   3  13
TORSDOF 3
ENDMDL
MODEL 4
REMARK VINA RESULT:      -7.6      1.728      2.112
REMARK  Name = 
REMARK  4 active torsions:
REMARK  status: ('A' for Active; 'I' for Inactive)
REMARK    1  A    between atoms: C_1  and  N_2
REMARK    2  A    between atoms: C_4  and  C_5
REMARK    3  A    between atoms: C_7  and  C_8
REMARK    4  A    between atoms: C_11  and  C_12
REMARK                            x       y       z     vdW  Elec       q    Type
REMARK                         _______ _______ _______ _____ _____    ______ ____
ROOT
ATOM      1  C   UNL     1       1.251   9.447  18.562  0.00  0.00    +0.000 A 
ATOM      2  N   UNL     1       2.038   8.911  17.665  0.00  0.00    +0.000 NA
ATOM      3  C   UNL     1       2.581   7.836  18.324  0.00  0.00    +0.000 A 
ATOM      4  N   UNL     1       2.139   7.707  19.589  0.00  0.00    +0.000 NA
ATOM      5  O   UNL     1       1.255   8.778  19.748  0.00  0.00    +0.000 OA
ENDROOT
BRANCH   1   9
ATOM      6  C   UNL     1      -1.940  12.296  20.839  0.00  0.00    +0.000 C 
ATOM      7  N   UNL     1      -1.262  11.717  19.701  0.00  0.00    +0.000 N 
ATOM      8  C   UNL     1       0.097  11.254  19.786  0.00  0.00    +0.000 C 
ATOM      9  C   UNL     1       0.380  10.632  18.424  0.00  0.00    +0.000 C 
ATOM     10  C   UNL     1      -1.001  10.256  17.877  0.00  0.00    +0.000 C 
ATOM     11  C   UNL     1      -1.963  11.079  18.690  0.00  0.00    +0.000 C 
ATOM     12  O   UNL     1      -3.168  11.132  18.502  0.00  0.00    +0.000 OA
ENDBRANCH   1   9
BRANCH   3  13
ATOM     13  C   UNL     1       3.527   6.934  17.681  0.00  0.00    +0.000 A 
ATOM     14  C   UNL     1       4.689   7.421  17.064  0.00  0.00    +0.000 A 
ATOM     15  C   UNL     1       5.601   6.543  16.462  0.00  0.00    +0.000 A 
ATOM     16  C   UNL     1       5.371   5.160  16.465  0.00  0.00    +0.000 A 
ATOM     17  C   UNL     1       4.208   4.672  17.072  0.00  0.00    +0.000 A 
ATOM     18  C   UNL     1       3.303   5.552  17.669  0.00  0.00    +0.000 A 
ATOM     19  F   UNL     1       2.214   5.013  18.237  0.00  0.00    +0.000 F 
BRANCH  16  20
ATOM     20  C   UNL     1       6.346   4.192  15.840  0.00  0.00    +0.000 C 
ATOM     21  F   UNL     1       7.508   4.066  16.535  0.00  0.00    +0.000 F 
ATOM     22  F   UNL     1       5.830   2.937  15.736  0.00  0.00    +0.000 F 
ATOM     23  F   UNL     1       6.701   4.558  14.578  0.00  0.00    +0.000 F 
ENDBRANCH  16  20
ENDBRANCH   3  13
TORSDOF 3
ENDMDL
MODEL 5
REMARK VINA RESULT:      -7.5      4.185      8.456
REMARK  Name = 
REMARK  4 active torsions:
REMARK  status: ('A' for Active; 'I' for Inactive)
REMARK    1  A    between atoms: C_1  and  N_2
REMARK    2  A    between atoms: C_4  and  C_5
REMARK    3  A    between atoms: C_7  and  C_8
REMARK    4  A    between atoms: C_11  and  C_12
REMARK                            x       y       z     vdW  Elec       q    Type
REMARK                         _______ _______ _______ _____ _____    ______ ____
ROOT
ATOM      1  C   UNL     1       3.068   6.939  17.995  0.00  0.00    +0.000 A 
ATOM      2  N   UNL     1       2.407   7.274  19.073  0.00  0.00    +0.000 NA
ATOM      3  C   UNL     1       1.942   8.532  18.779  0.00  0.00    +0.000 A 
ATOM      4  N   UNL     1       2.299   8.959  17.553  0.00  0.00    +0.000 NA
ATOM      5  O   UNL     1       3.048   7.901  17.032  0.00  0.00    +0.000 OA
ENDROOT
BRANCH   1   9
ATOM      6  C   UNL     1       2.831   2.109  18.310  0.00  0.00    +0.000 C 
ATOM      7  N   UNL     1       3.477   3.393  18.163  0.00  0.00    +0.000 N 
ATOM      8  C   UNL     1       2.798   4.519  17.581  0.00  0.00    +0.000 C 
ATOM      9  C   UNL     1       3.781   5.676  17.714  0.00  0.00    +0.000 C 
ATOM     10  C   UNL     1       4.695   5.274  18.876  0.00  0.00    +0.000 C 
ATOM     11  C   UNL     1       4.501   3.788  19.009  0.00  0.00    +0.000 C 
ATOM     12  O   UNL     1       5.124   3.069  19.774  0.00  0.00    +0.000 OA
ENDBRANCH   1   9
BRANCH   3  13
ATOM     13  C   UNL     1       1.129   9.291  19.718  0.00  0.00    +0.000 A 
ATOM     14  C   UNL     1       0.625  10.557  19.384  0.00  0.00    +0.000 A 
ATOM     15  C   UNL     1      -0.171  11.273  20.289  0.00  0.00    +0.000 A 
ATOM     16  C   UNL     1      -0.480  10.739  21.548  0.00  0.00    +0.000 A 
ATOM     17  C   UNL     1       0.029   9.480  21.888  0.00  0.00    +0.000 A 
ATOM     18  C   UNL     1       0.821   8.772  20.982  0.00  0.00    +0.000 A 
ATOM     19  F   UNL     1       1.268   7.570  21.373  0.00  0.00    +0.000 F 
BRANCH  16  20
ATOM     20  C   UNL     1      -1.348  11.481  22.534  0.00  0.00    +0.000 C 
ATOM     21  F   UNL     1      -1.744  10.720  23.590  0.00  0.00    +0.000 F 
ATOM     22  F   UNL     1      -0.716  12.562  23.065  0.00  0.00    +0.000 F 
ATOM     23  F   UNL     1      -2.489  11.955  21.964  0.00  0.00    +0.000 F 
ENDBRANCH  16  20
ENDBRANCH   3  13
TORSDOF 3
ENDMDL
MODEL 6
REMARK VINA RESULT:      -7.5      4.559      8.655
REMARK  Name = 
REMARK  4 active torsions:
REMARK  status: ('A' for Active; 'I' for Inactive)
REMARK    1  A    between atoms: C_1  and  N_2
REMARK    2  A    between atoms: C_4  and  C_5
REMARK    3  A    between atoms: C_7  and  C_8
REMARK    4  A    between atoms: C_11  and  C_12
REMARK                            x       y       z     vdW  Elec       q    Type
REMARK                         _______ _______ _______ _____ _____    ______ ____
ROOT
ATOM      1  C   UNL     1       2.752   7.268  18.039  0.00  0.00    +0.000 A 
ATOM      2  N   UNL     1       2.054   7.555  19.109  0.00  0.00    +0.000 NA
ATOM      3  C   UNL     1       1.643   8.845  18.880  0.00  0.00    +0.000 A 
ATOM      4  N   UNL     1       2.069   9.339  17.702  0.00  0.00    +0.000 NA
ATOM      5  O   UNL     1       2.806   8.291  17.143  0.00  0.00    +0.000 OA
ENDROOT
BRANCH   1   9
ATOM      6  C   UNL     1       4.059   2.917  19.725  0.00  0.00    +0.000 C 
ATOM      7  N   UNL     1       4.100   4.057  18.838  0.00  0.00    +0.000 N 
ATOM      8  C   UNL     1       2.938   4.870  18.597  0.00  0.00    +0.000 C 
ATOM      9  C   UNL     1       3.435   6.001  17.706  0.00  0.00    +0.000 C 
ATOM     10  C   UNL     1       4.939   6.082  17.985  0.00  0.00    +0.000 C 
ATOM     11  C   UNL     1       5.275   4.755  18.611  0.00  0.00    +0.000 C 
ATOM     12  O   UNL     1       6.401   4.387  18.904  0.00  0.00    +0.000 OA
ENDBRANCH   1   9
BRANCH   3  13
ATOM     13  C   UNL     1       0.815   9.571  19.832  0.00  0.00    +0.000 A 
ATOM     14  C   UNL     1       1.029   9.457  21.214  0.00  0.00    +0.000 A 
ATOM     15  C   UNL     1       0.237  10.174  22.122  0.00  0.00    +0.000 A 
ATOM     16  C   UNL     1      -0.786  11.019  21.668  0.00  0.00    +0.000 A 
ATOM     17  C   UNL     1      -1.008  11.126  20.290  0.00  0.00    +0.000 A 
ATOM     18  C   UNL     1      -0.215  10.410  19.391  0.00  0.00    +0.000 A 
ATOM     19  F   UNL     1      -0.480  10.568  18.086  0.00  0.00    +0.000 F 
BRANCH  16  20
ATOM     20  C   UNL     1      -1.642  11.813  22.623  0.00  0.00    +0.000 C 
ATOM     21  F   UNL     1      -2.240  11.051  23.579  0.00  0.00    +0.000 F 
ATOM     22  F   UNL     1      -0.927  12.760  23.290  0.00  0.00    +0.000 F 
ATOM     23  F   UNL     1      -2.646  12.477  21.989  0.00  0.00    +0.000 F 
ENDBRANCH  16  20
ENDBRANCH   3  13
TORSDOF 3
ENDMDL
MODEL 7
REMARK VINA RESULT:      -7.4      1.263      1.302
REMARK  Name = 
REMARK  4 active torsions:
REMARK  status: ('A' for Active; 'I' for Inactive)
REMARK    1  A    between atoms: C_1  and  N_2
REMARK    2  A    between atoms: C_4  and  C_5
REMARK    3  A    between atoms: C_7  and  C_8
REMARK    4  A    between atoms: C_11  and  C_12
REMARK                            x       y       z     vdW  Elec       q    Type
REMARK                         _______ _______ _______ _____ _____    ______ ____
ROOT
ATOM      1  C   UNL     1       1.271   9.388  18.591  0.00  0.00    +0.000 A 
ATOM      2  N   UNL     1       2.048   8.860  17.680  0.00  0.00    +0.000 NA
ATOM      3  C   UNL     1       2.621   7.797  18.333  0.00  0.00    +0.000 A 
ATOM      4  N   UNL     1       2.207   7.668  19.607  0.00  0.00    +0.000 NA
ATOM      5  O   UNL     1       1.310   8.725  19.779  0.00  0.00    +0.000 OA
ENDROOT
BRANCH   1   9
ATOM      6  C   UNL     1       0.268  13.799  20.329  0.00  0.00    +0.000 C 
ATOM      7  N   UNL     1       0.006  12.567  19.621  0.00  0.00    +0.000 N 
ATOM      8  C   UNL     1       1.061  11.815  18.996  0.00  0.00    +0.000 C 
ATOM      9  C   UNL     1       0.379  10.559  18.466  0.00  0.00    +0.000 C 
ATOM     10  C   UNL     1      -0.876  10.406  19.330  0.00  0.00    +0.000 C 
ATOM     11  C   UNL     1      -1.082  11.768  19.937  0.00  0.00    +0.000 C 
ATOM     12  O   UNL     1      -2.035  12.087  20.629  0.00  0.00    +0.000 OA
ENDBRANCH   1   9
BRANCH   3  13
ATOM     13  C   UNL     1       3.567   6.908  17.674  0.00  0.00    +0.000 A 
ATOM     14  C   UNL     1       4.724   7.407  17.056  0.00  0.00    +0.000 A 
ATOM     15  C   UNL     1       5.637   6.540  16.440  0.00  0.00    +0.000 A 
ATOM     16  C   UNL     1       5.414   5.155  16.428  0.00  0.00    +0.000 A 
ATOM     17  C   UNL     1       4.256   4.656  17.037  0.00  0.00    +0.000 A 
ATOM     18  C   UNL     1       3.351   5.524  17.649  0.00  0.00    +0.000 A 
ATOM     19  F   UNL     1       2.268   4.974  18.217  0.00  0.00    +0.000 F 
BRANCH  16  20
ATOM     20  C   UNL     1       6.389   4.200  15.787  0.00  0.00    +0.000 C 
ATOM     21  F   UNL     1       6.764   4.568  14.532  0.00  0.00    +0.000 F 
ATOM     22  F   UNL     1       7.539   4.078  16.504  0.00  0.00    +0.000 F 
ATOM     23  F   UNL     1       5.882   2.942  15.673  0.00  0.00    +0.000 F 
ENDBRANCH  16  20
ENDBRANCH   3  13
TORSDOF 3
ENDMDL
MODEL 8
REMARK VINA RESULT:      -7.3      4.722      9.081
REMARK  Name = 
REMARK  4 active torsions:
REMARK  status: ('A' for Active; 'I' for Inactive)
REMARK    1  A    between atoms: C_1  and  N_2
REMARK    2  A    between atoms: C_4  and  C_5
REMARK    3  A    between atoms: C_7  and  C_8
REMARK    4  A    between atoms: C_11  and  C_12
REMARK                            x       y       z     vdW  Elec       q    Type
REMARK                         _______ _______ _______ _____ _____    ______ ____
ROOT
ATOM      1  C   UNL     1       1.973   6.435  20.347  0.00  0.00    +0.000 A 
ATOM      2  N   UNL     1       1.165   7.051  21.172  0.00  0.00    +0.000 NA
ATOM      3  C   UNL     1       1.086   8.318  20.649  0.00  0.00    +0.000 A 
ATOM      4  N   UNL     1       1.818   8.479  19.531  0.00  0.00    +0.000 NA
ATOM      5  O   UNL     1       2.408   7.228  19.330  0.00  0.00    +0.000 OA
ENDROOT
BRANCH   1   9
ATOM      6  C   UNL     1       3.726   2.769  17.708  0.00  0.00    +0.000 C 
ATOM      7  N   UNL     1       3.080   3.390  18.842  0.00  0.00    +0.000 N 
ATOM      8  C   UNL     1       3.384   4.738  19.240  0.00  0.00    +0.000 C 
ATOM      9  C   UNL     1       2.423   5.028  20.387  0.00  0.00    +0.000 C 
ATOM     10  C   UNL     1       1.258   4.058  20.171  0.00  0.00    +0.000 C 
ATOM     11  C   UNL     1       1.816   3.001  19.256  0.00  0.00    +0.000 C 
ATOM     12  O   UNL     1       1.221   1.992  18.911  0.00  0.00    +0.000 OA
ENDBRANCH   1   9
BRANCH   3  13
ATOM     13  C   UNL     1       0.267   9.355  21.260  0.00  0.00    +0.000 A 
ATOM     14  C   UNL     1      -0.051   9.317  22.627  0.00  0.00    +0.000 A 
ATOM     15  C   UNL     1      -0.826  10.330  23.209  0.00  0.00    +0.000 A 
ATOM     16  C   UNL     1      -1.299  11.402  22.438  0.00  0.00    +0.000 A 
ATOM     17  C   UNL     1      -0.991  11.437  21.073  0.00  0.00    +0.000 A 
ATOM     18  C   UNL     1      -0.219  10.425  20.500  0.00  0.00    +0.000 A 
ATOM     19  F   UNL     1       0.043  10.528  19.188  0.00  0.00    +0.000 F 
BRANCH  16  20
ATOM     20  C   UNL     1      -2.120  12.513  23.044  0.00  0.00    +0.000 C 
ATOM     21  F   UNL     1      -2.745  13.292  22.120  0.00  0.00    +0.000 F 
ATOM     22  F   UNL     1      -3.099  12.042  23.864  0.00  0.00    +0.000 F 
ATOM     23  F   UNL     1      -1.369  13.357  23.802  0.00  0.00    +0.000 F 
ENDBRANCH  16  20
ENDBRANCH   3  13
TORSDOF 3
ENDMDL
MODEL 9
REMARK VINA RESULT:      -7.3      3.404      4.158
REMARK  Name = 
REMARK  4 active torsions:
REMARK  status: ('A' for Active; 'I' for Inactive)
REMARK    1  A    between atoms: C_1  and  N_2
REMARK    2  A    between atoms: C_4  and  C_5
REMARK    3  A    between atoms: C_7  and  C_8
REMARK    4  A    between atoms: C_11  and  C_12
REMARK                            x       y       z     vdW  Elec       q    Type
REMARK                         _______ _______ _______ _____ _____    ______ ____
ROOT
ATOM      1  C   UNL     1       1.578  10.183  18.597  0.00  0.00    +0.000 A 
ATOM      2  N   UNL     1       1.432   9.112  19.335  0.00  0.00    +0.000 NA
ATOM      3  C   UNL     1       2.010   8.125  18.575  0.00  0.00    +0.000 A 
ATOM      4  N   UNL     1       2.503   8.572  17.405  0.00  0.00    +0.000 NA
ATOM      5  O   UNL     1       2.216   9.940  17.419  0.00  0.00    +0.000 OA
ENDROOT
BRANCH   1   9
ATOM      6  C   UNL     1       3.146  14.711  19.310  0.00  0.00    +0.000 C 
ATOM      7  N   UNL     1       2.215  13.609  19.385  0.00  0.00    +0.000 N 
ATOM      8  C   UNL     1       2.201  12.563  18.397  0.00  0.00    +0.000 C 
ATOM      9  C   UNL     1       1.164  11.567  18.902  0.00  0.00    +0.000 C 
ATOM     10  C   UNL     1       1.094  11.815  20.412  0.00  0.00    +0.000 C 
ATOM     11  C   UNL     1       1.695  13.182  20.597  0.00  0.00    +0.000 C 
ATOM     12  O   UNL     1       1.746  13.785  21.657  0.00  0.00    +0.000 OA
ENDBRANCH   1   9
BRANCH   3  13
ATOM     13  C   UNL     1       2.079   6.743  19.030  0.00  0.00    +0.000 A 
ATOM     14  C   UNL     1       2.418   5.705  18.149  0.00  0.00    +0.000 A 
ATOM     15  C   UNL     1       2.499   4.381  18.602  0.00  0.00    +0.000 A 
ATOM     16  C   UNL     1       2.244   4.066  19.944  0.00  0.00    +0.000 A 
ATOM     17  C   UNL     1       1.896   5.099  20.823  0.00  0.00    +0.000 A 
ATOM     18  C   UNL     1       1.817   6.415  20.366  0.00  0.00    +0.000 A 
ATOM     19  F   UNL     1       1.486   7.353  21.266  0.00  0.00    +0.000 F 
BRANCH  16  20
ATOM     20  C   UNL     1       2.341   2.651  20.459  0.00  0.00    +0.000 C 
ATOM     21  F   UNL     1       3.579   2.325  20.920  0.00  0.00    +0.000 F 
ATOM     22  F   UNL     1       1.482   2.418  21.489  0.00  0.00    +0.000 F 
ATOM     23  F   UNL     1       2.040   1.730  19.504  0.00  0.00    +0.000 F 
ENDBRANCH  16  20
ENDBRANCH   3  13
TORSDOF 3
ENDMDL
