MODEL 1
REMARK VINA RESULT:      -7.8      0.000      0.000
REMARK  Name = 
REMARK  6 active torsions:
REMARK  status: ('A' for Active; 'I' for Inactive)
REMARK    1  A    between atoms: C_1  and  C_2
REMARK    2  A    between atoms: C_2  and  C_4
REMARK    3  A    between atoms: C_7  and  N_8
REMARK    4  A    between atoms: C_9  and  C_10
REMARK    5  A    between atoms: N_12  and  C_13
REMARK    6  A    between atoms: C_26  and  C_27
REMARK                            x       y       z     vdW  Elec       q    Type
REMARK                         _______ _______ _______ _____ _____    ______ ____
ROOT
ATOM      1  C   UNL     1      -1.518  12.526  20.952  0.00  0.00    +0.000 A 
ATOM      2  C   UNL     1      -0.996  11.801  19.878  0.00  0.00    +0.000 A 
ATOM      3  C   UNL     1      -0.106  10.738  20.133  0.00  0.00    +0.000 A 
ATOM      4  C   UNL     1       0.554   9.811  19.275  0.00  0.00    +0.000 A 
ATOM      5  C   UNL     1       1.330   8.881  19.950  0.00  0.00    +0.000 A 
ATOM      6  S   UNL     1       1.303   9.177  21.635  0.00  0.00    +0.000 S 
ATOM      7  C   UNL     1       0.223  10.493  21.457  0.00  0.00    +0.000 A 
ATOM      8  N   UNL     1      -0.234  11.174  22.528  0.00  0.00    +0.000 NA
ATOM      9  C   UNL     1      -1.112  12.179  22.247  0.00  0.00    +0.000 A 
ATOM     10  C   UNL     1      -1.650  12.889  23.460  0.00  0.00    +0.000 C 
ENDROOT
BRANCH   5  11
ATOM     11  C   UNL     1       2.079   7.796  19.320  0.00  0.00    +0.000 C 
ATOM     12  O   UNL     1       2.346   7.864  18.119  0.00  0.00    +0.000 OA
ATOM     13  N   UNL     1       2.418   6.695  20.097  0.00  0.00    +0.000 N 
ATOM     14  H   UNL     1       2.001   6.602  21.014  0.00  0.00    +0.000 HD
BRANCH  13  15
ATOM     15  C   UNL     1       3.192   5.585  19.649  0.00  0.00    +0.000 A 
ATOM     16  C   UNL     1       4.567   5.688  19.385  0.00  0.00    +0.000 A 
ATOM     17  C   UNL     1       5.306   4.596  18.930  0.00  0.00    +0.000 A 
ATOM     18  C   UNL     1       4.684   3.370  18.742  0.00  0.00    +0.000 A 
ATOM     19  C   UNL     1       3.325   3.239  19.012  0.00  0.00    +0.000 A 
ATOM     20  C   UNL     1       2.576   4.332  19.485  0.00  0.00    +0.000 A 
ATOM     21  O   UNL     1       1.230   4.231  19.768  0.00  0.00    +0.000 OA
ATOM     22  C   UNL     1       0.819   2.861  19.885  0.00  0.00    +0.000 C 
ATOM     23  C   UNL     1       1.374   2.019  18.748  0.00  0.00    +0.000 C 
ATOM     24  O   UNL     1       2.801   1.991  18.792  0.00  0.00    +0.000 OA
ENDBRANCH  13  15
ENDBRANCH   5  11
BRANCH   1  26
ATOM     25  C   UNL     1      -3.957  13.303  20.667  0.00  0.00    +0.000 C 
ATOM     26  C   UNL     1      -2.483  13.630  20.679  0.00  0.00    +0.000 C 
ATOM     27  O   UNL     1      -2.084  14.769  20.458  0.00  0.00    +0.000 OA
ENDBRANCH   1  26
BRANCH   4  28
ATOM     28  N   UNL     1       0.416   9.826  17.931  0.00  0.00    +0.000 N 
ATOM     29  H   UNL     1       0.452  10.656  17.352  0.00  0.00    +0.000 HD
ATOM     30  H   UNL     1       0.063   8.992  17.447  0.00  0.00    +0.000 HD
ENDBRANCH   4  28
TORSDOF 4
ENDMDL
MODEL 2
REMARK VINA RESULT:      -7.5      1.394      1.454
REMARK  Name = 
REMARK  6 active torsions:
REMARK  status: ('A' for Active; 'I' for Inactive)
REMARK    1  A    between atoms: C_1  and  C_2
REMARK    2  A    between atoms: C_2  and  C_4
REMARK    3  A    between atoms: C_7  and  N_8
REMARK    4  A    between atoms: C_9  and  C_10
REMARK    5  A    between atoms: N_12  and  C_13
REMARK    6  A    between atoms: C_26  and  C_27
REMARK                            x       y       z     vdW  Elec       q    Type
REMARK                         _______ _______ _______ _____ _____    ______ ____
ROOT
ATOM      1  C   UNL     1      -2.503  12.495  20.971  0.00  0.00    +0.000 A 
ATOM      2  C   UNL     1      -2.046  11.947  19.770  0.00  0.00    +0.000 A 
ATOM      3  C   UNL     1      -0.902  11.123  19.782  0.00  0.00    +0.000 A 
ATOM      4  C   UNL     1      -0.225  10.406  18.753  0.00  0.00    +0.000 A 
ATOM      5  C   UNL     1       0.860   9.672  19.206  0.00  0.00    +0.000 A 
ATOM      6  S   UNL     1       1.092   9.907  20.885  0.00  0.00    +0.000 S 
ATOM      7  C   UNL     1      -0.275  10.929  21.002  0.00  0.00    +0.000 A 
ATOM      8  N   UNL     1      -0.661  11.449  22.185  0.00  0.00    +0.000 NA
ATOM      9  C   UNL     1      -1.785  12.221  22.142  0.00  0.00    +0.000 A 
ATOM     10  C   UNL     1      -2.227  12.748  23.481  0.00  0.00    +0.000 C 
ENDROOT
BRANCH   5  11
ATOM     11  C   UNL     1       1.704   8.817  18.373  0.00  0.00    +0.000 C 
ATOM     12  O   UNL     1       1.990   9.179  17.231  0.00  0.00    +0.000 OA
ATOM     13  N   UNL     1       2.109   7.592  18.890  0.00  0.00    +0.000 N 
ATOM     14  H   UNL     1       1.682   7.261  19.745  0.00  0.00    +0.000 HD
BRANCH  13  15
ATOM     15  C   UNL     1       2.976   6.673  18.229  0.00  0.00    +0.000 A 
ATOM     16  C   UNL     1       4.110   7.092  17.517  0.00  0.00    +0.000 A 
ATOM     17  C   UNL     1       4.938   6.180  16.861  0.00  0.00    +0.000 A 
ATOM     18  C   UNL     1       4.652   4.823  16.917  0.00  0.00    +0.000 A 
ATOM     19  C   UNL     1       3.541   4.382  17.630  0.00  0.00    +0.000 A 
ATOM     20  C   UNL     1       2.710   5.294  18.306  0.00  0.00    +0.000 A 
ATOM     21  O   UNL     1       1.608   4.887  19.026  0.00  0.00    +0.000 OA
ATOM     22  C   UNL     1       1.651   3.479  19.301  0.00  0.00    +0.000 C 
ATOM     23  C   UNL     1       2.024   2.685  18.060  0.00  0.00    +0.000 C 
ATOM     24  O   UNL     1       3.340   3.025  17.623  0.00  0.00    +0.000 OA
ENDBRANCH  13  15
ENDBRANCH   5  11
BRANCH   1  26
ATOM     25  C   UNL     1      -5.071  12.657  21.088  0.00  0.00    +0.000 C 
ATOM     26  C   UNL     1      -3.731  13.341  20.959  0.00  0.00    +0.000 C 
ATOM     27  O   UNL     1      -3.651  14.559  20.834  0.00  0.00    +0.000 OA
ENDBRANCH   1  26
BRANCH   4  28
ATOM     28  N   UNL     1      -0.621  10.424  17.460  0.00  0.00    +0.000 N 
ATOM     29  H   UNL     1      -0.151   9.946  16.702  0.00  0.00    +0.000 HD
ATOM     30  H   UNL     1      -1.327  11.103  17.154  0.00  0.00    +0.000 HD
ENDBRANCH   4  28
TORSDOF 4
ENDMDL
MODEL 3
REMARK VINA RESULT:      -7.5      2.686      9.151
REMARK  Name = 
REMARK  6 active torsions:
REMARK  status: ('A' for Active; 'I' for Inactive)
REMARK    1  A    between atoms: C_1  and  C_2
REMARK    2  A    between atoms: C_2  and  C_4
REMARK    3  A    between atoms: C_7  and  N_8
REMARK    4  A    between atoms: C_9  and  C_10
REMARK    5  A    between atoms: N_12  and  C_13
REMARK    6  A    between atoms: C_26  and  C_27
REMARK                            x       y       z     vdW  Elec       q    Type
REMARK                         _______ _______ _______ _____ _____    ______ ____
ROOT
ATOM      1  C   UNL     1       4.385   6.282  17.556  0.00  0.00    +0.000 A 
ATOM      2  C   UNL     1       3.615   7.440  17.421  0.00  0.00    +0.000 A 
ATOM      3  C   UNL     1       2.714   7.790  18.447  0.00  0.00    +0.000 A 
ATOM      4  C   UNL     1       1.836   8.899  18.617  0.00  0.00    +0.000 A 
ATOM      5  C   UNL     1       1.136   8.880  19.813  0.00  0.00    +0.000 A 
ATOM      6  S   UNL     1       1.506   7.469  20.708  0.00  0.00    +0.000 S 
ATOM      7  C   UNL     1       2.626   6.931  19.532  0.00  0.00    +0.000 A 
ATOM      8  N   UNL     1       3.329   5.792  19.702  0.00  0.00    +0.000 NA
ATOM      9  C   UNL     1       4.209   5.497  18.703  0.00  0.00    +0.000 A 
ATOM     10  C   UNL     1       5.019   4.251  18.939  0.00  0.00    +0.000 C 
ENDROOT
BRANCH   5  11
ATOM     11  C   UNL     1       0.202   9.912  20.259  0.00  0.00    +0.000 C 
ATOM     12  O   UNL     1      -0.764  10.199  19.550  0.00  0.00    +0.000 OA
ATOM     13  N   UNL     1       0.473  10.572  21.451  0.00  0.00    +0.000 N 
ATOM     14  H   UNL     1       1.378  10.440  21.884  0.00  0.00    +0.000 HD
BRANCH  13  15
ATOM     15  C   UNL     1      -0.366  11.559  22.048  0.00  0.00    +0.000 A 
ATOM     16  C   UNL     1      -1.543  11.225  22.734  0.00  0.00    +0.000 A 
ATOM     17  C   UNL     1      -2.362  12.205  23.298  0.00  0.00    +0.000 A 
ATOM     18  C   UNL     1      -2.008  13.543  23.196  0.00  0.00    +0.000 A 
ATOM     19  C   UNL     1      -0.836  13.897  22.533  0.00  0.00    +0.000 A 
ATOM     20  C   UNL     1       0.001  12.914  21.976  0.00  0.00    +0.000 A 
ATOM     21  O   UNL     1       1.171  13.234  21.320  0.00  0.00    +0.000 OA
ATOM     22  C   UNL     1       1.587  14.576  21.612  0.00  0.00    +0.000 C 
ATOM     23  C   UNL     1       0.425  15.549  21.509  0.00  0.00    +0.000 C 
ATOM     24  O   UNL     1      -0.575  15.243  22.482  0.00  0.00    +0.000 OA
ENDBRANCH  13  15
ENDBRANCH   5  11
BRANCH   1  26
ATOM     25  C   UNL     1       5.057   4.738  15.607  0.00  0.00    +0.000 C 
ATOM     26  C   UNL     1       5.358   5.932  16.482  0.00  0.00    +0.000 C 
ATOM     27  O   UNL     1       6.381   6.591  16.324  0.00  0.00    +0.000 OA
ENDBRANCH   1  26
BRANCH   4  28
ATOM     28  N   UNL     1       1.716   9.889  17.704  0.00  0.00    +0.000 N 
ATOM     29  H   UNL     1       2.490  10.380  17.274  0.00  0.00    +0.000 HD
ATOM     30  H   UNL     1       0.802  10.330  17.549  0.00  0.00    +0.000 HD
ENDBRANCH   4  28
TORSDOF 4
ENDMDL
MODEL 4
REMARK VINA RESULT:      -7.4      1.081      1.278
REMARK  Name = 
REMARK  6 active torsions:
REMARK  status: ('A' for Active; 'I' for Inactive)
REMARK    1  A    between atoms: C_1  and  C_2
REMARK    2  A    between atoms: C_2  and  C_4
REMARK    3  A    between atoms: C_7  and  N_8
REMARK    4  A    between atoms: C_9  and  C_10
REMARK    5  A    between atoms: N_12  and  C_13
REMARK    6  A    between atoms: C_26  and  C_27
REMARK                            x       y       z     vdW  Elec       q    Type
REMARK                         _______ _______ _______ _____ _____    ______ ____
ROOT
ATOM      1  C   UNL     1      -0.184  13.307  20.737  0.00  0.00    +0.000 A 
ATOM      2  C   UNL     1       0.453  12.565  19.739  0.00  0.00    +0.000 A 
ATOM      3  C   UNL     1       0.776  11.215  19.987  0.00  0.00    +0.000 A 
ATOM      4  C   UNL     1       1.381  10.209  19.179  0.00  0.00    +0.000 A 
ATOM      5  C   UNL     1       1.484   8.977  19.805  0.00  0.00    +0.000 A 
ATOM      6  S   UNL     1       0.894   9.062  21.410  0.00  0.00    +0.000 S 
ATOM      7  C   UNL     1       0.460  10.708  21.237  0.00  0.00    +0.000 A 
ATOM      8  N   UNL     1      -0.135  11.385  22.241  0.00  0.00    +0.000 NA
ATOM      9  C   UNL     1      -0.455  12.680  21.960  0.00  0.00    +0.000 A 
ATOM     10  C   UNL     1      -1.165  13.399  23.075  0.00  0.00    +0.000 C 
ENDROOT
BRANCH   5  11
ATOM     11  C   UNL     1       2.026   7.765  19.194  0.00  0.00    +0.000 C 
ATOM     12  O   UNL     1       1.894   7.589  17.982  0.00  0.00    +0.000 OA
ATOM     13  N   UNL     1       2.627   6.825  20.022  0.00  0.00    +0.000 N 
ATOM     14  H   UNL     1       2.527   6.926  21.024  0.00  0.00    +0.000 HD
BRANCH  13  15
ATOM     15  C   UNL     1       3.251   5.623  19.576  0.00  0.00    +0.000 A 
ATOM     16  C   UNL     1       4.605   5.574  19.209  0.00  0.00    +0.000 A 
ATOM     17  C   UNL     1       5.196   4.392  18.758  0.00  0.00    +0.000 A 
ATOM     18  C   UNL     1       4.442   3.230  18.678  0.00  0.00    +0.000 A 
ATOM     19  C   UNL     1       3.101   3.251  19.051  0.00  0.00    +0.000 A 
ATOM     20  C   UNL     1       2.503   4.434  19.521  0.00  0.00    +0.000 A 
ATOM     21  O   UNL     1       1.180   4.484  19.905  0.00  0.00    +0.000 OA
ATOM     22  C   UNL     1       0.646   3.169  20.120  0.00  0.00    +0.000 C 
ATOM     23  C   UNL     1       1.025   2.227  18.991  0.00  0.00    +0.000 C 
ATOM     24  O   UNL     1       2.441   2.054  18.933  0.00  0.00    +0.000 OA
ENDBRANCH  13  15
ENDBRANCH   5  11
BRANCH   1  26
ATOM     25  C   UNL     1       0.516  15.783  20.625  0.00  0.00    +0.000 C 
ATOM     26  C   UNL     1      -0.550  14.726  20.460  0.00  0.00    +0.000 C 
ATOM     27  O   UNL     1      -1.691  15.024  20.121  0.00  0.00    +0.000 OA
ENDBRANCH   1  26
BRANCH   4  28
ATOM     28  N   UNL     1       1.795  10.434  17.912  0.00  0.00    +0.000 N 
ATOM     29  H   UNL     1       2.252  11.278  17.590  0.00  0.00    +0.000 HD
ATOM     30  H   UNL     1       1.479   9.815  17.157  0.00  0.00    +0.000 HD
ENDBRANCH   4  28
TORSDOF 4
ENDMDL
MODEL 5
REMARK VINA RESULT:      -7.3      2.260      3.440
REMARK  Name = 
REMARK  6 active torsions:
REMARK  status: ('A' for Active; 'I' for Inactive)
REMARK    1  A    between atoms: C_1  and  C_2
REMARK    2  A    between atoms: C_2  and  C_4
REMARK    3  A    between atoms: C_7  and  N_8
REMARK    4  A    between atoms: C_9  and  C_10
REMARK    5  A    between atoms: N_12  and  C_13
REMARK    6  A    between atoms: C_26  and  C_27
REMARK                            x       y       z     vdW  Elec       q    Type
REMARK                         _______ _______ _______ _____ _____    ______ ____
ROOT
ATOM      1  C   UNL     1      -0.114  12.801  21.310  0.00  0.00    +0.000 A 
ATOM      2  C   UNL     1       0.314  11.535  21.717  0.00  0.00    +0.000 A 
ATOM      3  C   UNL     1       0.699  10.593  20.742  0.00  0.00    +0.000 A 
ATOM      4  C   UNL     1       1.202   9.263  20.837  0.00  0.00    +0.000 A 
ATOM      5  C   UNL     1       1.496   8.688  19.611  0.00  0.00    +0.000 A 
ATOM      6  S   UNL     1       1.100   9.753  18.331  0.00  0.00    +0.000 S 
ATOM      7  C   UNL     1       0.598  10.979  19.414  0.00  0.00    +0.000 A 
ATOM      8  N   UNL     1       0.172  12.178  18.966  0.00  0.00    +0.000 NA
ATOM      9  C   UNL     1      -0.168  13.074  19.936  0.00  0.00    +0.000 A 
ATOM     10  C   UNL     1      -0.590  14.421  19.416  0.00  0.00    +0.000 C 
ENDROOT
BRANCH   5  11
ATOM     11  C   UNL     1       2.061   7.353  19.421  0.00  0.00    +0.000 C 
ATOM     12  O   UNL     1       2.031   6.547  20.352  0.00  0.00    +0.000 OA
ATOM     13  N   UNL     1       2.663   7.062  18.203  0.00  0.00    +0.000 N 
ATOM     14  H   UNL     1       2.839   7.819  17.555  0.00  0.00    +0.000 HD
BRANCH  13  15
ATOM     15  C   UNL     1       3.208   5.795  17.843  0.00  0.00    +0.000 A 
ATOM     16  C   UNL     1       2.413   4.646  17.718  0.00  0.00    +0.000 A 
ATOM     17  C   UNL     1       2.965   3.409  17.381  0.00  0.00    +0.000 A 
ATOM     18  C   UNL     1       4.329   3.301  17.150  0.00  0.00    +0.000 A 
ATOM     19  C   UNL     1       5.136   4.431  17.253  0.00  0.00    +0.000 A 
ATOM     20  C   UNL     1       4.584   5.684  17.577  0.00  0.00    +0.000 A 
ATOM     21  O   UNL     1       5.357   6.820  17.679  0.00  0.00    +0.000 OA
ATOM     22  C   UNL     1       6.641   6.640  17.065  0.00  0.00    +0.000 C 
ATOM     23  C   UNL     1       7.266   5.315  17.469  0.00  0.00    +0.000 C 
ATOM     24  O   UNL     1       6.470   4.223  17.010  0.00  0.00    +0.000 OA
ENDBRANCH  13  15
ENDBRANCH   5  11
BRANCH   1  26
ATOM     25  C   UNL     1      -1.891  13.754  22.912  0.00  0.00    +0.000 C 
ATOM     26  C   UNL     1      -0.492  13.805  22.346  0.00  0.00    +0.000 C 
ATOM     27  O   UNL     1       0.311  14.654  22.716  0.00  0.00    +0.000 OA
ENDBRANCH   1  26
BRANCH   4  28
ATOM     28  N   UNL     1       1.394   8.632  22.017  0.00  0.00    +0.000 N 
ATOM     29  H   UNL     1       1.708   7.675  22.120  0.00  0.00    +0.000 HD
ATOM     30  H   UNL     1       1.031   9.049  22.882  0.00  0.00    +0.000 HD
ENDBRANCH   4  28
TORSDOF 4
ENDMDL
MODEL 6
REMARK VINA RESULT:      -7.3      2.349      9.337
REMARK  Name = 
REMARK  6 active torsions:
REMARK  status: ('A' for Active; 'I' for Inactive)
REMARK    1  A    between atoms: C_1  and  C_2
REMARK    2  A    between atoms: C_2  and  C_4
REMARK    3  A    between atoms: C_7  and  N_8
REMARK    4  A    between atoms: C_9  and  C_10
REMARK    5  A    between atoms: N_12  and  C_13
REMARK    6  A    between atoms: C_26  and  C_27
REMARK                            x       y       z     vdW  Elec       q    Type
REMARK                         _______ _______ _______ _____ _____    ______ ____
ROOT
ATOM      1  C   UNL     1       4.110   5.410  18.464  0.00  0.00    +0.000 A 
ATOM      2  C   UNL     1       3.291   5.927  19.470  0.00  0.00    +0.000 A 
ATOM      3  C   UNL     1       2.628   7.153  19.255  0.00  0.00    +0.000 A 
ATOM      4  C   UNL     1       1.720   7.906  20.053  0.00  0.00    +0.000 A 
ATOM      5  C   UNL     1       1.263   9.062  19.440  0.00  0.00    +0.000 A 
ATOM      6  S   UNL     1       1.993   9.263  17.906  0.00  0.00    +0.000 S 
ATOM      7  C   UNL     1       2.859   7.793  18.047  0.00  0.00    +0.000 A 
ATOM      8  N   UNL     1       3.655   7.350  17.052  0.00  0.00    +0.000 NA
ATOM      9  C   UNL     1       4.261   6.151  17.283  0.00  0.00    +0.000 A 
ATOM     10  C   UNL     1       5.101   5.651  16.140  0.00  0.00    +0.000 C 
ENDROOT
BRANCH   5  11
ATOM     11  C   UNL     1       0.296   9.995  20.016  0.00  0.00    +0.000 C 
ATOM     12  O   UNL     1      -0.788  10.164  19.455  0.00  0.00    +0.000 OA
ATOM     13  N   UNL     1       0.663  10.701  21.155  0.00  0.00    +0.000 N 
ATOM     14  H   UNL     1       1.631  10.674  21.452  0.00  0.00    +0.000 HD
BRANCH  13  15
ATOM     15  C   UNL     1      -0.182  11.602  21.867  0.00  0.00    +0.000 A 
ATOM     16  C   UNL     1      -1.236  11.156  22.679  0.00  0.00    +0.000 A 
ATOM     17  C   UNL     1      -2.065  12.052  23.356  0.00  0.00    +0.000 A 
ATOM     18  C   UNL     1      -1.846  13.417  23.241  0.00  0.00    +0.000 A 
ATOM     19  C   UNL     1      -0.797  13.883  22.454  0.00  0.00    +0.000 A 
ATOM     20  C   UNL     1       0.052  12.985  21.781  0.00  0.00    +0.000 A 
ATOM     21  O   UNL     1       1.103  13.416  21.000  0.00  0.00    +0.000 OA
ATOM     22  C   UNL     1       1.430  14.787  21.269  0.00  0.00    +0.000 C 
ATOM     23  C   UNL     1       0.182  15.652  21.324  0.00  0.00    +0.000 C 
ATOM     24  O   UNL     1      -0.664  15.247  22.401  0.00  0.00    +0.000 OA
ENDBRANCH  13  15
ENDBRANCH   5  11
BRANCH   1  26
ATOM     25  C   UNL     1       4.021   2.838  18.355  0.00  0.00    +0.000 C 
ATOM     26  C   UNL     1       4.786   4.099  18.683  0.00  0.00    +0.000 C 
ATOM     27  O   UNL     1       5.927   4.050  19.130  0.00  0.00    +0.000 OA
ENDBRANCH   1  26
BRANCH   4  28
ATOM     28  N   UNL     1       1.324   7.514  21.286  0.00  0.00    +0.000 N 
ATOM     29  H   UNL     1       1.876   6.954  21.922  0.00  0.00    +0.000 HD
ATOM     30  H   UNL     1       0.339   7.610  21.557  0.00  0.00    +0.000 HD
ENDBRANCH   4  28
TORSDOF 4
ENDMDL
MODEL 7
REMARK VINA RESULT:      -7.3      2.903      4.198
REMARK  Name = 
REMARK  6 active torsions:
REMARK  status: ('A' for Active; 'I' for Inactive)
REMARK    1  A    between atoms: C_1  and  C_2
REMARK    2  A    between atoms: C_2  and  C_4
REMARK    3  A    between atoms: C_7  and  N_8
REMARK    4  A    between atoms: C_9  and  C_10
REMARK    5  A    between atoms: N_12  and  C_13
REMARK    6  A    between atoms: C_26  and  C_27
REMARK                            x       y       z     vdW  Elec       q    Type
REMARK                         _______ _______ _______ _____ _____    ______ ____
ROOT
ATOM      1  C   UNL     1      -0.244  10.534  21.408  0.00  0.00    +0.000 A 
ATOM      2  C   UNL     1       0.389   9.289  21.378  0.00  0.00    +0.000 A 
ATOM      3  C   UNL     1       1.077   8.895  20.213  0.00  0.00    +0.000 A 
ATOM      4  C   UNL     1       1.833   7.731  19.892  0.00  0.00    +0.000 A 
ATOM      5  C   UNL     1       2.388   7.757  18.622  0.00  0.00    +0.000 A 
ATOM      6  S   UNL     1       1.933   9.184  17.793  0.00  0.00    +0.000 S 
ATOM      7  C   UNL     1       1.058   9.772  19.140  0.00  0.00    +0.000 A 
ATOM      8  N   UNL     1       0.447  10.974  19.108  0.00  0.00    +0.000 NA
ATOM      9  C   UNL     1      -0.189  11.335  20.259  0.00  0.00    +0.000 A 
ATOM     10  C   UNL     1      -0.818  12.701  20.218  0.00  0.00    +0.000 C 
ENDROOT
BRANCH   5  11
ATOM     11  C   UNL     1       3.239   6.714  18.053  0.00  0.00    +0.000 C 
ATOM     12  O   UNL     1       3.037   5.538  18.357  0.00  0.00    +0.000 OA
ATOM     13  N   UNL     1       4.286   7.100  17.225  0.00  0.00    +0.000 N 
ATOM     14  H   UNL     1       4.527   8.082  17.173  0.00  0.00    +0.000 HD
BRANCH  13  15
ATOM     15  C   UNL     1       5.167   6.206  16.550  0.00  0.00    +0.000 A 
ATOM     16  C   UNL     1       4.949   5.796  15.225  0.00  0.00    +0.000 A 
ATOM     17  C   UNL     1       5.813   4.906  14.585  0.00  0.00    +0.000 A 
ATOM     18  C   UNL     1       6.923   4.417  15.258  0.00  0.00    +0.000 A 
ATOM     19  C   UNL     1       7.169   4.821  16.567  0.00  0.00    +0.000 A 
ATOM     20  C   UNL     1       6.311   5.729  17.214  0.00  0.00    +0.000 A 
ATOM     21  O   UNL     1       6.533   6.153  18.507  0.00  0.00    +0.000 OA
ATOM     22  C   UNL     1       7.874   5.870  18.930  0.00  0.00    +0.000 C 
ATOM     23  C   UNL     1       8.282   4.453  18.565  0.00  0.00    +0.000 C 
ATOM     24  O   UNL     1       8.288   4.280  17.148  0.00  0.00    +0.000 OA
ENDBRANCH  13  15
ENDBRANCH   5  11
BRANCH   1  26
ATOM     25  C   UNL     1      -2.069  11.962  22.532  0.00  0.00    +0.000 C 
ATOM     26  C   UNL     1      -0.946  10.959  22.653  0.00  0.00    +0.000 C 
ATOM     27  O   UNL     1      -0.609  10.514  23.745  0.00  0.00    +0.000 OA
ENDBRANCH   1  26
BRANCH   4  28
ATOM     28  N   UNL     1       2.011   6.706  20.757  0.00  0.00    +0.000 N 
ATOM     29  H   UNL     1       1.266   6.211  21.232  0.00  0.00    +0.000 HD
ATOM     30  H   UNL     1       2.947   6.511  21.128  0.00  0.00    +0.000 HD
ENDBRANCH   4  28
TORSDOF 4
ENDMDL
MODEL 8
REMARK VINA RESULT:      -7.3      1.574      1.647
REMARK  Name = 
REMARK  6 active torsions:
REMARK  status: ('A' for Active; 'I' for Inactive)
REMARK    1  A    between atoms: C_1  and  C_2
REMARK    2  A    between atoms: C_2  and  C_4
REMARK    3  A    between atoms: C_7  and  N_8
REMARK    4  A    between atoms: C_9  and  C_10
REMARK    5  A    between atoms: N_12  and  C_13
REMARK    6  A    between atoms: C_26  and  C_27
REMARK                            x       y       z     vdW  Elec       q    Type
REMARK                         _______ _______ _______ _____ _____    ______ ____
ROOT
ATOM      1  C   UNL     1      -0.144  13.748  21.135  0.00  0.00    +0.000 A 
ATOM      2  C   UNL     1       0.523  13.216  20.029  0.00  0.00    +0.000 A 
ATOM      3  C   UNL     1       0.764  11.829  19.974  0.00  0.00    +0.000 A 
ATOM      4  C   UNL     1       1.375  10.999  18.989  0.00  0.00    +0.000 A 
ATOM      5  C   UNL     1       1.378   9.652  19.318  0.00  0.00    +0.000 A 
ATOM      6  S   UNL     1       0.688   9.405  20.864  0.00  0.00    +0.000 S 
ATOM      7  C   UNL     1       0.343  11.070  21.055  0.00  0.00    +0.000 A 
ATOM      8  N   UNL     1      -0.285  11.534  22.154  0.00  0.00    +0.000 NA
ATOM      9  C   UNL     1      -0.525  12.877  22.164  0.00  0.00    +0.000 A 
ATOM     10  C   UNL     1      -1.273  13.364  23.375  0.00  0.00    +0.000 C 
ENDROOT
BRANCH   5  11
ATOM     11  C   UNL     1       1.902   8.581  18.473  0.00  0.00    +0.000 C 
ATOM     12  O   UNL     1       1.880   8.712  17.248  0.00  0.00    +0.000 OA
ATOM     13  N   UNL     1       2.360   7.423  19.089  0.00  0.00    +0.000 N 
ATOM     14  H   UNL     1       2.168   7.289  20.074  0.00  0.00    +0.000 HD
BRANCH  13  15
ATOM     15  C   UNL     1       2.950   6.315  18.413  0.00  0.00    +0.000 A 
ATOM     16  C   UNL     1       4.058   6.460  17.563  0.00  0.00    +0.000 A 
ATOM     17  C   UNL     1       4.612   5.367  16.895  0.00  0.00    +0.000 A 
ATOM     18  C   UNL     1       4.074   4.101  17.076  0.00  0.00    +0.000 A 
ATOM     19  C   UNL     1       2.985   3.930  17.926  0.00  0.00    +0.000 A 
ATOM     20  C   UNL     1       2.430   5.025  18.614  0.00  0.00    +0.000 A 
ATOM     21  O   UNL     1       1.357   4.885  19.468  0.00  0.00    +0.000 OA
ATOM     22  C   UNL     1       1.153   3.514  19.837  0.00  0.00    +0.000 C 
ATOM     23  C   UNL     1       1.223   2.599  18.625  0.00  0.00    +0.000 C 
ATOM     24  O   UNL     1       2.523   2.644  18.036  0.00  0.00    +0.000 OA
ENDBRANCH  13  15
ENDBRANCH   5  11
BRANCH   1  26
ATOM     25  C   UNL     1      -1.681  15.717  20.505  0.00  0.00    +0.000 C 
ATOM     26  C   UNL     1      -0.425  15.212  21.175  0.00  0.00    +0.000 C 
ATOM     27  O   UNL     1       0.352  15.984  21.727  0.00  0.00    +0.000 OA
ENDBRANCH   1  26
BRANCH   4  28
ATOM     28  N   UNL     1       1.882  11.481  17.832  0.00  0.00    +0.000 N 
ATOM     29  H   UNL     1       2.819  11.307  17.491  0.00  0.00    +0.000 HD
ATOM     30  H   UNL     1       1.385  12.226  17.331  0.00  0.00    +0.000 HD
ENDBRANCH   4  28
TORSDOF 4
ENDMDL
MODEL 9
REMARK VINA RESULT:      -7.2      3.120      9.293
REMARK  Name = 
REMARK  6 active torsions:
REMARK  status: ('A' for Active; 'I' for Inactive)
REMARK    1  A    between atoms: C_1  and  C_2
REMARK    2  A    between atoms: C_2  and  C_4
REMARK    3  A    between atoms: C_7  and  N_8
REMARK    4  A    between atoms: C_9  and  C_10
REMARK    5  A    between atoms: N_12  and  C_13
REMARK    6  A    between atoms: C_26  and  C_27
REMARK                            x       y       z     vdW  Elec       q    Type
REMARK                         _______ _______ _______ _____ _____    ______ ____
ROOT
ATOM      1  C   UNL     1       2.592   4.530  19.641  0.00  0.00    +0.000 A 
ATOM      2  C   UNL     1       2.230   5.616  20.442  0.00  0.00    +0.000 A 
ATOM      3  C   UNL     1       2.081   6.887  19.851  0.00  0.00    +0.000 A 
ATOM      4  C   UNL     1       1.698   8.153  20.380  0.00  0.00    +0.000 A 
ATOM      5  C   UNL     1       1.639   9.161  19.430  0.00  0.00    +0.000 A 
ATOM      6  S   UNL     1       2.113   8.574  17.894  0.00  0.00    +0.000 S 
ATOM      7  C   UNL     1       2.335   6.986  18.491  0.00  0.00    +0.000 A 
ATOM      8  N   UNL     1       2.707   5.976  17.678  0.00  0.00    +0.000 NA
ATOM      9  C   UNL     1       2.818   4.756  18.277  0.00  0.00    +0.000 A 
ATOM     10  C   UNL     1       3.181   3.636  17.341  0.00  0.00    +0.000 C 
ENDROOT
BRANCH   5  11
ATOM     11  C   UNL     1       1.236  10.541  19.691  0.00  0.00    +0.000 C 
ATOM     12  O   UNL     1       0.931  10.875  20.837  0.00  0.00    +0.000 OA
ATOM     13  N   UNL     1       1.160  11.418  18.615  0.00  0.00    +0.000 N 
ATOM     14  H   UNL     1       1.223  11.042  17.678  0.00  0.00    +0.000 HD
BRANCH  13  15
ATOM     15  C   UNL     1       0.839  12.804  18.711  0.00  0.00    +0.000 A 
ATOM     16  C   UNL     1      -0.450  13.253  19.037  0.00  0.00    +0.000 A 
ATOM     17  C   UNL     1      -0.752  14.614  19.109  0.00  0.00    +0.000 A 
ATOM     18  C   UNL     1       0.239  15.555  18.868  0.00  0.00    +0.000 A 
ATOM     19  C   UNL     1       1.529  15.133  18.559  0.00  0.00    +0.000 A 
ATOM     20  C   UNL     1       1.844  13.763  18.499  0.00  0.00    +0.000 A 
ATOM     21  O   UNL     1       3.114  13.315  18.202  0.00  0.00    +0.000 OA
ATOM     22  C   UNL     1       4.086  14.361  18.345  0.00  0.00    +0.000 C 
ATOM     23  C   UNL     1       3.614  15.648  17.691  0.00  0.00    +0.000 C 
ATOM     24  O   UNL     1       2.437  16.137  18.334  0.00  0.00    +0.000 OA
ENDBRANCH  13  15
ENDBRANCH   5  11
BRANCH   1  26
ATOM     25  C   UNL     1       1.470   2.522  20.801  0.00  0.00    +0.000 C 
ATOM     26  C   UNL     1       2.719   3.182  20.266  0.00  0.00    +0.000 C 
ATOM     27  O   UNL     1       3.813   2.633  20.352  0.00  0.00    +0.000 OA
ENDBRANCH   1  26
BRANCH   4  28
ATOM     28  N   UNL     1       1.398   8.346  21.684  0.00  0.00    +0.000 N 
ATOM     29  H   UNL     1       0.484   8.203  22.097  0.00  0.00    +0.000 HD
ATOM     30  H   UNL     1       2.058   8.846  22.289  0.00  0.00    +0.000 HD
ENDBRANCH   4  28
TORSDOF 4
ENDMDL
