MODEL 1
REMARK VINA RESULT:      -8.1      0.000      0.000
REMARK  Name = 
REMARK  1 active torsions:
REMARK  status: ('A' for Active; 'I' for Inactive)
REMARK    1  A    between atoms: C_2  and  C_3
REMARK                            x       y       z     vdW  Elec       q    Type
REMARK                         _______ _______ _______ _____ _____    ______ ____
ROOT
ATOM      1  O   UNL     1       5.544   6.177  18.694  0.00  0.00    +0.000 OA
ATOM      2  C   UNL     1       4.878   5.461  17.926  0.00  0.00    +0.000 C 
ATOM      3  N   UNL     1       3.611   4.887  18.442  0.00  0.00    +0.000 N 
ATOM      4  C   UNL     1       3.314   5.149  19.865  0.00  0.00    +0.000 C 
ATOM      5  C   UNL     1       2.346   4.134  20.567  0.00  0.00    +0.000 C 
ATOM      6  C   UNL     1       2.954   2.722  20.718  0.00  0.00    +0.000 C 
ATOM      7  N   UNL     1       3.217   2.069  19.439  0.00  0.00    +0.000 NA
ATOM      8  C   UNL     1       2.052   2.055  18.564  0.00  0.00    +0.000 C 
ATOM      9  C   UNL     1       1.415   3.451  18.443  0.00  0.00    +0.000 C 
ATOM     10  C   UNL     1       1.031   3.988  19.805  0.00  0.00    +0.000 C 
ATOM     11  C   UNL     1       2.379   4.447  17.752  0.00  0.00    +0.000 C 
ATOM     12  H   UNL     1       3.589   1.130  19.561  0.00  0.00    +0.000 HD
ENDROOT
BRANCH   2  13
ATOM     13  C   UNL     1       5.677   5.162  16.623  0.00  0.00    +0.000 A 
ATOM     14  C   UNL     1       5.169   4.214  15.716  0.00  0.00    +0.000 A 
ATOM     15  C   UNL     1       5.756   3.986  14.446  0.00  0.00    +0.000 A 
ATOM     16  C   UNL     1       6.863   4.724  14.104  0.00  0.00    +0.000 A 
ATOM     17 CL   UNL     1       7.438   4.837  12.494  0.00  0.00    +0.000 Cl
ATOM     18  N   UNL     1       7.558   5.396  15.027  0.00  0.00    +0.000 NA
ATOM     19  C   UNL     1       6.997   5.455  16.288  0.00  0.00    +0.000 A 
ENDBRANCH   2  13
TORSDOF 1
ENDMDL
MODEL 2
REMARK VINA RESULT:      -7.7      1.119      1.143
REMARK  Name = 
REMARK  1 active torsions:
REMARK  status: ('A' for Active; 'I' for Inactive)
REMARK    1  A    between atoms: C_2  and  C_3
REMARK                            x       y       z     vdW  Elec       q    Type
REMARK                         _______ _______ _______ _____ _____    ______ ____
ROOT
ATOM      1  O   UNL     1       3.953   6.765  18.362  0.00  0.00    +0.000 OA
ATOM      2  C   UNL     1       3.663   5.679  17.831  0.00  0.00    +0.000 C 
ATOM      3  N   UNL     1       2.631   4.842  18.491  0.00  0.00    +0.000 N 
ATOM      4  C   UNL     1       2.116   5.348  19.780  0.00  0.00    +0.000 C 
ATOM      5  C   UNL     1       1.497   4.277  20.744  0.00  0.00    +0.000 C 
ATOM      6  C   UNL     1       2.542   3.279  21.294  0.00  0.00    +0.000 C 
ATOM      7  N   UNL     1       3.148   2.451  20.255  0.00  0.00    +0.000 NA
ATOM      8  C   UNL     1       2.158   1.779  19.421  0.00  0.00    +0.000 C 
ATOM      9  C   UNL     1       1.089   2.759  18.907  0.00  0.00    +0.000 C 
ATOM     10  C   UNL     1       0.403   3.462  20.058  0.00  0.00    +0.000 C 
ATOM     11  C   UNL     1       1.710   3.815  17.958  0.00  0.00    +0.000 C 
ATOM     12  H   UNL     1       3.810   1.782  20.640  0.00  0.00    +0.000 HD
ENDROOT
BRANCH   2  13
ATOM     13  C   UNL     1       4.647   5.356  16.668  0.00  0.00    +0.000 A 
ATOM     14  C   UNL     1       5.170   4.053  16.560  0.00  0.00    +0.000 A 
ATOM     15  C   UNL     1       5.956   3.638  15.456  0.00  0.00    +0.000 A 
ATOM     16  C   UNL     1       6.209   4.553  14.464  0.00  0.00    +0.000 A 
ATOM     17 CL   UNL     1       6.801   4.103  12.919  0.00  0.00    +0.000 Cl
ATOM     18  N   UNL     1       6.009   5.860  14.660  0.00  0.00    +0.000 NA
ATOM     19  C   UNL     1       5.364   6.208  15.832  0.00  0.00    +0.000 A 
ENDBRANCH   2  13
TORSDOF 1
ENDMDL
MODEL 3
REMARK VINA RESULT:      -7.2      1.021      1.153
REMARK  Name = 
REMARK  1 active torsions:
REMARK  status: ('A' for Active; 'I' for Inactive)
REMARK    1  A    between atoms: C_2  and  C_3
REMARK                            x       y       z     vdW  Elec       q    Type
REMARK                         _______ _______ _______ _____ _____    ______ ____
ROOT
ATOM      1  O   UNL     1       5.552   5.622  19.574  0.00  0.00    +0.000 OA
ATOM      2  C   UNL     1       4.750   5.293  18.683  0.00  0.00    +0.000 C 
ATOM      3  N   UNL     1       3.416   4.798  19.103  0.00  0.00    +0.000 N 
ATOM      4  C   UNL     1       3.208   4.655  20.558  0.00  0.00    +0.000 C 
ATOM      5  C   UNL     1       2.096   3.641  21.000  0.00  0.00    +0.000 C 
ATOM      6  C   UNL     1       2.449   2.172  20.675  0.00  0.00    +0.000 C 
ATOM      7  N   UNL     1       2.558   1.911  19.243  0.00  0.00    +0.000 NA
ATOM      8  C   UNL     1       1.386   2.352  18.499  0.00  0.00    +0.000 C 
ATOM      9  C   UNL     1       1.002   3.800  18.850  0.00  0.00    +0.000 C 
ATOM     10  C   UNL     1       0.756   3.947  20.336  0.00  0.00    +0.000 C 
ATOM     11  C   UNL     1       2.107   4.793  18.413  0.00  0.00    +0.000 C 
ATOM     12  H   UNL     1       2.762   0.933  19.049  0.00  0.00    +0.000 HD
ENDROOT
BRANCH   2  13
ATOM     13  C   UNL     1       5.448   5.285  17.291  0.00  0.00    +0.000 A 
ATOM     14  C   UNL     1       6.640   4.554  17.131  0.00  0.00    +0.000 A 
ATOM     15  C   UNL     1       7.261   4.379  15.868  0.00  0.00    +0.000 A 
ATOM     16  C   UNL     1       6.666   4.952  14.771  0.00  0.00    +0.000 A 
ATOM     17 CL   UNL     1       7.074   4.516  13.165  0.00  0.00    +0.000 Cl
ATOM     18  N   UNL     1       5.731   5.897  14.905  0.00  0.00    +0.000 NA
ATOM     19  C   UNL     1       5.272   6.121  16.190  0.00  0.00    +0.000 A 
ENDBRANCH   2  13
TORSDOF 1
ENDMDL
MODEL 4
REMARK VINA RESULT:      -7.2      2.609      3.437
REMARK  Name = 
REMARK  1 active torsions:
REMARK  status: ('A' for Active; 'I' for Inactive)
REMARK    1  A    between atoms: C_2  and  C_3
REMARK                            x       y       z     vdW  Elec       q    Type
REMARK                         _______ _______ _______ _____ _____    ______ ____
ROOT
ATOM      1  O   UNL     1       5.068   3.778  16.198  0.00  0.00    +0.000 OA
ATOM      2  C   UNL     1       5.171   4.018  17.414  0.00  0.00    +0.000 C 
ATOM      3  N   UNL     1       4.184   3.391  18.327  0.00  0.00    +0.000 N 
ATOM      4  C   UNL     1       3.109   2.611  17.681  0.00  0.00    +0.000 C 
ATOM      5  C   UNL     1       1.790   2.433  18.511  0.00  0.00    +0.000 C 
ATOM      6  C   UNL     1       1.019   3.756  18.718  0.00  0.00    +0.000 C 
ATOM      7  N   UNL     1       1.758   4.734  19.511  0.00  0.00    +0.000 NA
ATOM      8  C   UNL     1       2.230   4.191  20.778  0.00  0.00    +0.000 C 
ATOM      9  C   UNL     1       2.960   2.850  20.585  0.00  0.00    +0.000 C 
ATOM     10  C   UNL     1       2.068   1.844  19.893  0.00  0.00    +0.000 C 
ATOM     11  C   UNL     1       4.259   3.036  19.762  0.00  0.00    +0.000 C 
ATOM     12  H   UNL     1       1.222   5.585  19.660  0.00  0.00    +0.000 HD
ENDROOT
BRANCH   2  13
ATOM     13  C   UNL     1       6.229   5.132  17.666  0.00  0.00    +0.000 A 
ATOM     14  C   UNL     1       6.479   6.076  16.653  0.00  0.00    +0.000 A 
ATOM     15  C   UNL     1       7.319   7.201  16.851  0.00  0.00    +0.000 A 
ATOM     16  C   UNL     1       7.903   7.360  18.084  0.00  0.00    +0.000 A 
ATOM     17 CL   UNL     1       8.614   8.837  18.586  0.00  0.00    +0.000 Cl
ATOM     18  N   UNL     1       7.952   6.354  18.962  0.00  0.00    +0.000 NA
ATOM     19  C   UNL     1       7.225   5.225  18.635  0.00  0.00    +0.000 A 
ENDBRANCH   2  13
TORSDOF 1
ENDMDL
MODEL 5
REMARK VINA RESULT:      -7.2      4.153      5.647
REMARK  Name = 
REMARK  1 active torsions:
REMARK  status: ('A' for Active; 'I' for Inactive)
REMARK    1  A    between atoms: C_2  and  C_3
REMARK                            x       y       z     vdW  Elec       q    Type
REMARK                         _______ _______ _______ _____ _____    ______ ____
ROOT
ATOM      1  O   UNL     1       4.002   6.930  17.497  0.00  0.00    +0.000 OA
ATOM      2  C   UNL     1       3.260   6.617  18.444  0.00  0.00    +0.000 C 
ATOM      3  N   UNL     1       3.285   5.206  18.904  0.00  0.00    +0.000 N 
ATOM      4  C   UNL     1       4.130   4.284  18.118  0.00  0.00    +0.000 C 
ATOM      5  C   UNL     1       3.753   2.764  18.197  0.00  0.00    +0.000 C 
ATOM      6  C   UNL     1       2.392   2.441  17.540  0.00  0.00    +0.000 C 
ATOM      7  N   UNL     1       1.263   3.079  18.212  0.00  0.00    +0.000 NA
ATOM      8  C   UNL     1       1.238   2.813  19.644  0.00  0.00    +0.000 C 
ATOM      9  C   UNL     1       2.603   3.090  20.298  0.00  0.00    +0.000 C 
ATOM     10  C   UNL     1       3.692   2.272  19.641  0.00  0.00    +0.000 C 
ATOM     11  C   UNL     1       2.968   4.593  20.212  0.00  0.00    +0.000 C 
ATOM     12  H   UNL     1       0.375   2.830  17.782  0.00  0.00    +0.000 HD
ENDROOT
BRANCH   2  13
ATOM     13  C   UNL     1       2.292   7.785  18.793  0.00  0.00    +0.000 A 
ATOM     14  C   UNL     1       2.052   8.782  17.828  0.00  0.00    +0.000 A 
ATOM     15  C   UNL     1       1.081   9.799  18.010  0.00  0.00    +0.000 A 
ATOM     16  C   UNL     1       0.358   9.799  19.178  0.00  0.00    +0.000 A 
ATOM     17 CL   UNL     1      -1.082  10.707  19.374  0.00  0.00    +0.000 Cl
ATOM     18  N   UNL     1       0.752   9.084  20.236  0.00  0.00    +0.000 NA
ATOM     19  C   UNL     1       1.805   8.215  20.025  0.00  0.00    +0.000 A 
ENDBRANCH   2  13
TORSDOF 1
ENDMDL
MODEL 6
REMARK VINA RESULT:      -7.0      1.196      1.475
REMARK  Name = 
REMARK  1 active torsions:
REMARK  status: ('A' for Active; 'I' for Inactive)
REMARK    1  A    between atoms: C_2  and  C_3
REMARK                            x       y       z     vdW  Elec       q    Type
REMARK                         _______ _______ _______ _____ _____    ______ ____
ROOT
ATOM      1  O   UNL     1       6.266   4.283  18.715  0.00  0.00    +0.000 OA
ATOM      2  C   UNL     1       5.243   4.414  18.022  0.00  0.00    +0.000 C 
ATOM      3  N   UNL     1       3.929   4.300  18.702  0.00  0.00    +0.000 N 
ATOM      4  C   UNL     1       3.971   3.943  20.135  0.00  0.00    +0.000 C 
ATOM      5  C   UNL     1       2.678   3.273  20.718  0.00  0.00    +0.000 C 
ATOM      6  C   UNL     1       2.411   1.865  20.140  0.00  0.00    +0.000 C 
ATOM      7  N   UNL     1       2.138   1.875  18.706  0.00  0.00    +0.000 NA
ATOM      8  C   UNL     1       1.081   2.809  18.340  0.00  0.00    +0.000 C 
ATOM      9  C   UNL     1       1.318   4.202  18.948  0.00  0.00    +0.000 C 
ATOM     10  C   UNL     1       1.435   4.120  20.455  0.00  0.00    +0.000 C 
ATOM     11  C   UNL     1       2.598   4.854  18.369  0.00  0.00    +0.000 C 
ATOM     12  H   UNL     1       1.936   0.943  18.351  0.00  0.00    +0.000 HD
ENDROOT
BRANCH   2  13
ATOM     13  C   UNL     1       5.606   4.461  16.509  0.00  0.00    +0.000 A 
ATOM     14  C   UNL     1       6.888   4.901  16.130  0.00  0.00    +0.000 A 
ATOM     15  C   UNL     1       7.348   4.841  14.790  0.00  0.00    +0.000 A 
ATOM     16  C   UNL     1       6.497   4.335  13.838  0.00  0.00    +0.000 A 
ATOM     17 CL   UNL     1       7.032   3.850  12.283  0.00  0.00    +0.000 Cl
ATOM     18  N   UNL     1       5.189   4.199  14.080  0.00  0.00    +0.000 NA
ATOM     19  C   UNL     1       4.786   4.417  15.383  0.00  0.00    +0.000 A 
ENDBRANCH   2  13
TORSDOF 1
ENDMDL
MODEL 7
REMARK VINA RESULT:      -6.8      4.037      5.577
REMARK  Name = 
REMARK  1 active torsions:
REMARK  status: ('A' for Active; 'I' for Inactive)
REMARK    1  A    between atoms: C_2  and  C_3
REMARK                            x       y       z     vdW  Elec       q    Type
REMARK                         _______ _______ _______ _____ _____    ______ ____
ROOT
ATOM      1  O   UNL     1       4.124   6.842  17.397  0.00  0.00    +0.000 OA
ATOM      2  C   UNL     1       3.361   6.577  18.342  0.00  0.00    +0.000 C 
ATOM      3  N   UNL     1       3.342   5.180  18.844  0.00  0.00    +0.000 N 
ATOM      4  C   UNL     1       4.173   4.214  18.098  0.00  0.00    +0.000 C 
ATOM      5  C   UNL     1       3.755   2.707  18.217  0.00  0.00    +0.000 C 
ATOM      6  C   UNL     1       2.396   2.399  17.551  0.00  0.00    +0.000 C 
ATOM      7  N   UNL     1       1.275   3.086  18.187  0.00  0.00    +0.000 NA
ATOM      8  C   UNL     1       1.223   2.864  19.627  0.00  0.00    +0.000 C 
ATOM      9  C   UNL     1       2.586   3.126  20.291  0.00  0.00    +0.000 C 
ATOM     10  C   UNL     1       3.662   2.260  19.674  0.00  0.00    +0.000 C 
ATOM     11  C   UNL     1       2.992   4.616  20.166  0.00  0.00    +0.000 C 
ATOM     12  H   UNL     1       0.387   2.848  17.753  0.00  0.00    +0.000 HD
ENDROOT
BRANCH   2  13
ATOM     13  C   UNL     1       2.419   7.780  18.642  0.00  0.00    +0.000 A 
ATOM     14  C   UNL     1       1.820   7.875  19.912  0.00  0.00    +0.000 A 
ATOM     15  C   UNL     1       1.065   9.007  20.314  0.00  0.00    +0.000 A 
ATOM     16  C   UNL     1       0.922  10.038  19.418  0.00  0.00    +0.000 A 
ATOM     17 CL   UNL     1       0.381  11.597  19.882  0.00  0.00    +0.000 Cl
ATOM     18  N   UNL     1       1.195   9.871  18.121  0.00  0.00    +0.000 NA
ATOM     19  C   UNL     1       1.800   8.678  17.775  0.00  0.00    +0.000 A 
ENDBRANCH   2  13
TORSDOF 1
ENDMDL
MODEL 8
REMARK VINA RESULT:      -6.8      4.023      6.428
REMARK  Name = 
REMARK  1 active torsions:
REMARK  status: ('A' for Active; 'I' for Inactive)
REMARK    1  A    between atoms: C_2  and  C_3
REMARK                            x       y       z     vdW  Elec       q    Type
REMARK                         _______ _______ _______ _____ _____    ______ ____
ROOT
ATOM      1  O   UNL     1       2.454   4.918  18.222  0.00  0.00    +0.000 OA
ATOM      2  C   UNL     1       3.068   5.950  17.900  0.00  0.00    +0.000 C 
ATOM      3  N   UNL     1       4.361   5.790  17.190  0.00  0.00    +0.000 N 
ATOM      4  C   UNL     1       4.839   4.402  17.021  0.00  0.00    +0.000 C 
ATOM      5  C   UNL     1       6.384   4.224  16.815  0.00  0.00    +0.000 C 
ATOM      6  C   UNL     1       7.210   4.598  18.067  0.00  0.00    +0.000 C 
ATOM      7  N   UNL     1       7.103   6.009  18.425  0.00  0.00    +0.000 NA
ATOM      8  C   UNL     1       7.399   6.898  17.309  0.00  0.00    +0.000 C 
ATOM      9  C   UNL     1       6.613   6.504  16.046  0.00  0.00    +0.000 C 
ATOM     10  C   UNL     1       6.901   5.072  15.656  0.00  0.00    +0.000 C 
ATOM     11  C   UNL     1       5.089   6.681  16.259  0.00  0.00    +0.000 C 
ATOM     12  H   UNL     1       7.676   6.241  19.233  0.00  0.00    +0.000 HD
ENDROOT
BRANCH   2  13
ATOM     13  C   UNL     1       2.402   7.207  18.532  0.00  0.00    +0.000 A 
ATOM     14  C   UNL     1       2.276   8.374  17.756  0.00  0.00    +0.000 A 
ATOM     15  C   UNL     1       1.558   9.512  18.204  0.00  0.00    +0.000 A 
ATOM     16  C   UNL     1       0.972   9.457  19.445  0.00  0.00    +0.000 A 
ATOM     17 CL   UNL     1      -0.223  10.576  19.952  0.00  0.00    +0.000 Cl
ATOM     18  N   UNL     1       1.315   8.519  20.332  0.00  0.00    +0.000 NA
ATOM     19  C   UNL     1       2.140   7.513  19.866  0.00  0.00    +0.000 A 
ENDBRANCH   2  13
TORSDOF 1
ENDMDL
MODEL 9
REMARK VINA RESULT:      -6.7      3.975      6.309
REMARK  Name = 
REMARK  1 active torsions:
REMARK  status: ('A' for Active; 'I' for Inactive)
REMARK    1  A    between atoms: C_2  and  C_3
REMARK                            x       y       z     vdW  Elec       q    Type
REMARK                         _______ _______ _______ _____ _____    ______ ____
ROOT
ATOM      1  O   UNL     1       3.095   5.309  19.904  0.00  0.00    +0.000 OA
ATOM      2  C   UNL     1       3.393   6.058  18.958  0.00  0.00    +0.000 C 
ATOM      3  N   UNL     1       4.569   5.691  18.131  0.00  0.00    +0.000 N 
ATOM      4  C   UNL     1       5.332   4.509  18.579  0.00  0.00    +0.000 C 
ATOM      5  C   UNL     1       6.827   4.434  18.113  0.00  0.00    +0.000 C 
ATOM      6  C   UNL     1       7.715   5.530  18.744  0.00  0.00    +0.000 C 
ATOM      7  N   UNL     1       7.331   6.881  18.345  0.00  0.00    +0.000 NA
ATOM      8  C   UNL     1       7.241   7.037  16.899  0.00  0.00    +0.000 C 
ATOM      9  C   UNL     1       6.394   5.924  16.259  0.00  0.00    +0.000 C 
ATOM     10  C   UNL     1       6.953   4.559  16.597  0.00  0.00    +0.000 C 
ATOM     11  C   UNL     1       4.920   6.004  16.728  0.00  0.00    +0.000 C 
ATOM     12  H   UNL     1       7.945   7.585  18.747  0.00  0.00    +0.000 HD
ENDROOT
BRANCH   2  13
ATOM     13  C   UNL     1       2.548   7.365  19.005  0.00  0.00    +0.000 A 
ATOM     14  C   UNL     1       2.622   8.263  17.924  0.00  0.00    +0.000 A 
ATOM     15  C   UNL     1       1.783   9.401  17.821  0.00  0.00    +0.000 A 
ATOM     16  C   UNL     1       0.871   9.623  18.823  0.00  0.00    +0.000 A 
ATOM     17 CL   UNL     1      -0.443  10.710  18.654  0.00  0.00    +0.000 Cl
ATOM     18  N   UNL     1       0.969   8.996  20.000  0.00  0.00    +0.000 NA
ATOM     19  C   UNL     1       1.913   7.990  20.076  0.00  0.00    +0.000 A 
ENDBRANCH   2  13
TORSDOF 1
ENDMDL
