MODEL 1
REMARK VINA RESULT:      -8.4      0.000      0.000
REMARK  Name = 
REMARK  10 active torsions:
REMARK  status: ('A' for Active; 'I' for Inactive)
REMARK    1  A    between atoms: C_1  and  C_2
REMARK    2  A    between atoms: C_2  and  C_3
REMARK    3  A    between atoms: C_2  and  N_4
REMARK    4  A    between atoms: C_2  and  C_32
REMARK    5  A    between atoms: C_5  and  C_7
REMARK    6  A    between atoms: C_10  and  C_11
REMARK    7  A    between atoms: C_11  and  N_12
REMARK    8  A    between atoms: C_13  and  C_15
REMARK    9  A    between atoms: N_18  and  C_19
REMARK   10  A    between atoms: C_25  and  C_26
REMARK                            x       y       z     vdW  Elec       q    Type
REMARK                         _______ _______ _______ _____ _____    ______ ____
ROOT
ATOM      1  C   UNL     1       8.303   8.392  17.584  0.00  0.00    +0.000 C 
ENDROOT
BRANCH   1   5
ATOM      2  C   UNL     1       9.228  12.351  19.037  0.00  0.00    +0.000 A 
ATOM      3  C   UNL     1       8.568  12.176  17.812  0.00  0.00    +0.000 A 
ATOM      4  C   UNL     1       8.278  10.895  17.343  0.00  0.00    +0.000 A 
ATOM      5  C   UNL     1       8.644   9.766  18.087  0.00  0.00    +0.000 A 
ATOM      6  C   UNL     1       9.334   9.943  19.298  0.00  0.00    +0.000 A 
ATOM      7  C   UNL     1       9.623  11.228  19.773  0.00  0.00    +0.000 A 
BRANCH   2   9
ATOM      8  N   UNL     1       9.863  14.646  18.504  0.00  0.00    +0.000 N 
ATOM      9  C   UNL     1       9.506  13.744  19.476  0.00  0.00    +0.000 C 
ATOM     10  O   UNL     1       9.440  14.022  20.669  0.00  0.00    +0.000 OA
ATOM     11  H   UNL     1      10.028  14.332  17.549  0.00  0.00    +0.000 HD
BRANCH   8  13
ATOM     12  C   UNL     1       9.074  16.805  19.427  0.00  0.00    +0.000 C 
ATOM     13  C   UNL     1      10.234  16.047  18.773  0.00  0.00    +0.000 C 
ATOM     14  C   UNL     1      11.509  16.128  19.623  0.00  0.00    +0.000 C 
BRANCH  13  15
ATOM     15  C   UNL     1      10.535  16.671  17.381  0.00  0.00    +0.000 C 
ATOM     16  N   UNL     1      10.879  15.828  16.366  0.00  0.00    +0.000 N 
ATOM     17  O   UNL     1      10.449  17.882  17.166  0.00  0.00    +0.000 OA
ATOM     18  H   UNL     1      11.048  14.840  16.491  0.00  0.00    +0.000 HD
ATOM     19  H   UNL     1      11.080  16.237  15.463  0.00  0.00    +0.000 HD
ENDBRANCH  13  15
ENDBRANCH   8  13
ENDBRANCH   2   9
ENDBRANCH   1   5
BRANCH   1  20
ATOM     20  N   UNL     1       6.967   7.990  17.958  0.00  0.00    +0.000 N 
ATOM     21  C   UNL     1       6.315   7.058  17.182  0.00  0.00    +0.000 C 
ATOM     22  O   UNL     1       6.807   6.613  16.153  0.00  0.00    +0.000 OA
ATOM     23  H   UNL     1       6.633   8.206  18.887  0.00  0.00    +0.000 HD
BRANCH  21  24
ATOM     24  C   UNL     1       5.001   6.659  17.656  0.00  0.00    +0.000 A 
ATOM     25  C   UNL     1       3.821   7.420  17.646  0.00  0.00    +0.000 A 
ATOM     26  N   UNL     1       2.753   6.721  18.012  0.00  0.00    +0.000 NA
ATOM     27  N   UNL     1       3.233   5.497  18.367  0.00  0.00    +0.000 N 
ATOM     28  C   UNL     1       4.595   5.406  18.116  0.00  0.00    +0.000 A 
BRANCH  27  29
ATOM     29  C   UNL     1       2.301   4.551  18.901  0.00  0.00    +0.000 A 
ATOM     30  C   UNL     1       1.799   3.544  18.059  0.00  0.00    +0.000 A 
ATOM     31  C   UNL     1       0.908   2.584  18.553  0.00  0.00    +0.000 A 
ATOM     32  C   UNL     1       0.491   2.633  19.881  0.00  0.00    +0.000 A 
ATOM     33  C   UNL     1       0.947   3.655  20.707  0.00  0.00    +0.000 A 
ATOM     34  C   UNL     1       1.841   4.614  20.218  0.00  0.00    +0.000 A 
ENDBRANCH  27  29
BRANCH  28  35
ATOM     35  C   UNL     1       5.341   4.137  18.239  0.00  0.00    +0.000 C 
ATOM     36  F   UNL     1       5.117   3.254  17.241  0.00  0.00    +0.000 F 
ATOM     37  F   UNL     1       6.684   4.339  18.224  0.00  0.00    +0.000 F 
ATOM     38  F   UNL     1       5.044   3.485  19.391  0.00  0.00    +0.000 F 
ENDBRANCH  28  35
ENDBRANCH  21  24
ENDBRANCH   1  20
TORSDOF 8
ENDMDL
MODEL 2
REMARK VINA RESULT:      -8.2      1.806      2.120
REMARK  Name = 
REMARK  10 active torsions:
REMARK  status: ('A' for Active; 'I' for Inactive)
REMARK    1  A    between atoms: C_1  and  C_2
REMARK    2  A    between atoms: C_2  and  C_3
REMARK    3  A    between atoms: C_2  and  N_4
REMARK    4  A    between atoms: C_2  and  C_32
REMARK    5  A    between atoms: C_5  and  C_7
REMARK    6  A    between atoms: C_10  and  C_11
REMARK    7  A    between atoms: C_11  and  N_12
REMARK    8  A    between atoms: C_13  and  C_15
REMARK    9  A    between atoms: N_18  and  C_19
REMARK   10  A    between atoms: C_25  and  C_26
REMARK                            x       y       z     vdW  Elec       q    Type
REMARK                         _______ _______ _______ _____ _____    ______ ____
ROOT
ATOM      1  C   UNL     1       8.522   9.161  17.418  0.00  0.00    +0.000 C 
ENDROOT
BRANCH   1   5
ATOM      2  C   UNL     1       9.403  12.606  19.866  0.00  0.00    +0.000 A 
ATOM      3  C   UNL     1       8.990  12.762  18.536  0.00  0.00    +0.000 A 
ATOM      4  C   UNL     1       8.713  11.646  17.746  0.00  0.00    +0.000 A 
ATOM      5  C   UNL     1       8.848  10.355  18.269  0.00  0.00    +0.000 A 
ATOM      6  C   UNL     1       9.294  10.200  19.593  0.00  0.00    +0.000 A 
ATOM      7  C   UNL     1       9.569  11.318  20.389  0.00  0.00    +0.000 A 
BRANCH   2   9
ATOM      8  N   UNL     1       9.704  15.025  19.961  0.00  0.00    +0.000 N 
ATOM      9  C   UNL     1       9.682  13.838  20.651  0.00  0.00    +0.000 C 
ATOM     10  O   UNL     1       9.909  13.746  21.852  0.00  0.00    +0.000 OA
ATOM     11  H   UNL     1       9.637  15.030  18.945  0.00  0.00    +0.000 HD
BRANCH   8  13
ATOM     12  C   UNL     1       8.988  16.709  21.632  0.00  0.00    +0.000 C 
ATOM     13  C   UNL     1      10.026  16.328  20.570  0.00  0.00    +0.000 C 
ATOM     14  C   UNL     1      11.447  16.333  21.147  0.00  0.00    +0.000 C 
BRANCH  13  15
ATOM     15  C   UNL     1       9.968  17.357  19.405  0.00  0.00    +0.000 C 
ATOM     16  N   UNL     1       9.271  17.012  18.285  0.00  0.00    +0.000 N 
ATOM     17  O   UNL     1      10.504  18.465  19.473  0.00  0.00    +0.000 OA
ATOM     18  H   UNL     1       8.879  16.094  18.130  0.00  0.00    +0.000 HD
ATOM     19  H   UNL     1       9.239  17.680  17.527  0.00  0.00    +0.000 HD
ENDBRANCH  13  15
ENDBRANCH   8  13
ENDBRANCH   2   9
ENDBRANCH   1   5
BRANCH   1  20
ATOM     20  N   UNL     1       7.666   8.220  18.102  0.00  0.00    +0.000 N 
ATOM     21  C   UNL     1       7.369   7.025  17.485  0.00  0.00    +0.000 C 
ATOM     22  O   UNL     1       7.754   6.768  16.351  0.00  0.00    +0.000 OA
ATOM     23  H   UNL     1       7.501   8.339  19.091  0.00  0.00    +0.000 HD
BRANCH  21  24
ATOM     24  C   UNL     1       6.555   6.105  18.261  0.00  0.00    +0.000 A 
ATOM     25  C   UNL     1       6.960   5.315  19.348  0.00  0.00    +0.000 A 
ATOM     26  N   UNL     1       5.947   4.691  19.938  0.00  0.00    +0.000 NA
ATOM     27  N   UNL     1       4.856   4.990  19.180  0.00  0.00    +0.000 N 
ATOM     28  C   UNL     1       5.179   5.891  18.176  0.00  0.00    +0.000 A 
BRANCH  27  29
ATOM     29  C   UNL     1       3.616   4.367  19.532  0.00  0.00    +0.000 A 
ATOM     30  C   UNL     1       3.324   3.095  19.010  0.00  0.00    +0.000 A 
ATOM     31  C   UNL     1       2.134   2.442  19.354  0.00  0.00    +0.000 A 
ATOM     32  C   UNL     1       1.216   3.060  20.200  0.00  0.00    +0.000 A 
ATOM     33  C   UNL     1       1.477   4.338  20.683  0.00  0.00    +0.000 A 
ATOM     34  C   UNL     1       2.667   4.992  20.344  0.00  0.00    +0.000 A 
ENDBRANCH  27  29
BRANCH  28  35
ATOM     35  C   UNL     1       4.157   6.523  17.317  0.00  0.00    +0.000 C 
ATOM     36  F   UNL     1       3.742   7.738  17.739  0.00  0.00    +0.000 F 
ATOM     37  F   UNL     1       4.619   6.736  16.058  0.00  0.00    +0.000 F 
ATOM     38  F   UNL     1       3.041   5.760  17.214  0.00  0.00    +0.000 F 
ENDBRANCH  28  35
ENDBRANCH  21  24
ENDBRANCH   1  20
TORSDOF 8
ENDMDL
MODEL 3
REMARK VINA RESULT:      -8.2      1.871      2.333
REMARK  Name = 
REMARK  10 active torsions:
REMARK  status: ('A' for Active; 'I' for Inactive)
REMARK    1  A    between atoms: C_1  and  C_2
REMARK    2  A    between atoms: C_2  and  C_3
REMARK    3  A    between atoms: C_2  and  N_4
REMARK    4  A    between atoms: C_2  and  C_32
REMARK    5  A    between atoms: C_5  and  C_7
REMARK    6  A    between atoms: C_10  and  C_11
REMARK    7  A    between atoms: C_11  and  N_12
REMARK    8  A    between atoms: C_13  and  C_15
REMARK    9  A    between atoms: N_18  and  C_19
REMARK   10  A    between atoms: C_25  and  C_26
REMARK                            x       y       z     vdW  Elec       q    Type
REMARK                         _______ _______ _______ _____ _____    ______ ____
ROOT
ATOM      1  C   UNL     1       8.537   9.212  17.439  0.00  0.00    +0.000 C 
ENDROOT
BRANCH   1   5
ATOM      2  C   UNL     1       9.401  12.652  19.899  0.00  0.00    +0.000 A 
ATOM      3  C   UNL     1       8.988  12.811  18.569  0.00  0.00    +0.000 A 
ATOM      4  C   UNL     1       8.718  11.697  17.775  0.00  0.00    +0.000 A 
ATOM      5  C   UNL     1       8.857  10.404  18.294  0.00  0.00    +0.000 A 
ATOM      6  C   UNL     1       9.302  10.247  19.618  0.00  0.00    +0.000 A 
ATOM      7  C   UNL     1       9.571  11.364  20.418  0.00  0.00    +0.000 A 
BRANCH   2   9
ATOM      8  N   UNL     1       9.666  15.076  20.006  0.00  0.00    +0.000 N 
ATOM      9  C   UNL     1       9.673  13.883  20.688  0.00  0.00    +0.000 C 
ATOM     10  O   UNL     1       9.921  13.787  21.885  0.00  0.00    +0.000 OA
ATOM     11  H   UNL     1       9.583  15.086  18.991  0.00  0.00    +0.000 HD
BRANCH   8  13
ATOM     12  C   UNL     1       8.952  16.737  21.700  0.00  0.00    +0.000 C 
ATOM     13  C   UNL     1       9.979  16.379  20.619  0.00  0.00    +0.000 C 
ATOM     14  C   UNL     1      11.409  16.401  21.174  0.00  0.00    +0.000 C 
BRANCH  13  15
ATOM     15  C   UNL     1       9.887  17.415  19.463  0.00  0.00    +0.000 C 
ATOM     16  N   UNL     1       8.924  18.377  19.545  0.00  0.00    +0.000 N 
ATOM     17  O   UNL     1      10.662  17.407  18.504  0.00  0.00    +0.000 OA
ATOM     18  H   UNL     1       8.208  18.393  20.257  0.00  0.00    +0.000 HD
ATOM     19  H   UNL     1       8.862  19.046  18.789  0.00  0.00    +0.000 HD
ENDBRANCH  13  15
ENDBRANCH   8  13
ENDBRANCH   2   9
ENDBRANCH   1   5
BRANCH   1  20
ATOM     20  N   UNL     1       7.694   8.260  18.123  0.00  0.00    +0.000 N 
ATOM     21  C   UNL     1       7.410   7.063  17.504  0.00  0.00    +0.000 C 
ATOM     22  O   UNL     1       7.795   6.812  16.370  0.00  0.00    +0.000 OA
ATOM     23  H   UNL     1       7.529   8.375  19.113  0.00  0.00    +0.000 HD
BRANCH  21  24
ATOM     24  C   UNL     1       6.608   6.132  18.280  0.00  0.00    +0.000 A 
ATOM     25  C   UNL     1       7.017   5.366  19.384  0.00  0.00    +0.000 A 
ATOM     26  N   UNL     1       6.011   4.724  19.967  0.00  0.00    +0.000 NA
ATOM     27  N   UNL     1       4.925   4.984  19.189  0.00  0.00    +0.000 N 
ATOM     28  C   UNL     1       5.240   5.880  18.178  0.00  0.00    +0.000 A 
BRANCH  27  29
ATOM     29  C   UNL     1       3.696   4.333  19.531  0.00  0.00    +0.000 A 
ATOM     30  C   UNL     1       2.753   5.029  20.305  0.00  0.00    +0.000 A 
ATOM     31  C   UNL     1       1.528   4.436  20.635  0.00  0.00    +0.000 A 
ATOM     32  C   UNL     1       1.244   3.137  20.219  0.00  0.00    +0.000 A 
ATOM     33  C   UNL     1       2.193   2.425  19.493  0.00  0.00    +0.000 A 
ATOM     34  C   UNL     1       3.417   3.017  19.158  0.00  0.00    +0.000 A 
ENDBRANCH  27  29
BRANCH  28  35
ATOM     35  C   UNL     1       4.215   6.473  17.295  0.00  0.00    +0.000 C 
ATOM     36  F   UNL     1       4.649   6.770  16.050  0.00  0.00    +0.000 F 
ATOM     37  F   UNL     1       3.167   5.631  17.101  0.00  0.00    +0.000 F 
ATOM     38  F   UNL     1       3.717   7.628  17.803  0.00  0.00    +0.000 F 
ENDBRANCH  28  35
ENDBRANCH  21  24
ENDBRANCH   1  20
TORSDOF 8
ENDMDL
MODEL 4
REMARK VINA RESULT:      -8.1      2.004      2.715
REMARK  Name = 
REMARK  10 active torsions:
REMARK  status: ('A' for Active; 'I' for Inactive)
REMARK    1  A    between atoms: C_1  and  C_2
REMARK    2  A    between atoms: C_2  and  C_3
REMARK    3  A    between atoms: C_2  and  N_4
REMARK    4  A    between atoms: C_2  and  C_32
REMARK    5  A    between atoms: C_5  and  C_7
REMARK    6  A    between atoms: C_10  and  C_11
REMARK    7  A    between atoms: C_11  and  N_12
REMARK    8  A    between atoms: C_13  and  C_15
REMARK    9  A    between atoms: N_18  and  C_19
REMARK   10  A    between atoms: C_25  and  C_26
REMARK                            x       y       z     vdW  Elec       q    Type
REMARK                         _______ _______ _______ _____ _____    ______ ____
ROOT
ATOM      1  C   UNL     1       8.509   9.169  17.417  0.00  0.00    +0.000 C 
ENDROOT
BRANCH   1   5
ATOM      2  C   UNL     1       9.363  12.602  19.891  0.00  0.00    +0.000 A 
ATOM      3  C   UNL     1       8.928  12.766  18.569  0.00  0.00    +0.000 A 
ATOM      4  C   UNL     1       8.661  11.654  17.771  0.00  0.00    +0.000 A 
ATOM      5  C   UNL     1       8.825  10.360  18.278  0.00  0.00    +0.000 A 
ATOM      6  C   UNL     1       9.293  10.198  19.593  0.00  0.00    +0.000 A 
ATOM      7  C   UNL     1       9.559  11.313  20.397  0.00  0.00    +0.000 A 
BRANCH   2   9
ATOM      8  N   UNL     1       9.659  15.022  20.003  0.00  0.00    +0.000 N 
ATOM      9  C   UNL     1       9.631  13.831  20.686  0.00  0.00    +0.000 C 
ATOM     10  O   UNL     1       9.844  13.733  21.890  0.00  0.00    +0.000 OA
ATOM     11  H   UNL     1       9.604  15.032  18.986  0.00  0.00    +0.000 HD
BRANCH   8  13
ATOM     12  C   UNL     1      11.218  16.219  21.512  0.00  0.00    +0.000 C 
ATOM     13  C   UNL     1       9.973  16.322  20.623  0.00  0.00    +0.000 C 
ATOM     14  C   UNL     1      10.131  17.418  19.561  0.00  0.00    +0.000 C 
BRANCH  13  15
ATOM     15  C   UNL     1       8.741  16.670  21.504  0.00  0.00    +0.000 C 
ATOM     16  N   UNL     1       8.858  16.511  22.854  0.00  0.00    +0.000 N 
ATOM     17  O   UNL     1       7.687  17.100  21.030  0.00  0.00    +0.000 OA
ATOM     18  H   UNL     1       9.659  16.088  23.300  0.00  0.00    +0.000 HD
ATOM     19  H   UNL     1       8.054  16.732  23.425  0.00  0.00    +0.000 HD
ENDBRANCH  13  15
ENDBRANCH   8  13
ENDBRANCH   2   9
ENDBRANCH   1   5
BRANCH   1  20
ATOM     20  N   UNL     1       7.650   8.222  18.091  0.00  0.00    +0.000 N 
ATOM     21  C   UNL     1       7.373   7.024  17.471  0.00  0.00    +0.000 C 
ATOM     22  O   UNL     1       7.777   6.768  16.344  0.00  0.00    +0.000 OA
ATOM     23  H   UNL     1       7.469   8.342  19.077  0.00  0.00    +0.000 HD
BRANCH  21  24
ATOM     24  C   UNL     1       6.555   6.099  18.237  0.00  0.00    +0.000 A 
ATOM     25  C   UNL     1       6.957   5.294  19.315  0.00  0.00    +0.000 A 
ATOM     26  N   UNL     1       5.941   4.668  19.898  0.00  0.00    +0.000 NA
ATOM     27  N   UNL     1       4.851   4.980  19.144  0.00  0.00    +0.000 N 
ATOM     28  C   UNL     1       5.178   5.891  18.150  0.00  0.00    +0.000 A 
BRANCH  27  29
ATOM     29  C   UNL     1       3.609   4.358  19.489  0.00  0.00    +0.000 A 
ATOM     30  C   UNL     1       2.726   5.038  20.345  0.00  0.00    +0.000 A 
ATOM     31  C   UNL     1       1.489   4.474  20.683  0.00  0.00    +0.000 A 
ATOM     32  C   UNL     1       1.134   3.220  20.191  0.00  0.00    +0.000 A 
ATOM     33  C   UNL     1       2.023   2.521  19.382  0.00  0.00    +0.000 A 
ATOM     34  C   UNL     1       3.258   3.083  19.039  0.00  0.00    +0.000 A 
ENDBRANCH  27  29
BRANCH  28  35
ATOM     35  C   UNL     1       4.159   6.538  17.299  0.00  0.00    +0.000 C 
ATOM     36  F   UNL     1       3.720   7.731  17.755  0.00  0.00    +0.000 F 
ATOM     37  F   UNL     1       4.635   6.800  16.054  0.00  0.00    +0.000 F 
ATOM     38  F   UNL     1       3.055   5.763  17.154  0.00  0.00    +0.000 F 
ENDBRANCH  28  35
ENDBRANCH  21  24
ENDBRANCH   1  20
TORSDOF 8
ENDMDL
MODEL 5
REMARK VINA RESULT:      -8.1      0.484      1.155
REMARK  Name = 
REMARK  10 active torsions:
REMARK  status: ('A' for Active; 'I' for Inactive)
REMARK    1  A    between atoms: C_1  and  C_2
REMARK    2  A    between atoms: C_2  and  C_3
REMARK    3  A    between atoms: C_2  and  N_4
REMARK    4  A    between atoms: C_2  and  C_32
REMARK    5  A    between atoms: C_5  and  C_7
REMARK    6  A    between atoms: C_10  and  C_11
REMARK    7  A    between atoms: C_11  and  N_12
REMARK    8  A    between atoms: C_13  and  C_15
REMARK    9  A    between atoms: N_18  and  C_19
REMARK   10  A    between atoms: C_25  and  C_26
REMARK                            x       y       z     vdW  Elec       q    Type
REMARK                         _______ _______ _______ _____ _____    ______ ____
ROOT
ATOM      1  C   UNL     1       8.281   8.559  17.552  0.00  0.00    +0.000 C 
ENDROOT
BRANCH   1   5
ATOM      2  C   UNL     1       9.365  12.383  19.237  0.00  0.00    +0.000 A 
ATOM      3  C   UNL     1       9.645  11.194  19.925  0.00  0.00    +0.000 A 
ATOM      4  C   UNL     1       9.286   9.962  19.380  0.00  0.00    +0.000 A 
ATOM      5  C   UNL     1       8.639   9.894  18.141  0.00  0.00    +0.000 A 
ATOM      6  C   UNL     1       8.330  11.088  17.468  0.00  0.00    +0.000 A 
ATOM      7  C   UNL     1       8.692  12.327  18.011  0.00  0.00    +0.000 A 
BRANCH   2   9
ATOM      8  N   UNL     1      10.003  14.730  19.043  0.00  0.00    +0.000 N 
ATOM      9  C   UNL     1       9.774  13.662  19.876  0.00  0.00    +0.000 C 
ATOM     10  O   UNL     1       9.921  13.706  21.092  0.00  0.00    +0.000 OA
ATOM     11  H   UNL     1       9.992  14.604  18.033  0.00  0.00    +0.000 HD
BRANCH   8  13
ATOM     12  C   UNL     1       9.436  16.718  20.409  0.00  0.00    +0.000 C 
ATOM     13  C   UNL     1      10.475  16.049  19.502  0.00  0.00    +0.000 C 
ATOM     14  C   UNL     1      11.838  15.937  20.196  0.00  0.00    +0.000 C 
BRANCH  13  15
ATOM     15  C   UNL     1      10.652  16.898  18.212  0.00  0.00    +0.000 C 
ATOM     16  N   UNL     1      11.728  16.633  17.417  0.00  0.00    +0.000 N 
ATOM     17  O   UNL     1       9.850  17.773  17.879  0.00  0.00    +0.000 OA
ATOM     18  H   UNL     1      12.466  15.991  17.670  0.00  0.00    +0.000 HD
ATOM     19  H   UNL     1      11.845  17.191  16.582  0.00  0.00    +0.000 HD
ENDBRANCH  13  15
ENDBRANCH   8  13
ENDBRANCH   2   9
ENDBRANCH   1   5
BRANCH   1  20
ATOM     20  N   UNL     1       6.955   8.132  17.933  0.00  0.00    +0.000 N 
ATOM     21  C   UNL     1       6.344   7.138  17.202  0.00  0.00    +0.000 C 
ATOM     22  O   UNL     1       6.863   6.655  16.204  0.00  0.00    +0.000 OA
ATOM     23  H   UNL     1       6.603   8.385  18.846  0.00  0.00    +0.000 HD
BRANCH  21  24
ATOM     24  C   UNL     1       5.039   6.719  17.685  0.00  0.00    +0.000 A 
ATOM     25  C   UNL     1       3.843   7.454  17.660  0.00  0.00    +0.000 A 
ATOM     26  N   UNL     1       2.790   6.739  18.040  0.00  0.00    +0.000 NA
ATOM     27  N   UNL     1       3.297   5.533  18.418  0.00  0.00    +0.000 N 
ATOM     28  C   UNL     1       4.660   5.466  18.169  0.00  0.00    +0.000 A 
BRANCH  27  29
ATOM     29  C   UNL     1       2.386   4.577  18.971  0.00  0.00    +0.000 A 
ATOM     30  C   UNL     1       1.768   3.654  18.111  0.00  0.00    +0.000 A 
ATOM     31  C   UNL     1       0.893   2.685  18.619  0.00  0.00    +0.000 A 
ATOM     32  C   UNL     1       0.608   2.645  19.982  0.00  0.00    +0.000 A 
ATOM     33  C   UNL     1       1.180   3.586  20.832  0.00  0.00    +0.000 A 
ATOM     34  C   UNL     1       2.058   4.553  20.328  0.00  0.00    +0.000 A 
ENDBRANCH  27  29
BRANCH  28  35
ATOM     35  C   UNL     1       5.435   4.217  18.316  0.00  0.00    +0.000 C 
ATOM     36  F   UNL     1       5.180   3.529  19.451  0.00  0.00    +0.000 F 
ATOM     37  F   UNL     1       5.171   3.339  17.315  0.00  0.00    +0.000 F 
ATOM     38  F   UNL     1       6.772   4.447  18.310  0.00  0.00    +0.000 F 
ENDBRANCH  28  35
ENDBRANCH  21  24
ENDBRANCH   1  20
TORSDOF 8
ENDMDL
MODEL 6
REMARK VINA RESULT:      -8.1      2.266      3.150
REMARK  Name = 
REMARK  10 active torsions:
REMARK  status: ('A' for Active; 'I' for Inactive)
REMARK    1  A    between atoms: C_1  and  C_2
REMARK    2  A    between atoms: C_2  and  C_3
REMARK    3  A    between atoms: C_2  and  N_4
REMARK    4  A    between atoms: C_2  and  C_32
REMARK    5  A    between atoms: C_5  and  C_7
REMARK    6  A    between atoms: C_10  and  C_11
REMARK    7  A    between atoms: C_11  and  N_12
REMARK    8  A    between atoms: C_13  and  C_15
REMARK    9  A    between atoms: N_18  and  C_19
REMARK   10  A    between atoms: C_25  and  C_26
REMARK                            x       y       z     vdW  Elec       q    Type
REMARK                         _______ _______ _______ _____ _____    ______ ____
ROOT
ATOM      1  C   UNL     1       8.547   9.206  17.467  0.00  0.00    +0.000 C 
ENDROOT
BRANCH   1   5
ATOM      2  C   UNL     1       9.386  12.645  19.938  0.00  0.00    +0.000 A 
ATOM      3  C   UNL     1       8.958  12.806  18.614  0.00  0.00    +0.000 A 
ATOM      4  C   UNL     1       8.695  11.692  17.817  0.00  0.00    +0.000 A 
ATOM      5  C   UNL     1       8.859  10.399  18.327  0.00  0.00    +0.000 A 
ATOM      6  C   UNL     1       9.320  10.240  19.645  0.00  0.00    +0.000 A 
ATOM      7  C   UNL     1       9.581  11.357  20.448  0.00  0.00    +0.000 A 
BRANCH   2   9
ATOM      8  N   UNL     1       8.555  14.590  21.156  0.00  0.00    +0.000 N 
ATOM      9  C   UNL     1       9.649  13.875  20.732  0.00  0.00    +0.000 C 
ATOM     10  O   UNL     1      10.807  14.216  20.946  0.00  0.00    +0.000 OA
ATOM     11  H   UNL     1       7.621  14.333  20.841  0.00  0.00    +0.000 HD
BRANCH   8  13
ATOM     12  C   UNL     1       9.411  16.914  21.092  0.00  0.00    +0.000 C 
ATOM     13  C   UNL     1       8.635  15.862  21.895  0.00  0.00    +0.000 C 
ATOM     14  C   UNL     1       7.239  16.368  22.281  0.00  0.00    +0.000 C 
BRANCH  13  15
ATOM     15  C   UNL     1       9.415  15.536  23.199  0.00  0.00    +0.000 C 
ATOM     16  N   UNL     1      10.627  16.136  23.383  0.00  0.00    +0.000 N 
ATOM     17  O   UNL     1       8.969  14.785  24.068  0.00  0.00    +0.000 OA
ATOM     18  H   UNL     1      11.088  16.694  22.680  0.00  0.00    +0.000 HD
ATOM     19  H   UNL     1      11.135  15.917  24.230  0.00  0.00    +0.000 HD
ENDBRANCH  13  15
ENDBRANCH   8  13
ENDBRANCH   2   9
ENDBRANCH   1   5
BRANCH   1  20
ATOM     20  N   UNL     1       7.692   8.257  18.140  0.00  0.00    +0.000 N 
ATOM     21  C   UNL     1       7.401   7.066  17.512  0.00  0.00    +0.000 C 
ATOM     22  O   UNL     1       7.791   6.820  16.378  0.00  0.00    +0.000 OA
ATOM     23  H   UNL     1       7.522   8.368  19.130  0.00  0.00    +0.000 HD
BRANCH  21  24
ATOM     24  C   UNL     1       6.587   6.138  18.278  0.00  0.00    +0.000 A 
ATOM     25  C   UNL     1       6.985   5.354  19.372  0.00  0.00    +0.000 A 
ATOM     26  N   UNL     1       5.971   4.718  19.948  0.00  0.00    +0.000 NA
ATOM     27  N   UNL     1       4.888   5.002  19.173  0.00  0.00    +0.000 N 
ATOM     28  C   UNL     1       5.215   5.906  18.172  0.00  0.00    +0.000 A 
BRANCH  27  29
ATOM     29  C   UNL     1       3.651   4.364  19.507  0.00  0.00    +0.000 A 
ATOM     30  C   UNL     1       2.730   5.052  20.316  0.00  0.00    +0.000 A 
ATOM     31  C   UNL     1       1.497   4.472  20.641  0.00  0.00    +0.000 A 
ATOM     32  C   UNL     1       1.183   3.194  20.184  0.00  0.00    +0.000 A 
ATOM     33  C   UNL     1       2.110   2.489  19.423  0.00  0.00    +0.000 A 
ATOM     34  C   UNL     1       3.340   3.067  19.094  0.00  0.00    +0.000 A 
ENDBRANCH  27  29
BRANCH  28  35
ATOM     35  C   UNL     1       4.199   6.524  17.297  0.00  0.00    +0.000 C 
ATOM     36  F   UNL     1       3.782   7.746  17.695  0.00  0.00    +0.000 F 
ATOM     37  F   UNL     1       4.668   6.714  16.037  0.00  0.00    +0.000 F 
ATOM     38  F   UNL     1       3.082   5.760  17.201  0.00  0.00    +0.000 F 
ENDBRANCH  28  35
ENDBRANCH  21  24
ENDBRANCH   1  20
TORSDOF 8
ENDMDL
MODEL 7
REMARK VINA RESULT:      -8.0      2.018      2.803
REMARK  Name = 
REMARK  10 active torsions:
REMARK  status: ('A' for Active; 'I' for Inactive)
REMARK    1  A    between atoms: C_1  and  C_2
REMARK    2  A    between atoms: C_2  and  C_3
REMARK    3  A    between atoms: C_2  and  N_4
REMARK    4  A    between atoms: C_2  and  C_32
REMARK    5  A    between atoms: C_5  and  C_7
REMARK    6  A    between atoms: C_10  and  C_11
REMARK    7  A    between atoms: C_11  and  N_12
REMARK    8  A    between atoms: C_13  and  C_15
REMARK    9  A    between atoms: N_18  and  C_19
REMARK   10  A    between atoms: C_25  and  C_26
REMARK                            x       y       z     vdW  Elec       q    Type
REMARK                         _______ _______ _______ _____ _____    ______ ____
ROOT
ATOM      1  C   UNL     1       8.577   9.135  17.442  0.00  0.00    +0.000 C 
ENDROOT
BRANCH   1   5
ATOM      2  C   UNL     1       9.367  12.676  19.782  0.00  0.00    +0.000 A 
ATOM      3  C   UNL     1       9.560  11.401  20.330  0.00  0.00    +0.000 A 
ATOM      4  C   UNL     1       9.297  10.260  19.573  0.00  0.00    +0.000 A 
ATOM      5  C   UNL     1       8.832  10.372  18.257  0.00  0.00    +0.000 A 
ATOM      6  C   UNL     1       8.608  11.651  17.721  0.00  0.00    +0.000 A 
ATOM      7  C   UNL     1       8.875  12.798  18.477  0.00  0.00    +0.000 A 
BRANCH   2   9
ATOM      8  N   UNL     1       9.617  15.089  20.052  0.00  0.00    +0.000 N 
ATOM      9  C   UNL     1       9.666  13.850  20.644  0.00  0.00    +0.000 C 
ATOM     10  O   UNL     1       9.971  13.670  21.818  0.00  0.00    +0.000 OA
ATOM     11  H   UNL     1       9.486  15.171  19.046  0.00  0.00    +0.000 HD
BRANCH   8  13
ATOM     12  C   UNL     1      11.361  16.293  21.336  0.00  0.00    +0.000 C 
ATOM     13  C   UNL     1       9.948  16.348  20.743  0.00  0.00    +0.000 C 
ATOM     14  C   UNL     1       9.777  17.553  19.809  0.00  0.00    +0.000 C 
BRANCH  13  15
ATOM     15  C   UNL     1       8.913  16.473  21.897  0.00  0.00    +0.000 C 
ATOM     16  N   UNL     1       9.377  16.404  23.177  0.00  0.00    +0.000 N 
ATOM     17  O   UNL     1       7.712  16.654  21.692  0.00  0.00    +0.000 OA
ATOM     18  H   UNL     1      10.331  16.176  23.416  0.00  0.00    +0.000 HD
ATOM     19  H   UNL     1       8.701  16.479  23.926  0.00  0.00    +0.000 HD
ENDBRANCH  13  15
ENDBRANCH   8  13
ENDBRANCH   2   9
ENDBRANCH   1   5
BRANCH   1  20
ATOM     20  N   UNL     1       7.707   8.204  18.121  0.00  0.00    +0.000 N 
ATOM     21  C   UNL     1       7.382   7.023  17.492  0.00  0.00    +0.000 C 
ATOM     22  O   UNL     1       7.753   6.772  16.353  0.00  0.00    +0.000 OA
ATOM     23  H   UNL     1       7.552   8.314  19.113  0.00  0.00    +0.000 HD
BRANCH  21  24
ATOM     24  C   UNL     1       6.555   6.110  18.264  0.00  0.00    +0.000 A 
ATOM     25  C   UNL     1       6.950   5.308  19.347  0.00  0.00    +0.000 A 
ATOM     26  N   UNL     1       5.929   4.695  19.934  0.00  0.00    +0.000 NA
ATOM     27  N   UNL     1       4.841   5.013  19.178  0.00  0.00    +0.000 N 
ATOM     28  C   UNL     1       5.177   5.915  18.179  0.00  0.00    +0.000 A 
BRANCH  27  29
ATOM     29  C   UNL     1       3.593   4.405  19.527  0.00  0.00    +0.000 A 
ATOM     30  C   UNL     1       3.297   3.127  19.022  0.00  0.00    +0.000 A 
ATOM     31  C   UNL     1       2.098   2.489  19.365  0.00  0.00    +0.000 A 
ATOM     32  C   UNL     1       1.176   3.127  20.191  0.00  0.00    +0.000 A 
ATOM     33  C   UNL     1       1.443   4.411  20.656  0.00  0.00    +0.000 A 
ATOM     34  C   UNL     1       2.641   5.050  20.318  0.00  0.00    +0.000 A 
ENDBRANCH  27  29
BRANCH  28  35
ATOM     35  C   UNL     1       4.164   6.566  17.323  0.00  0.00    +0.000 C 
ATOM     36  F   UNL     1       3.760   7.781  17.755  0.00  0.00    +0.000 F 
ATOM     37  F   UNL     1       4.631   6.785  16.067  0.00  0.00    +0.000 F 
ATOM     38  F   UNL     1       3.039   5.815  17.210  0.00  0.00    +0.000 F 
ENDBRANCH  28  35
ENDBRANCH  21  24
ENDBRANCH   1  20
TORSDOF 8
ENDMDL
MODEL 8
REMARK VINA RESULT:      -8.0      1.897      2.377
REMARK  Name = 
REMARK  10 active torsions:
REMARK  status: ('A' for Active; 'I' for Inactive)
REMARK    1  A    between atoms: C_1  and  C_2
REMARK    2  A    between atoms: C_2  and  C_3
REMARK    3  A    between atoms: C_2  and  N_4
REMARK    4  A    between atoms: C_2  and  C_32
REMARK    5  A    between atoms: C_5  and  C_7
REMARK    6  A    between atoms: C_10  and  C_11
REMARK    7  A    between atoms: C_11  and  N_12
REMARK    8  A    between atoms: C_13  and  C_15
REMARK    9  A    between atoms: N_18  and  C_19
REMARK   10  A    between atoms: C_25  and  C_26
REMARK                            x       y       z     vdW  Elec       q    Type
REMARK                         _______ _______ _______ _____ _____    ______ ____
ROOT
ATOM      1  C   UNL     1       8.687   9.252  17.503  0.00  0.00    +0.000 C 
ENDROOT
BRANCH   1   5
ATOM      2  C   UNL     1       9.383  12.808  19.849  0.00  0.00    +0.000 A 
ATOM      3  C   UNL     1       9.588  11.536  20.403  0.00  0.00    +0.000 A 
ATOM      4  C   UNL     1       9.354  10.390  19.644  0.00  0.00    +0.000 A 
ATOM      5  C   UNL     1       8.910  10.493  18.320  0.00  0.00    +0.000 A 
ATOM      6  C   UNL     1       8.674  11.767  17.778  0.00  0.00    +0.000 A 
ATOM      7  C   UNL     1       8.911  12.920  18.537  0.00  0.00    +0.000 A 
BRANCH   2   9
ATOM      8  N   UNL     1       9.702  15.214  20.099  0.00  0.00    +0.000 N 
ATOM      9  C   UNL     1       9.651  13.987  20.715  0.00  0.00    +0.000 C 
ATOM     10  O   UNL     1       9.843  13.821  21.914  0.00  0.00    +0.000 OA
ATOM     11  H   UNL     1       9.663  15.281  19.084  0.00  0.00    +0.000 HD
BRANCH   8  13
ATOM     12  C   UNL     1       8.952  16.804  21.846  0.00  0.00    +0.000 C 
ATOM     13  C   UNL     1      10.018  16.474  20.795  0.00  0.00    +0.000 C 
ATOM     14  C   UNL     1      11.421  16.427  21.414  0.00  0.00    +0.000 C 
BRANCH  13  15
ATOM     15  C   UNL     1      10.007  17.571  19.693  0.00  0.00    +0.000 C 
ATOM     16  N   UNL     1       9.257  17.345  18.577  0.00  0.00    +0.000 N 
ATOM     17  O   UNL     1      10.626  18.631  19.807  0.00  0.00    +0.000 OA
ATOM     18  H   UNL     1       8.794  16.469  18.382  0.00  0.00    +0.000 HD
ATOM     19  H   UNL     1       9.256  18.057  17.858  0.00  0.00    +0.000 HD
ENDBRANCH  13  15
ENDBRANCH   8  13
ENDBRANCH   2   9
ENDBRANCH   1   5
BRANCH   1  20
ATOM     20  N   UNL     1       7.832   8.302  18.176  0.00  0.00    +0.000 N 
ATOM     21  C   UNL     1       7.477   7.147  17.515  0.00  0.00    +0.000 C 
ATOM     22  O   UNL     1       7.810   6.935  16.356  0.00  0.00    +0.000 OA
ATOM     23  H   UNL     1       7.708   8.377  19.175  0.00  0.00    +0.000 HD
BRANCH  21  24
ATOM     24  C   UNL     1       6.668   6.212  18.279  0.00  0.00    +0.000 A 
ATOM     25  C   UNL     1       7.074   5.420  19.365  0.00  0.00    +0.000 A 
ATOM     26  N   UNL     1       6.063   4.781  19.942  0.00  0.00    +0.000 NA
ATOM     27  N   UNL     1       4.975   5.070  19.177  0.00  0.00    +0.000 N 
ATOM     28  C   UNL     1       5.296   5.981  18.181  0.00  0.00    +0.000 A 
BRANCH  27  29
ATOM     29  C   UNL     1       3.740   4.429  19.515  0.00  0.00    +0.000 A 
ATOM     30  C   UNL     1       3.489   3.138  19.020  0.00  0.00    +0.000 A 
ATOM     31  C   UNL     1       2.305   2.468  19.353  0.00  0.00    +0.000 A 
ATOM     32  C   UNL     1       1.352   3.088  20.158  0.00  0.00    +0.000 A 
ATOM     33  C   UNL     1       1.573   4.384  20.611  0.00  0.00    +0.000 A 
ATOM     34  C   UNL     1       2.757   5.055  20.284  0.00  0.00    +0.000 A 
ENDBRANCH  27  29
BRANCH  28  35
ATOM     35  C   UNL     1       4.274   6.605  17.317  0.00  0.00    +0.000 C 
ATOM     36  F   UNL     1       4.694   6.891  16.064  0.00  0.00    +0.000 F 
ATOM     37  F   UNL     1       3.198   5.795  17.141  0.00  0.00    +0.000 F 
ATOM     38  F   UNL     1       3.818   7.774  17.834  0.00  0.00    +0.000 F 
ENDBRANCH  28  35
ENDBRANCH  21  24
ENDBRANCH   1  20
TORSDOF 8
ENDMDL
MODEL 9
REMARK VINA RESULT:      -8.0      2.194      2.728
REMARK  Name = 
REMARK  10 active torsions:
REMARK  status: ('A' for Active; 'I' for Inactive)
REMARK    1  A    between atoms: C_1  and  C_2
REMARK    2  A    between atoms: C_2  and  C_3
REMARK    3  A    between atoms: C_2  and  N_4
REMARK    4  A    between atoms: C_2  and  C_32
REMARK    5  A    between atoms: C_5  and  C_7
REMARK    6  A    between atoms: C_10  and  C_11
REMARK    7  A    between atoms: C_11  and  N_12
REMARK    8  A    between atoms: C_13  and  C_15
REMARK    9  A    between atoms: N_18  and  C_19
REMARK   10  A    between atoms: C_25  and  C_26
REMARK                            x       y       z     vdW  Elec       q    Type
REMARK                         _______ _______ _______ _____ _____    ______ ____
ROOT
ATOM      1  C   UNL     1       8.560   9.217  17.457  0.00  0.00    +0.000 C 
ENDROOT
BRANCH   1   5
ATOM      2  C   UNL     1       9.455  12.633  19.940  0.00  0.00    +0.000 A 
ATOM      3  C   UNL     1       9.073  12.804  18.602  0.00  0.00    +0.000 A 
ATOM      4  C   UNL     1       8.792  11.697  17.802  0.00  0.00    +0.000 A 
ATOM      5  C   UNL     1       8.891  10.401  18.321  0.00  0.00    +0.000 A 
ATOM      6  C   UNL     1       9.306  10.231  19.653  0.00  0.00    +0.000 A 
ATOM      7  C   UNL     1       9.584  11.341  20.460  0.00  0.00    +0.000 A 
BRANCH   2   9
ATOM      8  N   UNL     1       8.673  14.460  21.357  0.00  0.00    +0.000 N 
ATOM      9  C   UNL     1       9.740  13.856  20.736  0.00  0.00    +0.000 C 
ATOM     10  O   UNL     1      10.886  14.289  20.783  0.00  0.00    +0.000 OA
ATOM     11  H   UNL     1       7.725  14.134  21.180  0.00  0.00    +0.000 HD
BRANCH   8  13
ATOM     12  C   UNL     1       7.450  16.008  22.856  0.00  0.00    +0.000 C 
ATOM     13  C   UNL     1       8.768  15.711  22.130  0.00  0.00    +0.000 C 
ATOM     14  C   UNL     1       9.950  15.671  23.106  0.00  0.00    +0.000 C 
BRANCH  13  15
ATOM     15  C   UNL     1       9.038  16.828  21.082  0.00  0.00    +0.000 C 
ATOM     16  N   UNL     1       8.099  17.033  20.114  0.00  0.00    +0.000 N 
ATOM     17  O   UNL     1      10.045  17.537  21.114  0.00  0.00    +0.000 OA
ATOM     18  H   UNL     1       7.294  16.438  19.979  0.00  0.00    +0.000 HD
ATOM     19  H   UNL     1       8.279  17.755  19.430  0.00  0.00    +0.000 HD
ENDBRANCH  13  15
ENDBRANCH   8  13
ENDBRANCH   2   9
ENDBRANCH   1   5
BRANCH   1  20
ATOM     20  N   UNL     1       7.714   8.264  18.137  0.00  0.00    +0.000 N 
ATOM     21  C   UNL     1       7.423   7.073  17.511  0.00  0.00    +0.000 C 
ATOM     22  O   UNL     1       7.804   6.828  16.374  0.00  0.00    +0.000 OA
ATOM     23  H   UNL     1       7.553   8.374  19.129  0.00  0.00    +0.000 HD
BRANCH  21  24
ATOM     24  C   UNL     1       6.619   6.140  18.284  0.00  0.00    +0.000 A 
ATOM     25  C   UNL     1       7.028   5.367  19.382  0.00  0.00    +0.000 A 
ATOM     26  N   UNL     1       6.021   4.725  19.963  0.00  0.00    +0.000 NA
ATOM     27  N   UNL     1       4.934   4.993  19.189  0.00  0.00    +0.000 N 
ATOM     28  C   UNL     1       5.250   5.894  18.182  0.00  0.00    +0.000 A 
BRANCH  27  29
ATOM     29  C   UNL     1       3.704   4.344  19.529  0.00  0.00    +0.000 A 
ATOM     30  C   UNL     1       2.751   5.050  20.283  0.00  0.00    +0.000 A 
ATOM     31  C   UNL     1       1.524   4.459  20.611  0.00  0.00    +0.000 A 
ATOM     32  C   UNL     1       1.248   3.153  20.212  0.00  0.00    +0.000 A 
ATOM     33  C   UNL     1       2.206   2.432  19.507  0.00  0.00    +0.000 A 
ATOM     34  C   UNL     1       3.431   3.021  19.175  0.00  0.00    +0.000 A 
ENDBRANCH  27  29
BRANCH  28  35
ATOM     35  C   UNL     1       4.226   6.496  17.305  0.00  0.00    +0.000 C 
ATOM     36  F   UNL     1       4.661   6.807  16.064  0.00  0.00    +0.000 F 
ATOM     37  F   UNL     1       3.179   5.655  17.100  0.00  0.00    +0.000 F 
ATOM     38  F   UNL     1       3.726   7.644  17.825  0.00  0.00    +0.000 F 
ENDBRANCH  28  35
ENDBRANCH  21  24
ENDBRANCH   1  20
TORSDOF 8
ENDMDL
