MODEL 1
REMARK VINA RESULT:      -8.5      0.000      0.000
REMARK  Name = 
REMARK  7 active torsions:
REMARK  status: ('A' for Active; 'I' for Inactive)
REMARK    1  A    between atoms: C_1  and  C_2
REMARK    2  A    between atoms: N_3  and  C_4
REMARK    3  A    between atoms: N_11  and  C_12
REMARK    4  A    between atoms: C_12  and  C_13
REMARK    5  A    between atoms: C_13  and  C_14
REMARK    6  A    between atoms: C_14  and  C_15
REMARK    7  A    between atoms: C_15  and  C_17
REMARK                            x       y       z     vdW  Elec       q    Type
REMARK                         _______ _______ _______ _____ _____    ______ ____
ROOT
ATOM      1  C   UNL     1       2.915   6.330  18.864  0.00  0.00    +0.000 C 
ATOM      2  C   UNL     1       3.860   5.331  19.559  0.00  0.00    +0.000 C 
ATOM      3  N   UNL     1       3.296   4.024  19.811  0.00  0.00    +0.000 N 
ATOM      4  C   UNL     1       2.089   3.721  20.544  0.00  0.00    +0.000 C 
ATOM      5  C   UNL     1       4.168   3.099  19.379  0.00  0.00    +0.000 C 
ATOM      6  O   UNL     1       3.995   1.899  19.521  0.00  0.00    +0.000 OA
ATOM      7  O   UNL     1       5.264   3.613  18.808  0.00  0.00    +0.000 OA
ATOM      8  C   UNL     1       5.157   4.991  18.734  0.00  0.00    +0.000 C 
ATOM      9  C   UNL     1       5.056   5.354  17.223  0.00  0.00    +0.000 C 
ATOM     10  C   UNL     1       6.392   5.105  16.516  0.00  0.00    +0.000 C 
ATOM     11  N   UNL     1       7.493   5.871  17.151  0.00  0.00    +0.000 NA
ATOM     12  C   UNL     1       7.656   5.414  18.551  0.00  0.00    +0.000 C 
ATOM     13  C   UNL     1       6.385   5.660  19.389  0.00  0.00    +0.000 C 
ENDROOT
BRANCH  11  14
ATOM     14  C   UNL     1       7.347   7.351  17.093  0.00  0.00    +0.000 C 
BRANCH  14  15
ATOM     15  C   UNL     1       8.143   8.099  18.167  0.00  0.00    +0.000 C 
BRANCH  15  16
ATOM     16  C   UNL     1       8.197   9.595  17.811  0.00  0.00    +0.000 C 
BRANCH  16  17
ATOM     17  C   UNL     1       9.097  10.394  18.722  0.00  0.00    +0.000 C 
ATOM     18  O   UNL     1       9.333   9.983  19.849  0.00  0.00    +0.000 OA
BRANCH  17  19
ATOM     19  C   UNL     1       9.718  11.669  18.265  0.00  0.00    +0.000 A 
ATOM     20  C   UNL     1      10.989  11.691  17.651  0.00  0.00    +0.000 A 
ATOM     21  C   UNL     1      11.557  12.900  17.243  0.00  0.00    +0.000 A 
ATOM     22  C   UNL     1      10.871  14.100  17.439  0.00  0.00    +0.000 A 
ATOM     23  F   UNL     1      11.426  15.272  17.045  0.00  0.00    +0.000 F 
ATOM     24  C   UNL     1       9.612  14.092  18.042  0.00  0.00    +0.000 A 
ATOM     25  C   UNL     1       9.039  12.887  18.453  0.00  0.00    +0.000 A 
ENDBRANCH  17  19
ENDBRANCH  16  17
ENDBRANCH  15  16
ENDBRANCH  14  15
ENDBRANCH  11  14
TORSDOF 5
ENDMDL
MODEL 2
REMARK VINA RESULT:      -8.1      1.121      1.498
REMARK  Name = 
REMARK  7 active torsions:
REMARK  status: ('A' for Active; 'I' for Inactive)
REMARK    1  A    between atoms: C_1  and  C_2
REMARK    2  A    between atoms: N_3  and  C_4
REMARK    3  A    between atoms: N_11  and  C_12
REMARK    4  A    between atoms: C_12  and  C_13
REMARK    5  A    between atoms: C_13  and  C_14
REMARK    6  A    between atoms: C_14  and  C_15
REMARK    7  A    between atoms: C_15  and  C_17
REMARK                            x       y       z     vdW  Elec       q    Type
REMARK                         _______ _______ _______ _____ _____    ______ ____
ROOT
ATOM      1  C   UNL     1       2.853   6.243  19.822  0.00  0.00    +0.000 C 
ATOM      2  C   UNL     1       3.385   4.860  19.402  0.00  0.00    +0.000 C 
ATOM      3  N   UNL     1       2.385   3.943  18.900  0.00  0.00    +0.000 N 
ATOM      4  C   UNL     1       1.180   3.513  19.571  0.00  0.00    +0.000 C 
ATOM      5  C   UNL     1       2.836   3.419  17.749  0.00  0.00    +0.000 C 
ATOM      6  O   UNL     1       2.236   2.557  17.127  0.00  0.00    +0.000 OA
ATOM      7  O   UNL     1       4.022   3.902  17.361  0.00  0.00    +0.000 OA
ATOM      8  C   UNL     1       4.432   4.902  18.227  0.00  0.00    +0.000 C 
ATOM      9  C   UNL     1       4.417   6.232  17.417  0.00  0.00    +0.000 C 
ATOM     10  C   UNL     1       5.538   6.242  16.373  0.00  0.00    +0.000 C 
ATOM     11  N   UNL     1       6.867   6.045  17.003  0.00  0.00    +0.000 NA
ATOM     12  C   UNL     1       6.900   4.715  17.656  0.00  0.00    +0.000 C 
ATOM     13  C   UNL     1       5.843   4.595  18.771  0.00  0.00    +0.000 C 
ENDROOT
BRANCH  11  14
ATOM     14  C   UNL     1       7.279   7.111  17.955  0.00  0.00    +0.000 C 
BRANCH  14  15
ATOM     15  C   UNL     1       8.232   8.150  17.355  0.00  0.00    +0.000 C 
BRANCH  15  16
ATOM     16  C   UNL     1       7.850   9.548  17.869  0.00  0.00    +0.000 C 
BRANCH  16  17
ATOM     17  C   UNL     1       8.949  10.217  18.658  0.00  0.00    +0.000 C 
ATOM     18  O   UNL     1       9.360   9.692  19.684  0.00  0.00    +0.000 OA
BRANCH  17  19
ATOM     19  C   UNL     1       9.557  11.497  18.199  0.00  0.00    +0.000 A 
ATOM     20  C   UNL     1       8.810  12.694  18.155  0.00  0.00    +0.000 A 
ATOM     21  C   UNL     1       9.399  13.879  17.707  0.00  0.00    +0.000 A 
ATOM     22  C   UNL     1      10.734  13.890  17.300  0.00  0.00    +0.000 A 
ATOM     23  F   UNL     1      11.301  15.041  16.864  0.00  0.00    +0.000 F 
ATOM     24  C   UNL     1      11.485  12.714  17.341  0.00  0.00    +0.000 A 
ATOM     25  C   UNL     1      10.903  11.525  17.786  0.00  0.00    +0.000 A 
ENDBRANCH  17  19
ENDBRANCH  16  17
ENDBRANCH  15  16
ENDBRANCH  14  15
ENDBRANCH  11  14
TORSDOF 5
ENDMDL
MODEL 3
REMARK VINA RESULT:      -7.7      1.708      1.774
REMARK  Name = 
REMARK  7 active torsions:
REMARK  status: ('A' for Active; 'I' for Inactive)
REMARK    1  A    between atoms: C_1  and  C_2
REMARK    2  A    between atoms: N_3  and  C_4
REMARK    3  A    between atoms: N_11  and  C_12
REMARK    4  A    between atoms: C_12  and  C_13
REMARK    5  A    between atoms: C_13  and  C_14
REMARK    6  A    between atoms: C_14  and  C_15
REMARK    7  A    between atoms: C_15  and  C_17
REMARK                            x       y       z     vdW  Elec       q    Type
REMARK                         _______ _______ _______ _____ _____    ______ ____
ROOT
ATOM      1  C   UNL     1       2.983   6.251  19.825  0.00  0.00    +0.000 C 
ATOM      2  C   UNL     1       3.415   4.830  19.413  0.00  0.00    +0.000 C 
ATOM      3  N   UNL     1       2.359   3.994  18.888  0.00  0.00    +0.000 N 
ATOM      4  C   UNL     1       1.110   3.659  19.530  0.00  0.00    +0.000 C 
ATOM      5  C   UNL     1       2.793   3.438  17.745  0.00  0.00    +0.000 C 
ATOM      6  O   UNL     1       2.142   2.625  17.108  0.00  0.00    +0.000 OA
ATOM      7  O   UNL     1       4.022   3.828  17.385  0.00  0.00    +0.000 OA
ATOM      8  C   UNL     1       4.488   4.792  18.262  0.00  0.00    +0.000 C 
ATOM      9  C   UNL     1       4.595   6.120  17.455  0.00  0.00    +0.000 C 
ATOM     10  C   UNL     1       5.735   6.044  16.436  0.00  0.00    +0.000 C 
ATOM     11  N   UNL     1       7.031   5.744  17.094  0.00  0.00    +0.000 NA
ATOM     12  C   UNL     1       6.947   4.415  17.745  0.00  0.00    +0.000 C 
ATOM     13  C   UNL     1       5.859   4.376  18.837  0.00  0.00    +0.000 C 
ENDROOT
BRANCH  11  14
ATOM     14  C   UNL     1       7.503   6.774  18.058  0.00  0.00    +0.000 C 
BRANCH  14  15
ATOM     15  C   UNL     1       7.890   8.107  17.408  0.00  0.00    +0.000 C 
BRANCH  15  16
ATOM     16  C   UNL     1       8.572   9.004  18.454  0.00  0.00    +0.000 C 
BRANCH  16  17
ATOM     17  C   UNL     1       8.498  10.474  18.121  0.00  0.00    +0.000 C 
ATOM     18  O   UNL     1       7.587  10.888  17.417  0.00  0.00    +0.000 OA
BRANCH  17  19
ATOM     19  C   UNL     1       9.504  11.436  18.651  0.00  0.00    +0.000 A 
ATOM     20  C   UNL     1      10.351  12.166  17.789  0.00  0.00    +0.000 A 
ATOM     21  C   UNL     1      11.298  13.052  18.310  0.00  0.00    +0.000 A 
ATOM     22  C   UNL     1      11.413  13.224  19.691  0.00  0.00    +0.000 A 
ATOM     23  F   UNL     1      12.333  14.082  20.194  0.00  0.00    +0.000 F 
ATOM     24  C   UNL     1      10.579  12.510  20.554  0.00  0.00    +0.000 A 
ATOM     25  C   UNL     1       9.632  11.622  20.040  0.00  0.00    +0.000 A 
ENDBRANCH  17  19
ENDBRANCH  16  17
ENDBRANCH  15  16
ENDBRANCH  14  15
ENDBRANCH  11  14
TORSDOF 5
ENDMDL
MODEL 4
REMARK VINA RESULT:      -7.6      7.384     10.552
REMARK  Name = 
REMARK  7 active torsions:
REMARK  status: ('A' for Active; 'I' for Inactive)
REMARK    1  A    between atoms: C_1  and  C_2
REMARK    2  A    between atoms: N_3  and  C_4
REMARK    3  A    between atoms: N_11  and  C_12
REMARK    4  A    between atoms: C_12  and  C_13
REMARK    5  A    between atoms: C_13  and  C_14
REMARK    6  A    between atoms: C_14  and  C_15
REMARK    7  A    between atoms: C_15  and  C_17
REMARK                            x       y       z     vdW  Elec       q    Type
REMARK                         _______ _______ _______ _____ _____    ______ ____
ROOT
ATOM      1  C   UNL     1      -2.837  10.005  16.557  0.00  0.00    +0.000 C 
ATOM      2  C   UNL     1      -2.895  11.390  17.231  0.00  0.00    +0.000 C 
ATOM      3  N   UNL     1      -4.187  11.761  17.763  0.00  0.00    +0.000 N 
ATOM      4  C   UNL     1      -5.442  11.818  17.050  0.00  0.00    +0.000 C 
ATOM      5  C   UNL     1      -4.013  12.203  19.019  0.00  0.00    +0.000 C 
ATOM      6  O   UNL     1      -4.920  12.653  19.701  0.00  0.00    +0.000 OA
ATOM      7  O   UNL     1      -2.745  12.140  19.444  0.00  0.00    +0.000 OA
ATOM      8  C   UNL     1      -1.953  11.536  18.483  0.00  0.00    +0.000 C 
ATOM      9  C   UNL     1      -1.480  10.178  19.078  0.00  0.00    +0.000 C 
ATOM     10  C   UNL     1      -0.477  10.404  20.214  0.00  0.00    +0.000 C 
ATOM     11  N   UNL     1       0.692  11.193  19.755  0.00  0.00    +0.000 NA
ATOM     12  C   UNL     1       0.231  12.532  19.316  0.00  0.00    +0.000 C 
ATOM     13  C   UNL     1      -0.753  12.442  18.132  0.00  0.00    +0.000 C 
ENDROOT
BRANCH  11  14
ATOM     14  C   UNL     1       1.516  10.546  18.698  0.00  0.00    +0.000 C 
BRANCH  14  15
ATOM     15  C   UNL     1       1.896   9.094  19.005  0.00  0.00    +0.000 C 
BRANCH  15  16
ATOM     16  C   UNL     1       2.253   8.373  17.695  0.00  0.00    +0.000 C 
BRANCH  16  17
ATOM     17  C   UNL     1       3.032   7.098  17.906  0.00  0.00    +0.000 C 
ATOM     18  O   UNL     1       4.185   7.022  17.504  0.00  0.00    +0.000 OA
BRANCH  17  19
ATOM     19  C   UNL     1       2.428   5.935  18.614  0.00  0.00    +0.000 A 
ATOM     20  C   UNL     1       2.332   5.897  20.021  0.00  0.00    +0.000 A 
ATOM     21  C   UNL     1       1.773   4.788  20.663  0.00  0.00    +0.000 A 
ATOM     22  C   UNL     1       1.303   3.707  19.916  0.00  0.00    +0.000 A 
ATOM     23  F   UNL     1       0.765   2.632  20.541  0.00  0.00    +0.000 F 
ATOM     24  C   UNL     1       1.390   3.733  18.522  0.00  0.00    +0.000 A 
ATOM     25  C   UNL     1       1.948   4.836  17.875  0.00  0.00    +0.000 A 
ENDBRANCH  17  19
ENDBRANCH  16  17
ENDBRANCH  15  16
ENDBRANCH  14  15
ENDBRANCH  11  14
TORSDOF 5
ENDMDL
MODEL 5
REMARK VINA RESULT:      -7.6      2.144      2.415
REMARK  Name = 
REMARK  7 active torsions:
REMARK  status: ('A' for Active; 'I' for Inactive)
REMARK    1  A    between atoms: C_1  and  C_2
REMARK    2  A    between atoms: N_3  and  C_4
REMARK    3  A    between atoms: N_11  and  C_12
REMARK    4  A    between atoms: C_12  and  C_13
REMARK    5  A    between atoms: C_13  and  C_14
REMARK    6  A    between atoms: C_14  and  C_15
REMARK    7  A    between atoms: C_15  and  C_17
REMARK                            x       y       z     vdW  Elec       q    Type
REMARK                         _______ _______ _______ _____ _____    ______ ____
ROOT
ATOM      1  C   UNL     1       3.231   6.230  19.791  0.00  0.00    +0.000 C 
ATOM      2  C   UNL     1       3.677   4.894  19.166  0.00  0.00    +0.000 C 
ATOM      3  N   UNL     1       2.635   4.152  18.493  0.00  0.00    +0.000 N 
ATOM      4  C   UNL     1       1.375   3.717  19.049  0.00  0.00    +0.000 C 
ATOM      5  C   UNL     1       3.094   3.785  17.285  0.00  0.00    +0.000 C 
ATOM      6  O   UNL     1       2.458   3.085  16.514  0.00  0.00    +0.000 OA
ATOM      7  O   UNL     1       4.328   4.229  17.017  0.00  0.00    +0.000 OA
ATOM      8  C   UNL     1       4.772   5.042  18.045  0.00  0.00    +0.000 C 
ATOM      9  C   UNL     1       4.890   6.481  17.464  0.00  0.00    +0.000 C 
ATOM     10  C   UNL     1       6.051   6.570  16.469  0.00  0.00    +0.000 C 
ATOM     11  N   UNL     1       7.334   6.169  17.097  0.00  0.00    +0.000 NA
ATOM     12  C   UNL     1       7.243   4.753  17.525  0.00  0.00    +0.000 C 
ATOM     13  C   UNL     1       6.134   4.540  18.574  0.00  0.00    +0.000 C 
ENDROOT
BRANCH  11  14
ATOM     14  C   UNL     1       7.783   7.033  18.222  0.00  0.00    +0.000 C 
BRANCH  14  15
ATOM     15  C   UNL     1       8.123   8.469  17.810  0.00  0.00    +0.000 C 
BRANCH  15  16
ATOM     16  C   UNL     1       8.767   9.201  18.999  0.00  0.00    +0.000 C 
BRANCH  16  17
ATOM     17  C   UNL     1       9.398  10.518  18.620  0.00  0.00    +0.000 C 
ATOM     18  O   UNL     1       9.746  10.709  17.463  0.00  0.00    +0.000 OA
BRANCH  17  19
ATOM     19  C   UNL     1       9.587  11.599  19.627  0.00  0.00    +0.000 A 
ATOM     20  C   UNL     1       9.200  11.429  20.974  0.00  0.00    +0.000 A 
ATOM     21  C   UNL     1       9.375  12.462  21.898  0.00  0.00    +0.000 A 
ATOM     22  C   UNL     1       9.937  13.675  21.496  0.00  0.00    +0.000 A 
ATOM     23  F   UNL     1      10.103  14.677  22.393  0.00  0.00    +0.000 F 
ATOM     24  C   UNL     1      10.327  13.856  20.167  0.00  0.00    +0.000 A 
ATOM     25  C   UNL     1      10.154  12.828  19.239  0.00  0.00    +0.000 A 
ENDBRANCH  17  19
ENDBRANCH  16  17
ENDBRANCH  15  16
ENDBRANCH  14  15
ENDBRANCH  11  14
TORSDOF 5
ENDMDL
MODEL 6
REMARK VINA RESULT:      -7.6      5.576      6.734
REMARK  Name = 
REMARK  7 active torsions:
REMARK  status: ('A' for Active; 'I' for Inactive)
REMARK    1  A    between atoms: C_1  and  C_2
REMARK    2  A    between atoms: N_3  and  C_4
REMARK    3  A    between atoms: N_11  and  C_12
REMARK    4  A    between atoms: C_12  and  C_13
REMARK    5  A    between atoms: C_13  and  C_14
REMARK    6  A    between atoms: C_14  and  C_15
REMARK    7  A    between atoms: C_15  and  C_17
REMARK                            x       y       z     vdW  Elec       q    Type
REMARK                         _______ _______ _______ _____ _____    ______ ____
ROOT
ATOM      1  C   UNL     1       1.564   4.024  19.230  0.00  0.00    +0.000 C 
ATOM      2  C   UNL     1       2.890   4.040  20.016  0.00  0.00    +0.000 C 
ATOM      3  N   UNL     1       3.161   2.848  20.788  0.00  0.00    +0.000 N 
ATOM      4  C   UNL     1       2.320   2.253  21.801  0.00  0.00    +0.000 C 
ATOM      5  C   UNL     1       4.417   2.452  20.522  0.00  0.00    +0.000 C 
ATOM      6  O   UNL     1       4.952   1.509  21.082  0.00  0.00    +0.000 OA
ATOM      7  O   UNL     1       5.042   3.208  19.612  0.00  0.00    +0.000 OA
ATOM      8  C   UNL     1       4.173   4.163  19.112  0.00  0.00    +0.000 C 
ATOM      9  C   UNL     1       3.927   3.808  17.616  0.00  0.00    +0.000 C 
ATOM     10  C   UNL     1       5.187   4.064  16.785  0.00  0.00    +0.000 C 
ATOM     11  N   UNL     1       5.638   5.473  16.905  0.00  0.00    +0.000 NA
ATOM     12  C   UNL     1       5.992   5.748  18.317  0.00  0.00    +0.000 C 
ATOM     13  C   UNL     1       4.783   5.573  19.259  0.00  0.00    +0.000 C 
ENDROOT
BRANCH  11  14
ATOM     14  C   UNL     1       4.679   6.489  16.393  0.00  0.00    +0.000 C 
BRANCH  14  15
ATOM     15  C   UNL     1       4.201   7.486  17.454  0.00  0.00    +0.000 C 
BRANCH  15  16
ATOM     16  C   UNL     1       2.675   7.649  17.348  0.00  0.00    +0.000 C 
BRANCH  16  17
ATOM     17  C   UNL     1       2.166   8.930  17.962  0.00  0.00    +0.000 C 
ATOM     18  O   UNL     1       2.349   9.991  17.381  0.00  0.00    +0.000 OA
BRANCH  17  19
ATOM     19  C   UNL     1       1.427   8.924  19.256  0.00  0.00    +0.000 A 
ATOM     20  C   UNL     1       1.688   7.955  20.249  0.00  0.00    +0.000 A 
ATOM     21  C   UNL     1       0.972   7.962  21.449  0.00  0.00    +0.000 A 
ATOM     22  C   UNL     1      -0.008   8.930  21.677  0.00  0.00    +0.000 A 
ATOM     23  F   UNL     1      -0.703   8.932  22.840  0.00  0.00    +0.000 F 
ATOM     24  C   UNL     1      -0.273   9.895  20.704  0.00  0.00    +0.000 A 
ATOM     25  C   UNL     1       0.437   9.894  19.502  0.00  0.00    +0.000 A 
ENDBRANCH  17  19
ENDBRANCH  16  17
ENDBRANCH  15  16
ENDBRANCH  14  15
ENDBRANCH  11  14
TORSDOF 5
ENDMDL
MODEL 7
REMARK VINA RESULT:      -7.5      1.921      2.201
REMARK  Name = 
REMARK  7 active torsions:
REMARK  status: ('A' for Active; 'I' for Inactive)
REMARK    1  A    between atoms: C_1  and  C_2
REMARK    2  A    between atoms: N_3  and  C_4
REMARK    3  A    between atoms: N_11  and  C_12
REMARK    4  A    between atoms: C_12  and  C_13
REMARK    5  A    between atoms: C_13  and  C_14
REMARK    6  A    between atoms: C_14  and  C_15
REMARK    7  A    between atoms: C_15  and  C_17
REMARK                            x       y       z     vdW  Elec       q    Type
REMARK                         _______ _______ _______ _____ _____    ______ ____
ROOT
ATOM      1  C   UNL     1       2.549   6.269  17.840  0.00  0.00    +0.000 C 
ATOM      2  C   UNL     1       3.368   5.179  18.559  0.00  0.00    +0.000 C 
ATOM      3  N   UNL     1       2.849   3.836  18.432  0.00  0.00    +0.000 N 
ATOM      4  C   UNL     1       1.526   3.374  18.783  0.00  0.00    +0.000 C 
ATOM      5  C   UNL     1       3.859   3.028  18.071  0.00  0.00    +0.000 C 
ATOM      6  O   UNL     1       3.738   1.819  17.955  0.00  0.00    +0.000 OA
ATOM      7  O   UNL     1       5.022   3.664  17.885  0.00  0.00    +0.000 OA
ATOM      8  C   UNL     1       4.843   5.029  18.029  0.00  0.00    +0.000 C 
ATOM      9  C   UNL     1       5.078   5.665  16.628  0.00  0.00    +0.000 C 
ATOM     10  C   UNL     1       6.557   5.582  16.237  0.00  0.00    +0.000 C 
ATOM     11  N   UNL     1       7.422   6.241  17.246  0.00  0.00    +0.000 NA
ATOM     12  C   UNL     1       7.280   5.535  18.541  0.00  0.00    +0.000 C 
ATOM     13  C   UNL     1       5.833   5.592  19.072  0.00  0.00    +0.000 C 
ENDROOT
BRANCH  11  14
ATOM     14  C   UNL     1       7.196   7.702  17.414  0.00  0.00    +0.000 C 
BRANCH  14  15
ATOM     15  C   UNL     1       8.375   8.448  18.048  0.00  0.00    +0.000 C 
BRANCH  15  16
ATOM     16  C   UNL     1       8.089   9.959  18.031  0.00  0.00    +0.000 C 
BRANCH  16  17
ATOM     17  C   UNL     1       9.321  10.803  18.255  0.00  0.00    +0.000 C 
ATOM     18  O   UNL     1      10.257  10.722  17.471  0.00  0.00    +0.000 OA
BRANCH  17  19
ATOM     19  C   UNL     1       9.408  11.748  19.403  0.00  0.00    +0.000 A 
ATOM     20  C   UNL     1       9.510  11.285  20.733  0.00  0.00    +0.000 A 
ATOM     21  C   UNL     1       9.577  12.190  21.794  0.00  0.00    +0.000 A 
ATOM     22  C   UNL     1       9.546  13.564  21.548  0.00  0.00    +0.000 A 
ATOM     23  F   UNL     1       9.608  14.441  22.580  0.00  0.00    +0.000 F 
ATOM     24  C   UNL     1       9.449  14.035  20.238  0.00  0.00    +0.000 A 
ATOM     25  C   UNL     1       9.379  13.136  19.172  0.00  0.00    +0.000 A 
ENDBRANCH  17  19
ENDBRANCH  16  17
ENDBRANCH  15  16
ENDBRANCH  14  15
ENDBRANCH  11  14
TORSDOF 5
ENDMDL
MODEL 8
REMARK VINA RESULT:      -7.5      1.374      1.548
REMARK  Name = 
REMARK  7 active torsions:
REMARK  status: ('A' for Active; 'I' for Inactive)
REMARK    1  A    between atoms: C_1  and  C_2
REMARK    2  A    between atoms: N_3  and  C_4
REMARK    3  A    between atoms: N_11  and  C_12
REMARK    4  A    between atoms: C_12  and  C_13
REMARK    5  A    between atoms: C_13  and  C_14
REMARK    6  A    between atoms: C_14  and  C_15
REMARK    7  A    between atoms: C_15  and  C_17
REMARK                            x       y       z     vdW  Elec       q    Type
REMARK                         _______ _______ _______ _____ _____    ______ ____
ROOT
ATOM      1  C   UNL     1       2.784   5.892  20.014  0.00  0.00    +0.000 C 
ATOM      2  C   UNL     1       3.470   4.647  19.418  0.00  0.00    +0.000 C 
ATOM      3  N   UNL     1       2.572   3.607  18.969  0.00  0.00    +0.000 N 
ATOM      4  C   UNL     1       1.553   2.938  19.744  0.00  0.00    +0.000 C 
ATOM      5  C   UNL     1       2.942   3.238  17.732  0.00  0.00    +0.000 C 
ATOM      6  O   UNL     1       2.410   2.327  17.119  0.00  0.00    +0.000 OA
ATOM      7  O   UNL     1       3.973   3.939  17.243  0.00  0.00    +0.000 OA
ATOM      8  C   UNL     1       4.329   4.939  18.132  0.00  0.00    +0.000 C 
ATOM      9  C   UNL     1       3.992   6.294  17.443  0.00  0.00    +0.000 C 
ATOM     10  C   UNL     1       4.946   6.558  16.274  0.00  0.00    +0.000 C 
ATOM     11  N   UNL     1       6.362   6.551  16.718  0.00  0.00    +0.000 NA
ATOM     12  C   UNL     1       6.696   5.209  17.250  0.00  0.00    +0.000 C 
ATOM     13  C   UNL     1       5.831   4.843  18.473  0.00  0.00    +0.000 C 
ENDROOT
BRANCH  11  14
ATOM     14  C   UNL     1       6.722   7.612  17.698  0.00  0.00    +0.000 C 
BRANCH  14  15
ATOM     15  C   UNL     1       8.131   8.184  17.509  0.00  0.00    +0.000 C 
BRANCH  15  16
ATOM     16  C   UNL     1       8.093   9.707  17.716  0.00  0.00    +0.000 C 
BRANCH  16  17
ATOM     17  C   UNL     1       9.001  10.183  18.824  0.00  0.00    +0.000 C 
ATOM     18  O   UNL     1       9.303   9.416  19.728  0.00  0.00    +0.000 OA
BRANCH  17  19
ATOM     19  C   UNL     1       9.553  11.567  18.826  0.00  0.00    +0.000 A 
ATOM     20  C   UNL     1      10.096  12.142  19.995  0.00  0.00    +0.000 A 
ATOM     21  C   UNL     1      10.595  13.447  19.976  0.00  0.00    +0.000 A 
ATOM     22  C   UNL     1      10.563  14.194  18.796  0.00  0.00    +0.000 A 
ATOM     23  F   UNL     1      11.045  15.460  18.781  0.00  0.00    +0.000 F 
ATOM     24  C   UNL     1      10.032  13.635  17.632  0.00  0.00    +0.000 A 
ATOM     25  C   UNL     1       9.530  12.333  17.645  0.00  0.00    +0.000 A 
ENDBRANCH  17  19
ENDBRANCH  16  17
ENDBRANCH  15  16
ENDBRANCH  14  15
ENDBRANCH  11  14
TORSDOF 5
ENDMDL
MODEL 9
REMARK VINA RESULT:      -7.5      7.252     10.361
REMARK  Name = 
REMARK  7 active torsions:
REMARK  status: ('A' for Active; 'I' for Inactive)
REMARK    1  A    between atoms: C_1  and  C_2
REMARK    2  A    between atoms: N_3  and  C_4
REMARK    3  A    between atoms: N_11  and  C_12
REMARK    4  A    between atoms: C_12  and  C_13
REMARK    5  A    between atoms: C_13  and  C_14
REMARK    6  A    between atoms: C_14  and  C_15
REMARK    7  A    between atoms: C_15  and  C_17
REMARK                            x       y       z     vdW  Elec       q    Type
REMARK                         _______ _______ _______ _____ _____    ______ ____
ROOT
ATOM      1  C   UNL     1      -3.126  10.040  16.430  0.00  0.00    +0.000 C 
ATOM      2  C   UNL     1      -3.015  11.359  17.219  0.00  0.00    +0.000 C 
ATOM      3  N   UNL     1      -4.220  11.770  17.902  0.00  0.00    +0.000 N 
ATOM      4  C   UNL     1      -5.525  11.980  17.320  0.00  0.00    +0.000 C 
ATOM      5  C   UNL     1      -3.899  12.085  19.168  0.00  0.00    +0.000 C 
ATOM      6  O   UNL     1      -4.703  12.534  19.969  0.00  0.00    +0.000 OA
ATOM      7  O   UNL     1      -2.607  11.895  19.462  0.00  0.00    +0.000 OA
ATOM      8  C   UNL     1      -1.955  11.325  18.382  0.00  0.00    +0.000 C 
ATOM      9  C   UNL     1      -1.538   9.889  18.814  0.00  0.00    +0.000 C 
ATOM     10  C   UNL     1      -0.423   9.942  19.863  0.00  0.00    +0.000 C 
ATOM     11  N   UNL     1       0.759  10.685  19.360  0.00  0.00    +0.000 NA
ATOM     12  C   UNL     1       0.367  12.086  19.080  0.00  0.00    +0.000 C 
ATOM     13  C   UNL     1      -0.723  12.172  17.993  0.00  0.00    +0.000 C 
ENDROOT
BRANCH  11  14
ATOM     14  C   UNL     1       1.431  10.078  18.179  0.00  0.00    +0.000 C 
BRANCH  14  15
ATOM     15  C   UNL     1       1.786   8.598  18.355  0.00  0.00    +0.000 C 
BRANCH  15  16
ATOM     16  C   UNL     1       3.132   8.312  17.667  0.00  0.00    +0.000 C 
BRANCH  16  17
ATOM     17  C   UNL     1       3.509   6.851  17.674  0.00  0.00    +0.000 C 
ATOM     18  O   UNL     1       4.461   6.471  17.007  0.00  0.00    +0.000 OA
BRANCH  17  19
ATOM     19  C   UNL     1       2.752   5.865  18.494  0.00  0.00    +0.000 A 
ATOM     20  C   UNL     1       2.029   4.809  17.898  0.00  0.00    +0.000 A 
ATOM     21  C   UNL     1       1.316   3.904  18.688  0.00  0.00    +0.000 A 
ATOM     22  C   UNL     1       1.313   4.036  20.078  0.00  0.00    +0.000 A 
ATOM     23  F   UNL     1       0.618   3.159  20.842  0.00  0.00    +0.000 F 
ATOM     24  C   UNL     1       2.027   5.074  20.681  0.00  0.00    +0.000 A 
ATOM     25  C   UNL     1       2.740   5.982  19.897  0.00  0.00    +0.000 A 
ENDBRANCH  17  19
ENDBRANCH  16  17
ENDBRANCH  15  16
ENDBRANCH  14  15
ENDBRANCH  11  14
TORSDOF 5
ENDMDL
