MODEL 1
REMARK VINA RESULT:      -6.6      0.000      0.000
REMARK  Name = 
REMARK  7 active torsions:
REMARK  status: ('A' for Active; 'I' for Inactive)
REMARK    1  A    between atoms: C_1  and  O_2
REMARK    2  A    between atoms: O_2  and  C_3
REMARK    3  A    between atoms: C_3  and  C_5
REMARK    4  A    between atoms: C_5  and  C_6
REMARK    5  A    between atoms: C_10  and  C_11
REMARK    6  A    between atoms: C_14  and  O_15
REMARK    7  A    between atoms: C_16  and  O_17
REMARK                            x       y       z     vdW  Elec       q    Type
REMARK                         _______ _______ _______ _____ _____    ______ ____
ROOT
ATOM      1  C   UNL     1       3.070   2.917  20.207  0.00  0.00    +0.000 C 
ATOM      2  C   UNL     1       3.973   2.018  21.112  0.00  0.00    +0.000 C 
ATOM      3  C   UNL     1       2.176   1.906  19.436  0.00  0.00    +0.000 C 
ATOM      4  C   UNL     1       2.237   1.818  17.941  0.00  0.00    +0.000 C 
ATOM      5  C   UNL     1       3.216   2.669  17.193  0.00  0.00    +0.000 C 
ATOM      6  C   UNL     1       3.584   4.056  17.747  0.00  0.00    +0.000 C 
ATOM      7  C   UNL     1       2.455   5.085  17.477  0.00  0.00    +0.000 C 
ATOM      8  C   UNL     1       4.777   4.501  16.845  0.00  0.00    +0.000 A 
ATOM      9  C   UNL     1       4.670   4.426  15.428  0.00  0.00    +0.000 A 
ATOM     10  C   UNL     1       5.758   4.682  14.606  0.00  0.00    +0.000 A 
ATOM     11  C   UNL     1       6.973   5.034  15.161  0.00  0.00    +0.000 A 
ATOM     12  C   UNL     1       7.096   5.176  16.542  0.00  0.00    +0.000 A 
ATOM     13  C   UNL     1       6.003   4.907  17.391  0.00  0.00    +0.000 A 
ATOM     14  C   UNL     1       6.119   5.143  18.867  0.00  0.00    +0.000 C 
ATOM     15  C   UNL     1       5.348   4.106  19.682  0.00  0.00    +0.000 C 
ATOM     16  C   UNL     1       3.848   4.015  19.318  0.00  0.00    +0.000 C 
ENDROOT
BRANCH   1  17
ATOM     17  C   UNL     1       2.152   3.661  21.225  0.00  0.00    +0.000 C 
ATOM     18  O   UNL     1       2.188   3.516  22.439  0.00  0.00    +0.000 OA
BRANCH  17  20
ATOM     19  C   UNL     1       1.515   5.927  20.901  0.00  0.00    +0.000 C 
ATOM     20  O   UNL     1       1.321   4.540  20.594  0.00  0.00    +0.000 OA
ENDBRANCH  17  20
ENDBRANCH   1  17
BRANCH  10  21
ATOM     21  O   UNL     1       5.690   4.531  13.246  0.00  0.00    +0.000 OA
ATOM     22  H   UNL     1       5.499   5.394  12.859  0.00  0.00    +0.000 HD
ENDBRANCH  10  21
BRANCH  11  23
ATOM     23  O   UNL     1       8.057   5.254  14.353  0.00  0.00    +0.000 OA
ATOM     24  H   UNL     1       8.653   5.808  14.901  0.00  0.00    +0.000 HD
ENDBRANCH  11  23
TORSDOF 4
ENDMDL
MODEL 2
REMARK VINA RESULT:      -6.6     10.163     11.689
REMARK  Name = 
REMARK  7 active torsions:
REMARK  status: ('A' for Active; 'I' for Inactive)
REMARK    1  A    between atoms: C_1  and  O_2
REMARK    2  A    between atoms: O_2  and  C_3
REMARK    3  A    between atoms: C_3  and  C_5
REMARK    4  A    between atoms: C_5  and  C_6
REMARK    5  A    between atoms: C_10  and  C_11
REMARK    6  A    between atoms: C_14  and  O_15
REMARK    7  A    between atoms: C_16  and  O_17
REMARK                            x       y       z     vdW  Elec       q    Type
REMARK                         _______ _______ _______ _____ _____    ______ ____
ROOT
ATOM      1  C   UNL     1       8.192  13.273  22.681  0.00  0.00    +0.000 C 
ATOM      2  C   UNL     1       7.449  11.898  22.707  0.00  0.00    +0.000 C 
ATOM      3  C   UNL     1       7.078  14.302  22.339  0.00  0.00    +0.000 C 
ATOM      4  C   UNL     1       7.156  15.124  21.088  0.00  0.00    +0.000 C 
ATOM      5  C   UNL     1       8.286  14.902  20.131  0.00  0.00    +0.000 C 
ATOM      6  C   UNL     1       9.658  14.471  20.675  0.00  0.00    +0.000 C 
ATOM      7  C   UNL     1      10.409  15.669  21.312  0.00  0.00    +0.000 C 
ATOM      8  C   UNL     1      10.463  14.114  19.386  0.00  0.00    +0.000 A 
ATOM      9  C   UNL     1      10.505  15.025  18.293  0.00  0.00    +0.000 A 
ATOM     10  C   UNL     1      11.093  14.679  17.086  0.00  0.00    +0.000 A 
ATOM     11  C   UNL     1      11.669  13.433  16.932  0.00  0.00    +0.000 A 
ATOM     12  C   UNL     1      11.698  12.539  18.001  0.00  0.00    +0.000 A 
ATOM     13  C   UNL     1      11.093  12.872  19.231  0.00  0.00    +0.000 A 
ATOM     14  C   UNL     1      11.203  11.940  20.401  0.00  0.00    +0.000 C 
ATOM     15  C   UNL     1       9.936  11.933  21.255  0.00  0.00    +0.000 C 
ATOM     16  C   UNL     1       9.526  13.328  21.778  0.00  0.00    +0.000 C 
ENDROOT
BRANCH   1  17
ATOM     17  C   UNL     1       8.590  13.505  24.172  0.00  0.00    +0.000 C 
ATOM     18  O   UNL     1       8.621  12.637  25.033  0.00  0.00    +0.000 OA
BRANCH  17  20
ATOM     19  C   UNL     1       8.824  15.274  25.742  0.00  0.00    +0.000 C 
ATOM     20  O   UNL     1       8.950  14.802  24.394  0.00  0.00    +0.000 OA
ENDBRANCH  17  20
ENDBRANCH   1  17
BRANCH  10  21
ATOM     21  O   UNL     1      11.066  15.515  16.000  0.00  0.00    +0.000 OA
ATOM     22  H   UNL     1      10.157  15.816  15.879  0.00  0.00    +0.000 HD
ENDBRANCH  10  21
BRANCH  11  23
ATOM     23  O   UNL     1      12.220  13.076  15.729  0.00  0.00    +0.000 OA
ATOM     24  H   UNL     1      12.964  13.705  15.613  0.00  0.00    +0.000 HD
ENDBRANCH  11  23
TORSDOF 4
ENDMDL
MODEL 3
REMARK VINA RESULT:      -6.3      8.406     12.580
REMARK  Name = 
REMARK  7 active torsions:
REMARK  status: ('A' for Active; 'I' for Inactive)
REMARK    1  A    between atoms: C_1  and  O_2
REMARK    2  A    between atoms: O_2  and  C_3
REMARK    3  A    between atoms: C_3  and  C_5
REMARK    4  A    between atoms: C_5  and  C_6
REMARK    5  A    between atoms: C_10  and  C_11
REMARK    6  A    between atoms: C_14  and  O_15
REMARK    7  A    between atoms: C_16  and  O_17
REMARK                            x       y       z     vdW  Elec       q    Type
REMARK                         _______ _______ _______ _____ _____    ______ ____
ROOT
ATOM      1  C   UNL     1      -0.577  11.386  19.512  0.00  0.00    +0.000 C 
ATOM      2  C   UNL     1      -1.181  10.382  18.477  0.00  0.00    +0.000 C 
ATOM      3  C   UNL     1       0.316  10.500  20.426  0.00  0.00    +0.000 C 
ATOM      4  C   UNL     1       0.026  10.379  21.891  0.00  0.00    +0.000 C 
ATOM      5  C   UNL     1      -1.174  11.069  22.463  0.00  0.00    +0.000 C 
ATOM      6  C   UNL     1      -1.642  12.399  21.846  0.00  0.00    +0.000 C 
ATOM      7  C   UNL     1      -0.732  13.573  22.291  0.00  0.00    +0.000 C 
ATOM      8  C   UNL     1      -3.018  12.653  22.538  0.00  0.00    +0.000 A 
ATOM      9  C   UNL     1      -3.133  12.570  23.954  0.00  0.00    +0.000 A 
ATOM     10  C   UNL     1      -4.366  12.655  24.585  0.00  0.00    +0.000 A 
ATOM     11  C   UNL     1      -5.512  12.840  23.837  0.00  0.00    +0.000 A 
ATOM     12  C   UNL     1      -5.428  12.985  22.453  0.00  0.00    +0.000 A 
ATOM     13  C   UNL     1      -4.184  12.889  21.796  0.00  0.00    +0.000 A 
ATOM     14  C   UNL     1      -4.090  13.131  20.319  0.00  0.00    +0.000 C 
ATOM     15  C   UNL     1      -3.056  12.228  19.649  0.00  0.00    +0.000 C 
ATOM     16  C   UNL     1      -1.638  12.346  20.254  0.00  0.00    +0.000 C 
ENDROOT
BRANCH   1  17
ATOM     17  C   UNL     1       0.379  12.270  18.652  0.00  0.00    +0.000 C 
ATOM     18  O   UNL     1       0.081  13.346  18.152  0.00  0.00    +0.000 OA
BRANCH  17  20
ATOM     19  C   UNL     1       2.677  12.583  18.131  0.00  0.00    +0.000 C 
ATOM     20  O   UNL     1       1.621  11.713  18.561  0.00  0.00    +0.000 OA
ENDBRANCH  17  20
ENDBRANCH   1  17
BRANCH  10  21
ATOM     21  O   UNL     1      -4.499  12.492  25.939  0.00  0.00    +0.000 OA
ATOM     22  H   UNL     1      -5.412  12.239  26.121  0.00  0.00    +0.000 HD
ENDBRANCH  10  21
BRANCH  11  23
ATOM     23  O   UNL     1      -6.734  12.888  24.455  0.00  0.00    +0.000 OA
ATOM     24  H   UNL     1      -6.622  13.575  25.147  0.00  0.00    +0.000 HD
ENDBRANCH  11  23
TORSDOF 4
ENDMDL
MODEL 4
REMARK VINA RESULT:      -6.3      6.973      9.820
REMARK  Name = 
REMARK  7 active torsions:
REMARK  status: ('A' for Active; 'I' for Inactive)
REMARK    1  A    between atoms: C_1  and  O_2
REMARK    2  A    between atoms: O_2  and  C_3
REMARK    3  A    between atoms: C_3  and  C_5
REMARK    4  A    between atoms: C_5  and  C_6
REMARK    5  A    between atoms: C_10  and  C_11
REMARK    6  A    between atoms: C_14  and  O_15
REMARK    7  A    between atoms: C_16  and  O_17
REMARK                            x       y       z     vdW  Elec       q    Type
REMARK                         _______ _______ _______ _____ _____    ______ ____
ROOT
ATOM      1  C   UNL     1      -2.027  12.799  22.703  0.00  0.00    +0.000 C 
ATOM      2  C   UNL     1      -3.225  12.046  23.366  0.00  0.00    +0.000 C 
ATOM      3  C   UNL     1      -2.651  13.488  21.457  0.00  0.00    +0.000 C 
ATOM      4  C   UNL     1      -2.180  13.142  20.077  0.00  0.00    +0.000 C 
ATOM      5  C   UNL     1      -1.142  12.078  19.899  0.00  0.00    +0.000 C 
ATOM      6  C   UNL     1      -0.073  11.881  20.986  0.00  0.00    +0.000 C 
ATOM      7  C   UNL     1       1.017  12.981  20.905  0.00  0.00    +0.000 C 
ATOM      8  C   UNL     1       0.639  10.559  20.559  0.00  0.00    +0.000 A 
ATOM      9  C   UNL     1       1.098  10.393  19.222  0.00  0.00    +0.000 A 
ATOM     10  C   UNL     1       1.608   9.181  18.777  0.00  0.00    +0.000 A 
ATOM     11  C   UNL     1       1.691   8.110  19.644  0.00  0.00    +0.000 A 
ATOM     12  C   UNL     1       1.306   8.255  20.975  0.00  0.00    +0.000 A 
ATOM     13  C   UNL     1       0.775   9.476  21.439  0.00  0.00    +0.000 A 
ATOM     14  C   UNL     1       0.442   9.651  22.891  0.00  0.00    +0.000 C 
ATOM     15  C   UNL     1      -0.799  10.517  23.100  0.00  0.00    +0.000 C 
ATOM     16  C   UNL     1      -0.702  11.915  22.450  0.00  0.00    +0.000 C 
ENDROOT
BRANCH   1  17
ATOM     17  C   UNL     1      -1.687  13.924  23.729  0.00  0.00    +0.000 C 
ATOM     18  O   UNL     1      -0.625  14.529  23.782  0.00  0.00    +0.000 OA
BRANCH  17  20
ATOM     19  C   UNL     1      -2.704  15.430  25.261  0.00  0.00    +0.000 C 
ATOM     20  O   UNL     1      -2.749  14.189  24.544  0.00  0.00    +0.000 OA
ENDBRANCH  17  20
ENDBRANCH   1  17
BRANCH  10  21
ATOM     21  O   UNL     1       1.975   8.986  17.471  0.00  0.00    +0.000 OA
ATOM     22  H   UNL     1       1.669   9.744  16.959  0.00  0.00    +0.000 HD
ENDBRANCH  10  21
BRANCH  11  23
ATOM     23  O   UNL     1       2.162   6.903  19.198  0.00  0.00    +0.000 OA
ATOM     24  H   UNL     1       1.387   6.496  18.753  0.00  0.00    +0.000 HD
ENDBRANCH  11  23
TORSDOF 4
ENDMDL
MODEL 5
REMARK VINA RESULT:      -6.1      1.430      6.262
REMARK  Name = 
REMARK  7 active torsions:
REMARK  status: ('A' for Active; 'I' for Inactive)
REMARK    1  A    between atoms: C_1  and  O_2
REMARK    2  A    between atoms: O_2  and  C_3
REMARK    3  A    between atoms: C_3  and  C_5
REMARK    4  A    between atoms: C_5  and  C_6
REMARK    5  A    between atoms: C_10  and  C_11
REMARK    6  A    between atoms: C_14  and  O_15
REMARK    7  A    between atoms: C_16  and  O_17
REMARK                            x       y       z     vdW  Elec       q    Type
REMARK                         _______ _______ _______ _____ _____    ______ ____
ROOT
ATOM      1  C   UNL     1       6.184   5.748  16.930  0.00  0.00    +0.000 C 
ATOM      2  C   UNL     1       7.311   6.380  17.809  0.00  0.00    +0.000 C 
ATOM      3  C   UNL     1       5.332   6.964  16.470  0.00  0.00    +0.000 C 
ATOM      4  C   UNL     1       3.888   7.074  16.855  0.00  0.00    +0.000 C 
ATOM      5  C   UNL     1       3.283   6.032  17.745  0.00  0.00    +0.000 C 
ATOM      6  C   UNL     1       3.793   4.584  17.663  0.00  0.00    +0.000 C 
ATOM      7  C   UNL     1       3.234   3.863  16.408  0.00  0.00    +0.000 C 
ATOM      8  C   UNL     1       3.109   3.889  18.881  0.00  0.00    +0.000 A 
ATOM      9  C   UNL     1       1.707   4.025  19.088  0.00  0.00    +0.000 A 
ATOM     10  C   UNL     1       1.095   3.536  20.234  0.00  0.00    +0.000 A 
ATOM     11  C   UNL     1       1.847   2.888  21.194  0.00  0.00    +0.000 A 
ATOM     12  C   UNL     1       3.211   2.686  20.995  0.00  0.00    +0.000 A 
ATOM     13  C   UNL     1       3.850   3.186  19.842  0.00  0.00    +0.000 A 
ATOM     14  C   UNL     1       5.299   2.891  19.594  0.00  0.00    +0.000 C 
ATOM     15  C   UNL     1       6.024   4.062  18.931  0.00  0.00    +0.000 C 
ATOM     16  C   UNL     1       5.384   4.519  17.601  0.00  0.00    +0.000 C 
ENDROOT
BRANCH   1  17
ATOM     17  C   UNL     1       6.948   5.220  15.676  0.00  0.00    +0.000 C 
ATOM     18  O   UNL     1       7.863   5.805  15.113  0.00  0.00    +0.000 OA
BRANCH  17  20
ATOM     19  C   UNL     1       6.126   3.838  13.926  0.00  0.00    +0.000 C 
ATOM     20  O   UNL     1       6.497   3.988  15.303  0.00  0.00    +0.000 OA
ENDBRANCH  17  20
ENDBRANCH   1  17
BRANCH  10  21
ATOM     21  O   UNL     1      -0.238   3.735  20.483  0.00  0.00    +0.000 OA
ATOM     22  H   UNL     1      -0.475   4.611  20.155  0.00  0.00    +0.000 HD
ENDBRANCH  10  21
BRANCH  11  23
ATOM     23  O   UNL     1       1.250   2.436  22.341  0.00  0.00    +0.000 OA
ATOM     24  H   UNL     1       1.826   2.778  23.058  0.00  0.00    +0.000 HD
ENDBRANCH  11  23
TORSDOF 4
ENDMDL
MODEL 6
REMARK VINA RESULT:      -6.0      7.309     10.181
REMARK  Name = 
REMARK  7 active torsions:
REMARK  status: ('A' for Active; 'I' for Inactive)
REMARK    1  A    between atoms: C_1  and  O_2
REMARK    2  A    between atoms: O_2  and  C_3
REMARK    3  A    between atoms: C_3  and  C_5
REMARK    4  A    between atoms: C_5  and  C_6
REMARK    5  A    between atoms: C_10  and  C_11
REMARK    6  A    between atoms: C_14  and  O_15
REMARK    7  A    between atoms: C_16  and  O_17
REMARK                            x       y       z     vdW  Elec       q    Type
REMARK                         _______ _______ _______ _____ _____    ______ ____
ROOT
ATOM      1  C   UNL     1      -2.340  13.059  22.909  0.00  0.00    +0.000 C 
ATOM      2  C   UNL     1      -3.539  12.231  23.475  0.00  0.00    +0.000 C 
ATOM      3  C   UNL     1      -2.952  13.851  21.720  0.00  0.00    +0.000 C 
ATOM      4  C   UNL     1      -2.451  13.642  20.323  0.00  0.00    +0.000 C 
ATOM      5  C   UNL     1      -1.394  12.612  20.068  0.00  0.00    +0.000 C 
ATOM      6  C   UNL     1      -0.341  12.330  21.153  0.00  0.00    +0.000 C 
ATOM      7  C   UNL     1       0.733  13.448  21.195  0.00  0.00    +0.000 C 
ATOM      8  C   UNL     1       0.398  11.063  20.618  0.00  0.00    +0.000 A 
ATOM      9  C   UNL     1       0.884  11.029  19.281  0.00  0.00    +0.000 A 
ATOM     10  C   UNL     1       1.420   9.870  18.737  0.00  0.00    +0.000 A 
ATOM     11  C   UNL     1       1.504   8.724  19.502  0.00  0.00    +0.000 A 
ATOM     12  C   UNL     1       1.092   8.740  20.833  0.00  0.00    +0.000 A 
ATOM     13  C   UNL     1       0.535   9.906  21.398  0.00  0.00    +0.000 A 
ATOM     14  C   UNL     1       0.173   9.940  22.852  0.00  0.00    +0.000 C 
ATOM     15  C   UNL     1      -1.085  10.766  23.117  0.00  0.00    +0.000 C 
ATOM     16  C   UNL     1      -0.998  12.220  22.600  0.00  0.00    +0.000 C 
ENDROOT
BRANCH   1  17
ATOM     17  C   UNL     1      -2.036  14.088  24.040  0.00  0.00    +0.000 C 
ATOM     18  O   UNL     1      -2.827  14.433  24.907  0.00  0.00    +0.000 OA
BRANCH  17  20
ATOM     19  C   UNL     1      -0.569  15.940  23.786  0.00  0.00    +0.000 C 
ATOM     20  O   UNL     1      -0.747  14.531  23.975  0.00  0.00    +0.000 OA
ENDBRANCH  17  20
ENDBRANCH   1  17
BRANCH  10  21
ATOM     21  O   UNL     1       1.813   9.801  17.425  0.00  0.00    +0.000 OA
ATOM     22  H   UNL     1       2.777   9.761  17.405  0.00  0.00    +0.000 HD
ENDBRANCH  10  21
BRANCH  11  23
ATOM     23  O   UNL     1       2.001   7.570  18.955  0.00  0.00    +0.000 OA
ATOM     24  H   UNL     1       2.763   7.872  18.416  0.00  0.00    +0.000 HD
ENDBRANCH  11  23
TORSDOF 4
ENDMDL
MODEL 7
REMARK VINA RESULT:      -6.0      2.934      5.351
REMARK  Name = 
REMARK  7 active torsions:
REMARK  status: ('A' for Active; 'I' for Inactive)
REMARK    1  A    between atoms: C_1  and  O_2
REMARK    2  A    between atoms: O_2  and  C_3
REMARK    3  A    between atoms: C_3  and  C_5
REMARK    4  A    between atoms: C_5  and  C_6
REMARK    5  A    between atoms: C_10  and  C_11
REMARK    6  A    between atoms: C_14  and  O_15
REMARK    7  A    between atoms: C_16  and  O_17
REMARK                            x       y       z     vdW  Elec       q    Type
REMARK                         _______ _______ _______ _____ _____    ______ ____
ROOT
ATOM      1  C   UNL     1       3.885   3.449  18.657  0.00  0.00    +0.000 C 
ATOM      2  C   UNL     1       4.924   3.146  19.784  0.00  0.00    +0.000 C 
ATOM      3  C   UNL     1       4.756   3.809  17.421  0.00  0.00    +0.000 C 
ATOM      4  C   UNL     1       4.663   5.165  16.789  0.00  0.00    +0.000 C 
ATOM      5  C   UNL     1       3.767   6.199  17.397  0.00  0.00    +0.000 C 
ATOM      6  C   UNL     1       2.475   5.754  18.103  0.00  0.00    +0.000 C 
ATOM      7  C   UNL     1       1.376   5.380  17.074  0.00  0.00    +0.000 C 
ATOM      8  C   UNL     1       1.972   7.061  18.793  0.00  0.00    +0.000 A 
ATOM      9  C   UNL     1       1.868   8.269  18.049  0.00  0.00    +0.000 A 
ATOM     10  C   UNL     1       1.558   9.473  18.665  0.00  0.00    +0.000 A 
ATOM     11  C   UNL     1       1.326   9.511  20.025  0.00  0.00    +0.000 A 
ATOM     12  C   UNL     1       1.360   8.336  20.774  0.00  0.00    +0.000 A 
ATOM     13  C   UNL     1       1.686   7.107  20.165  0.00  0.00    +0.000 A 
ATOM     14  C   UNL     1       1.638   5.836  20.959  0.00  0.00    +0.000 C 
ATOM     15  C   UNL     1       2.735   4.854  20.548  0.00  0.00    +0.000 C 
ATOM     16  C   UNL     1       2.719   4.493  19.045  0.00  0.00    +0.000 C 
ENDROOT
BRANCH   1  17
ATOM     17  C   UNL     1       3.235   2.059  18.373  0.00  0.00    +0.000 C 
ATOM     18  O   UNL     1       3.770   0.979  18.577  0.00  0.00    +0.000 OA
BRANCH  17  20
ATOM     19  C   UNL     1       0.910   1.984  18.860  0.00  0.00    +0.000 C 
ATOM     20  O   UNL     1       1.960   2.194  17.906  0.00  0.00    +0.000 OA
ENDBRANCH  17  20
ENDBRANCH   1  17
BRANCH  10  21
ATOM     21  O   UNL     1       1.538  10.656  17.973  0.00  0.00    +0.000 OA
ATOM     22  H   UNL     1       0.617  10.927  17.871  0.00  0.00    +0.000 HD
ENDBRANCH  10  21
BRANCH  11  23
ATOM     23  O   UNL     1       1.054  10.705  20.641  0.00  0.00    +0.000 OA
ATOM     24  H   UNL     1       1.908  10.961  21.050  0.00  0.00    +0.000 HD
ENDBRANCH  11  23
TORSDOF 4
ENDMDL
MODEL 8
REMARK VINA RESULT:      -5.9      3.192      5.621
REMARK  Name = 
REMARK  7 active torsions:
REMARK  status: ('A' for Active; 'I' for Inactive)
REMARK    1  A    between atoms: C_1  and  O_2
REMARK    2  A    between atoms: O_2  and  C_3
REMARK    3  A    between atoms: C_3  and  C_5
REMARK    4  A    between atoms: C_5  and  C_6
REMARK    5  A    between atoms: C_10  and  C_11
REMARK    6  A    between atoms: C_14  and  O_15
REMARK    7  A    between atoms: C_16  and  O_17
REMARK                            x       y       z     vdW  Elec       q    Type
REMARK                         _______ _______ _______ _____ _____    ______ ____
ROOT
ATOM      1  C   UNL     1       2.633   2.763  18.518  0.00  0.00    +0.000 C 
ATOM      2  C   UNL     1       2.364   2.528  16.996  0.00  0.00    +0.000 C 
ATOM      3  C   UNL     1       1.412   2.111  19.226  0.00  0.00    +0.000 C 
ATOM      4  C   UNL     1       0.483   2.938  20.063  0.00  0.00    +0.000 C 
ATOM      5  C   UNL     1       0.702   4.416  20.163  0.00  0.00    +0.000 C 
ATOM      6  C   UNL     1       2.134   4.971  20.096  0.00  0.00    +0.000 C 
ATOM      7  C   UNL     1       2.883   4.751  21.436  0.00  0.00    +0.000 C 
ATOM      8  C   UNL     1       1.920   6.513  19.987  0.00  0.00    +0.000 A 
ATOM      9  C   UNL     1       1.056   7.182  20.898  0.00  0.00    +0.000 A 
ATOM     10  C   UNL     1       0.738   8.523  20.741  0.00  0.00    +0.000 A 
ATOM     11  C   UNL     1       1.279   9.241  19.692  0.00  0.00    +0.000 A 
ATOM     12  C   UNL     1       2.176   8.632  18.817  0.00  0.00    +0.000 A 
ATOM     13  C   UNL     1       2.499   7.267  18.956  0.00  0.00    +0.000 A 
ATOM     14  C   UNL     1       3.529   6.641  18.063  0.00  0.00    +0.000 C 
ATOM     15  C   UNL     1       3.185   5.195  17.708  0.00  0.00    +0.000 C 
ATOM     16  C   UNL     1       2.983   4.280  18.937  0.00  0.00    +0.000 C 
ENDROOT
BRANCH   1  17
ATOM     17  C   UNL     1       3.872   1.865  18.817  0.00  0.00    +0.000 C 
ATOM     18  O   UNL     1       4.105   0.789  18.283  0.00  0.00    +0.000 OA
BRANCH  17  20
ATOM     19  C   UNL     1       5.005   1.685  20.898  0.00  0.00    +0.000 C 
ATOM     20  O   UNL     1       4.704   2.452  19.725  0.00  0.00    +0.000 OA
ENDBRANCH  17  20
ENDBRANCH   1  17
BRANCH  10  21
ATOM     21  O   UNL     1      -0.158   9.156  21.562  0.00  0.00    +0.000 OA
ATOM     22  H   UNL     1       0.341   9.689  22.193  0.00  0.00    +0.000 HD
ENDBRANCH  10  21
BRANCH  11  23
ATOM     23  O   UNL     1       0.940  10.557  19.515  0.00  0.00    +0.000 OA
ATOM     24  H   UNL     1       0.104  10.519  19.002  0.00  0.00    +0.000 HD
ENDBRANCH  11  23
TORSDOF 4
ENDMDL
MODEL 9
REMARK VINA RESULT:      -5.9      8.357     12.494
REMARK  Name = 
REMARK  7 active torsions:
REMARK  status: ('A' for Active; 'I' for Inactive)
REMARK    1  A    between atoms: C_1  and  O_2
REMARK    2  A    between atoms: O_2  and  C_3
REMARK    3  A    between atoms: C_3  and  C_5
REMARK    4  A    between atoms: C_5  and  C_6
REMARK    5  A    between atoms: C_10  and  C_11
REMARK    6  A    between atoms: C_14  and  O_15
REMARK    7  A    between atoms: C_16  and  O_17
REMARK                            x       y       z     vdW  Elec       q    Type
REMARK                         _______ _______ _______ _____ _____    ______ ____
ROOT
ATOM      1  C   UNL     1       0.037  11.159  20.685  0.00  0.00    +0.000 C 
ATOM      2  C   UNL     1      -0.177  10.156  19.504  0.00  0.00    +0.000 C 
ATOM      3  C   UNL     1       0.434  10.254  21.885  0.00  0.00    +0.000 C 
ATOM      4  C   UNL     1      -0.418  10.202  23.117  0.00  0.00    +0.000 C 
ATOM      5  C   UNL     1      -1.695  10.981  23.160  0.00  0.00    +0.000 C 
ATOM      6  C   UNL     1      -1.791  12.313  22.397  0.00  0.00    +0.000 C 
ATOM      7  C   UNL     1      -1.053  13.447  23.155  0.00  0.00    +0.000 C 
ATOM      8  C   UNL     1      -3.307  12.673  22.485  0.00  0.00    +0.000 A 
ATOM      9  C   UNL     1      -3.977  12.646  23.740  0.00  0.00    +0.000 A 
ATOM     10  C   UNL     1      -5.351  12.825  23.831  0.00  0.00    +0.000 A 
ATOM     11  C   UNL     1      -6.093  13.051  22.689  0.00  0.00    +0.000 A 
ATOM     12  C   UNL     1      -5.460  13.142  21.450  0.00  0.00    +0.000 A 
ATOM     13  C   UNL     1      -4.067  12.951  21.340  0.00  0.00    +0.000 A 
ATOM     14  C   UNL     1      -3.383  13.134  20.019  0.00  0.00    +0.000 C 
ATOM     15  C   UNL     1      -2.231  12.149  19.821  0.00  0.00    +0.000 C 
ATOM     16  C   UNL     1      -1.163  12.205  20.937  0.00  0.00    +0.000 C 
ENDROOT
BRANCH   1  17
ATOM     17  C   UNL     1       1.312  11.954  20.266  0.00  0.00    +0.000 C 
ATOM     18  O   UNL     1       2.015  12.606  21.025  0.00  0.00    +0.000 OA
BRANCH  17  20
ATOM     19  C   UNL     1       2.079  12.950  18.249  0.00  0.00    +0.000 C 
ATOM     20  O   UNL     1       1.581  11.795  18.937  0.00  0.00    +0.000 OA
ENDBRANCH  17  20
ENDBRANCH   1  17
BRANCH  10  21
ATOM     21  O   UNL     1      -6.018  12.718  25.023  0.00  0.00    +0.000 OA
ATOM     22  H   UNL     1      -6.298  13.603  25.288  0.00  0.00    +0.000 HD
ENDBRANCH  10  21
BRANCH  11  23
ATOM     23  O   UNL     1      -7.453  13.193  22.772  0.00  0.00    +0.000 OA
ATOM     24  H   UNL     1      -7.643  13.983  22.222  0.00  0.00    +0.000 HD
ENDBRANCH  11  23
TORSDOF 4
ENDMDL
