MODEL 1
REMARK VINA RESULT:      -7.4      0.000      0.000
REMARK  Name = 
REMARK  10 active torsions:
REMARK  status: ('A' for Active; 'I' for Inactive)
REMARK    1  A    between atoms: C_1  and  C_2
REMARK    2  A    between atoms: C_2  and  C_3
REMARK    3  A    between atoms: C_3  and  C_4
REMARK    4  A    between atoms: C_4  and  N_5
REMARK    5  A    between atoms: N_5  and  C_6
REMARK    6  A    between atoms: C_6  and  C_7
REMARK    7  A    between atoms: C_7  and  C_8
REMARK    8  A    between atoms: C_8  and  C_9
REMARK    9  A    between atoms: C_10  and  C_12
REMARK   10  A    between atoms: C_12  and  N_13
REMARK                            x       y       z     vdW  Elec       q    Type
REMARK                         _______ _______ _______ _____ _____    ______ ____
ROOT
ATOM      1  C   UNL     1       5.560   4.208  18.229  0.00  0.00    +0.000 C 
ENDROOT
BRANCH   1   2
ATOM      2  N   UNL     1       4.462   3.954  19.206  0.00  0.00    +0.000 N 
ATOM      3  C   UNL     1       4.452   2.703  19.770  0.00  0.00    +0.000 A 
ATOM      4  C   UNL     1       3.513   2.329  20.723  0.00  0.00    +0.000 A 
ATOM      5  C   UNL     1       2.537   3.233  21.131  0.00  0.00    +0.000 A 
ATOM      6  N   UNL     1       1.671   2.886  22.018  0.00  0.00    +0.000 NA
ATOM      7  C   UNL     1       2.516   4.523  20.565  0.00  0.00    +0.000 A 
ATOM      8  C   UNL     1       1.529   5.458  20.949  0.00  0.00    +0.000 A 
ATOM      9  C   UNL     1       1.505   6.732  20.393  0.00  0.00    +0.000 A 
ATOM     10  C   UNL     1       2.468   7.103  19.464  0.00  0.00    +0.000 A 
ATOM     11  C   UNL     1       3.461   6.204  19.075  0.00  0.00    +0.000 A 
ATOM     12  C   UNL     1       3.507   4.885  19.596  0.00  0.00    +0.000 A 
ATOM     13  H   UNL     1       1.660   1.953  22.456  0.00  0.00    +0.000 HD
ENDBRANCH   1   2
BRANCH   1  15
ATOM     14  N   UNL     1       7.087   6.271  17.965  0.00  0.00    +0.000 N 
ATOM     15  C   UNL     1       6.577   5.235  18.740  0.00  0.00    +0.000 C 
ATOM     16  O   UNL     1       6.941   5.105  19.902  0.00  0.00    +0.000 OA
BRANCH  14  17
ATOM     17  C   UNL     1       8.114   7.164  18.537  0.00  0.00    +0.000 C 
BRANCH  17  18
ATOM     18  C   UNL     1       8.135   8.615  17.999  0.00  0.00    +0.000 C 
BRANCH  18  20
ATOM     19  C   UNL     1       8.938  10.975  18.006  0.00  0.00    +0.000 C 
ATOM     20  C   UNL     1       8.942   9.652  18.789  0.00  0.00    +0.000 C 
ENDBRANCH  18  20
ENDBRANCH  17  18
ENDBRANCH  14  17
BRANCH  14  21
ATOM     21  C   UNL     1       6.547   6.457  16.607  0.00  0.00    +0.000 C 
BRANCH  21  22
ATOM     22  C   UNL     1       6.873   5.439  15.485  0.00  0.00    +0.000 C 
BRANCH  22  23
ATOM     23  C   UNL     1       5.703   5.005  14.583  0.00  0.00    +0.000 C 
ATOM     24  C   UNL     1       6.018   3.786  13.714  0.00  0.00    +0.000 C 
ENDBRANCH  22  23
ENDBRANCH  21  22
ENDBRANCH  14  21
ENDBRANCH   1  15
TORSDOF 8
ENDMDL
MODEL 2
REMARK VINA RESULT:      -7.4      1.196      1.487
REMARK  Name = 
REMARK  10 active torsions:
REMARK  status: ('A' for Active; 'I' for Inactive)
REMARK    1  A    between atoms: C_1  and  C_2
REMARK    2  A    between atoms: C_2  and  C_3
REMARK    3  A    between atoms: C_3  and  C_4
REMARK    4  A    between atoms: C_4  and  N_5
REMARK    5  A    between atoms: N_5  and  C_6
REMARK    6  A    between atoms: C_6  and  C_7
REMARK    7  A    between atoms: C_7  and  C_8
REMARK    8  A    between atoms: C_8  and  C_9
REMARK    9  A    between atoms: C_10  and  C_12
REMARK   10  A    between atoms: C_12  and  N_13
REMARK                            x       y       z     vdW  Elec       q    Type
REMARK                         _______ _______ _______ _____ _____    ______ ____
ROOT
ATOM      1  C   UNL     1       4.325   3.722  17.143  0.00  0.00    +0.000 C 
ENDROOT
BRANCH   1   2
ATOM      2  N   UNL     1       3.338   3.580  18.252  0.00  0.00    +0.000 N 
ATOM      3  C   UNL     1       2.993   2.292  18.574  0.00  0.00    +0.000 A 
ATOM      4  C   UNL     1       2.112   1.998  19.609  0.00  0.00    +0.000 A 
ATOM      5  C   UNL     1       1.544   3.027  20.353  0.00  0.00    +0.000 A 
ATOM      6  N   UNL     1       0.733   2.753  21.313  0.00  0.00    +0.000 NA
ATOM      7  C   UNL     1       1.873   4.361  20.041  0.00  0.00    +0.000 A 
ATOM      8  C   UNL     1       1.302   5.428  20.770  0.00  0.00    +0.000 A 
ATOM      9  C   UNL     1       1.623   6.747  20.467  0.00  0.00    +0.000 A 
ATOM     10  C   UNL     1       2.528   7.025  19.451  0.00  0.00    +0.000 A 
ATOM     11  C   UNL     1       3.116   5.991  18.723  0.00  0.00    +0.000 A 
ATOM     12  C   UNL     1       2.796   4.633  18.980  0.00  0.00    +0.000 A 
ATOM     13  H   UNL     1       0.475   1.789  21.571  0.00  0.00    +0.000 HD
ENDBRANCH   1   2
BRANCH   1  15
ATOM     14  N   UNL     1       6.443   5.164  16.843  0.00  0.00    +0.000 N 
ATOM     15  C   UNL     1       5.659   4.312  17.613  0.00  0.00    +0.000 C 
ATOM     16  O   UNL     1       6.026   3.994  18.738  0.00  0.00    +0.000 OA
BRANCH  14  17
ATOM     17  C   UNL     1       7.745   5.621  17.368  0.00  0.00    +0.000 C 
BRANCH  17  18
ATOM     18  C   UNL     1       7.722   6.910  18.224  0.00  0.00    +0.000 C 
BRANCH  18  20
ATOM     19  C   UNL     1       8.502   9.277  18.297  0.00  0.00    +0.000 C 
ATOM     20  C   UNL     1       7.694   8.252  17.484  0.00  0.00    +0.000 C 
ENDBRANCH  18  20
ENDBRANCH  17  18
ENDBRANCH  14  17
BRANCH  14  21
ATOM     21  C   UNL     1       5.918   5.607  15.540  0.00  0.00    +0.000 C 
BRANCH  21  22
ATOM     22  C   UNL     1       6.527   5.065  14.222  0.00  0.00    +0.000 C 
BRANCH  22  23
ATOM     23  C   UNL     1       6.194   3.608  13.854  0.00  0.00    +0.000 C 
ATOM     24  C   UNL     1       5.726   3.433  12.408  0.00  0.00    +0.000 C 
ENDBRANCH  22  23
ENDBRANCH  21  22
ENDBRANCH  14  21
ENDBRANCH   1  15
TORSDOF 8
ENDMDL
MODEL 3
REMARK VINA RESULT:      -7.2      1.277      4.046
REMARK  Name = 
REMARK  10 active torsions:
REMARK  status: ('A' for Active; 'I' for Inactive)
REMARK    1  A    between atoms: C_1  and  C_2
REMARK    2  A    between atoms: C_2  and  C_3
REMARK    3  A    between atoms: C_3  and  C_4
REMARK    4  A    between atoms: C_4  and  N_5
REMARK    5  A    between atoms: N_5  and  C_6
REMARK    6  A    between atoms: C_6  and  C_7
REMARK    7  A    between atoms: C_7  and  C_8
REMARK    8  A    between atoms: C_8  and  C_9
REMARK    9  A    between atoms: C_10  and  C_12
REMARK   10  A    between atoms: C_12  and  N_13
REMARK                            x       y       z     vdW  Elec       q    Type
REMARK                         _______ _______ _______ _____ _____    ______ ____
ROOT
ATOM      1  C   UNL     1       5.724   4.195  18.534  0.00  0.00    +0.000 C 
ENDROOT
BRANCH   1   2
ATOM      2  N   UNL     1       4.543   3.900  19.397  0.00  0.00    +0.000 N 
ATOM      3  C   UNL     1       4.493   2.631  19.915  0.00  0.00    +0.000 A 
ATOM      4  C   UNL     1       3.473   2.218  20.765  0.00  0.00    +0.000 A 
ATOM      5  C   UNL     1       2.455   3.102  21.111  0.00  0.00    +0.000 A 
ATOM      6  N   UNL     1       1.515   2.719  21.902  0.00  0.00    +0.000 NA
ATOM      7  C   UNL     1       2.475   4.409  20.588  0.00  0.00    +0.000 A 
ATOM      8  C   UNL     1       1.448   5.325  20.910  0.00  0.00    +0.000 A 
ATOM      9  C   UNL     1       1.462   6.617  20.397  0.00  0.00    +0.000 A 
ATOM     10  C   UNL     1       2.503   7.026  19.573  0.00  0.00    +0.000 A 
ATOM     11  C   UNL     1       3.536   6.147  19.249  0.00  0.00    +0.000 A 
ATOM     12  C   UNL     1       3.546   4.811  19.728  0.00  0.00    +0.000 A 
ATOM     13  H   UNL     1       1.473   1.772  22.306  0.00  0.00    +0.000 HD
ENDBRANCH   1   2
BRANCH   1  15
ATOM     14  N   UNL     1       6.056   4.760  16.039  0.00  0.00    +0.000 N 
ATOM     15  C   UNL     1       5.417   4.038  17.041  0.00  0.00    +0.000 C 
ATOM     16  O   UNL     1       4.551   3.222  16.748  0.00  0.00    +0.000 OA
BRANCH  14  17
ATOM     17  C   UNL     1       5.634   4.580  14.636  0.00  0.00    +0.000 C 
BRANCH  17  18
ATOM     18  C   UNL     1       6.701   4.016  13.668  0.00  0.00    +0.000 C 
BRANCH  18  20
ATOM     19  C   UNL     1       4.710   3.415  12.293  0.00  0.00    +0.000 C 
ATOM     20  C   UNL     1       6.237   3.591  12.270  0.00  0.00    +0.000 C 
ENDBRANCH  18  20
ENDBRANCH  17  18
ENDBRANCH  14  17
BRANCH  14  21
ATOM     21  C   UNL     1       7.163   5.654  16.422  0.00  0.00    +0.000 C 
BRANCH  21  22
ATOM     22  C   UNL     1       6.872   7.040  17.050  0.00  0.00    +0.000 C 
BRANCH  22  23
ATOM     23  C   UNL     1       7.921   7.587  18.035  0.00  0.00    +0.000 C 
ATOM     24  C   UNL     1       8.136   9.097  17.926  0.00  0.00    +0.000 C 
ENDBRANCH  22  23
ENDBRANCH  21  22
ENDBRANCH  14  21
ENDBRANCH   1  15
TORSDOF 8
ENDMDL
MODEL 4
REMARK VINA RESULT:      -7.1      3.141      5.899
REMARK  Name = 
REMARK  10 active torsions:
REMARK  status: ('A' for Active; 'I' for Inactive)
REMARK    1  A    between atoms: C_1  and  C_2
REMARK    2  A    between atoms: C_2  and  C_3
REMARK    3  A    between atoms: C_3  and  C_4
REMARK    4  A    between atoms: C_4  and  N_5
REMARK    5  A    between atoms: N_5  and  C_6
REMARK    6  A    between atoms: C_6  and  C_7
REMARK    7  A    between atoms: C_7  and  C_8
REMARK    8  A    between atoms: C_8  and  C_9
REMARK    9  A    between atoms: C_10  and  C_12
REMARK   10  A    between atoms: C_12  and  N_13
REMARK                            x       y       z     vdW  Elec       q    Type
REMARK                         _______ _______ _______ _____ _____    ______ ____
ROOT
ATOM      1  C   UNL     1       2.315   6.150  20.096  0.00  0.00    +0.000 C 
ENDROOT
BRANCH   1   2
ATOM      2  N   UNL     1       1.998   7.539  19.653  0.00  0.00    +0.000 N 
ATOM      3  C   UNL     1       2.364   7.845  18.367  0.00  0.00    +0.000 A 
ATOM      4  C   UNL     1       2.103   9.087  17.800  0.00  0.00    +0.000 A 
ATOM      5  C   UNL     1       1.456  10.070  18.543  0.00  0.00    +0.000 A 
ATOM      6  N   UNL     1       1.211  11.217  18.015  0.00  0.00    +0.000 NA
ATOM      7  C   UNL     1       1.075   9.788  19.869  0.00  0.00    +0.000 A 
ATOM      8  C   UNL     1       0.428  10.770  20.653  0.00  0.00    +0.000 A 
ATOM      9  C   UNL     1       0.050  10.496  21.963  0.00  0.00    +0.000 A 
ATOM     10  C   UNL     1       0.289   9.241  22.507  0.00  0.00    +0.000 A 
ATOM     11  C   UNL     1       0.914   8.249  21.752  0.00  0.00    +0.000 A 
ATOM     12  C   UNL     1       1.342   8.494  20.422  0.00  0.00    +0.000 A 
ATOM     13  H   UNL     1       1.472  11.455  17.046  0.00  0.00    +0.000 HD
ENDBRANCH   1   2
BRANCH   1  15
ATOM     14  N   UNL     1       3.218   4.553  18.283  0.00  0.00    +0.000 N 
ATOM     15  C   UNL     1       3.434   5.508  19.270  0.00  0.00    +0.000 C 
ATOM     16  O   UNL     1       4.574   5.881  19.520  0.00  0.00    +0.000 OA
BRANCH  14  17
ATOM     17  C   UNL     1       4.376   3.950  17.594  0.00  0.00    +0.000 C 
BRANCH  17  18
ATOM     18  C   UNL     1       4.926   4.726  16.374  0.00  0.00    +0.000 C 
BRANCH  18  20
ATOM     19  C   UNL     1       6.916   4.771  14.872  0.00  0.00    +0.000 C 
ATOM     20  C   UNL     1       5.709   3.932  15.322  0.00  0.00    +0.000 C 
ENDBRANCH  18  20
ENDBRANCH  17  18
ENDBRANCH  14  17
BRANCH  14  21
ATOM     21  C   UNL     1       1.827   4.208  17.939  0.00  0.00    +0.000 C 
BRANCH  21  22
ATOM     22  C   UNL     1       1.144   2.972  18.575  0.00  0.00    +0.000 C 
BRANCH  22  23
ATOM     23  C   UNL     1       1.846   2.342  19.791  0.00  0.00    +0.000 C 
ATOM     24  C   UNL     1       1.263   2.785  21.134  0.00  0.00    +0.000 C 
ENDBRANCH  22  23
ENDBRANCH  21  22
ENDBRANCH  14  21
ENDBRANCH   1  15
TORSDOF 8
ENDMDL
MODEL 5
REMARK VINA RESULT:      -7.1      3.034      5.528
REMARK  Name = 
REMARK  10 active torsions:
REMARK  status: ('A' for Active; 'I' for Inactive)
REMARK    1  A    between atoms: C_1  and  C_2
REMARK    2  A    between atoms: C_2  and  C_3
REMARK    3  A    between atoms: C_3  and  C_4
REMARK    4  A    between atoms: C_4  and  N_5
REMARK    5  A    between atoms: N_5  and  C_6
REMARK    6  A    between atoms: C_6  and  C_7
REMARK    7  A    between atoms: C_7  and  C_8
REMARK    8  A    between atoms: C_8  and  C_9
REMARK    9  A    between atoms: C_10  and  C_12
REMARK   10  A    between atoms: C_12  and  N_13
REMARK                            x       y       z     vdW  Elec       q    Type
REMARK                         _______ _______ _______ _____ _____    ______ ____
ROOT
ATOM      1  C   UNL     1       2.430   6.228  19.753  0.00  0.00    +0.000 C 
ENDROOT
BRANCH   1   2
ATOM      2  N   UNL     1       2.064   7.633  19.413  0.00  0.00    +0.000 N 
ATOM      3  C   UNL     1       2.430   8.051  18.159  0.00  0.00    +0.000 A 
ATOM      4  C   UNL     1       2.126   9.322  17.684  0.00  0.00    +0.000 A 
ATOM      5  C   UNL     1       1.434  10.220  18.492  0.00  0.00    +0.000 A 
ATOM      6  N   UNL     1       1.150  11.394  18.050  0.00  0.00    +0.000 NA
ATOM      7  C   UNL     1       1.052   9.822  19.788  0.00  0.00    +0.000 A 
ATOM      8  C   UNL     1       0.360  10.715  20.637  0.00  0.00    +0.000 A 
ATOM      9  C   UNL     1      -0.020  10.328  21.917  0.00  0.00    +0.000 A 
ATOM     10  C   UNL     1       0.263   9.044  22.367  0.00  0.00    +0.000 A 
ATOM     11  C   UNL     1       0.934   8.138  21.546  0.00  0.00    +0.000 A 
ATOM     12  C   UNL     1       1.364   8.501  20.244  0.00  0.00    +0.000 A 
ATOM     13  H   UNL     1       1.410  11.715  17.106  0.00  0.00    +0.000 HD
ENDBRANCH   1   2
BRANCH   1  15
ATOM     14  N   UNL     1       4.100   5.169  18.096  0.00  0.00    +0.000 N 
ATOM     15  C   UNL     1       2.795   5.398  18.517  0.00  0.00    +0.000 C 
ATOM     16  O   UNL     1       1.858   4.926  17.885  0.00  0.00    +0.000 OA
BRANCH  14  17
ATOM     17  C   UNL     1       4.336   4.412  16.850  0.00  0.00    +0.000 C 
BRANCH  17  18
ATOM     18  C   UNL     1       5.200   5.115  15.776  0.00  0.00    +0.000 C 
BRANCH  18  20
ATOM     19  C   UNL     1       6.239   4.002  13.802  0.00  0.00    +0.000 C 
ATOM     20  C   UNL     1       6.449   4.379  15.277  0.00  0.00    +0.000 C 
ENDBRANCH  18  20
ENDBRANCH  17  18
ENDBRANCH  14  17
BRANCH  14  21
ATOM     21  C   UNL     1       5.202   5.665  18.938  0.00  0.00    +0.000 C 
BRANCH  21  22
ATOM     22  C   UNL     1       6.553   4.908  18.992  0.00  0.00    +0.000 C 
BRANCH  22  23
ATOM     23  C   UNL     1       7.817   5.722  18.660  0.00  0.00    +0.000 C 
ATOM     24  C   UNL     1       7.527   7.032  17.927  0.00  0.00    +0.000 C 
ENDBRANCH  22  23
ENDBRANCH  21  22
ENDBRANCH  14  21
ENDBRANCH   1  15
TORSDOF 8
ENDMDL
MODEL 6
REMARK VINA RESULT:      -6.8      3.598      6.924
REMARK  Name = 
REMARK  10 active torsions:
REMARK  status: ('A' for Active; 'I' for Inactive)
REMARK    1  A    between atoms: C_1  and  C_2
REMARK    2  A    between atoms: C_2  and  C_3
REMARK    3  A    between atoms: C_3  and  C_4
REMARK    4  A    between atoms: C_4  and  N_5
REMARK    5  A    between atoms: N_5  and  C_6
REMARK    6  A    between atoms: C_6  and  C_7
REMARK    7  A    between atoms: C_7  and  C_8
REMARK    8  A    between atoms: C_8  and  C_9
REMARK    9  A    between atoms: C_10  and  C_12
REMARK   10  A    between atoms: C_12  and  N_13
REMARK                            x       y       z     vdW  Elec       q    Type
REMARK                         _______ _______ _______ _____ _____    ______ ____
ROOT
ATOM      1  C   UNL     1       2.213   7.509  17.778  0.00  0.00    +0.000 C 
ENDROOT
BRANCH   1   2
ATOM      2  N   UNL     1       3.284   6.471  17.767  0.00  0.00    +0.000 N 
ATOM      3  C   UNL     1       4.568   6.949  17.698  0.00  0.00    +0.000 A 
ATOM      4  C   UNL     1       5.673   6.107  17.716  0.00  0.00    +0.000 A 
ATOM      5  C   UNL     1       5.497   4.729  17.800  0.00  0.00    +0.000 A 
ATOM      6  N   UNL     1       6.522   3.951  17.821  0.00  0.00    +0.000 NA
ATOM      7  C   UNL     1       4.190   4.207  17.864  0.00  0.00    +0.000 A 
ATOM      8  C   UNL     1       3.979   2.812  17.937  0.00  0.00    +0.000 A 
ATOM      9  C   UNL     1       2.692   2.291  18.001  0.00  0.00    +0.000 A 
ATOM     10  C   UNL     1       1.597   3.146  18.013  0.00  0.00    +0.000 A 
ATOM     11  C   UNL     1       1.776   4.528  17.955  0.00  0.00    +0.000 A 
ATOM     12  C   UNL     1       3.071   5.100  17.861  0.00  0.00    +0.000 A 
ATOM     13  H   UNL     1       7.491   4.299  17.780  0.00  0.00    +0.000 HD
ENDBRANCH   1   2
BRANCH   1  15
ATOM     14  N   UNL     1       1.243   9.219  19.447  0.00  0.00    +0.000 N 
ATOM     15  C   UNL     1       1.907   8.026  19.187  0.00  0.00    +0.000 C 
ATOM     16  O   UNL     1       2.284   7.322  20.116  0.00  0.00    +0.000 OA
BRANCH  14  17
ATOM     17  C   UNL     1       1.061   9.656  20.846  0.00  0.00    +0.000 C 
BRANCH  17  18
ATOM     18  C   UNL     1      -0.200   9.126  21.569  0.00  0.00    +0.000 C 
BRANCH  18  20
ATOM     19  C   UNL     1      -1.167  10.898  23.033  0.00  0.00    +0.000 C 
ATOM     20  C   UNL     1      -0.416   9.556  23.025  0.00  0.00    +0.000 C 
ENDBRANCH  18  20
ENDBRANCH  17  18
ENDBRANCH  14  17
BRANCH  14  21
ATOM     21  C   UNL     1       0.713   9.986  18.306  0.00  0.00    +0.000 C 
BRANCH  21  22
ATOM     22  C   UNL     1      -0.815  10.131  18.099  0.00  0.00    +0.000 C 
BRANCH  22  23
ATOM     23  C   UNL     1      -1.446  11.474  18.510  0.00  0.00    +0.000 C 
ATOM     24  C   UNL     1      -0.420  12.579  18.767  0.00  0.00    +0.000 C 
ENDBRANCH  22  23
ENDBRANCH  21  22
ENDBRANCH  14  21
ENDBRANCH   1  15
TORSDOF 8
ENDMDL
MODEL 7
REMARK VINA RESULT:      -6.8      1.560      2.071
REMARK  Name = 
REMARK  10 active torsions:
REMARK  status: ('A' for Active; 'I' for Inactive)
REMARK    1  A    between atoms: C_1  and  C_2
REMARK    2  A    between atoms: C_2  and  C_3
REMARK    3  A    between atoms: C_3  and  C_4
REMARK    4  A    between atoms: C_4  and  N_5
REMARK    5  A    between atoms: N_5  and  C_6
REMARK    6  A    between atoms: C_6  and  C_7
REMARK    7  A    between atoms: C_7  and  C_8
REMARK    8  A    between atoms: C_8  and  C_9
REMARK    9  A    between atoms: C_10  and  C_12
REMARK   10  A    between atoms: C_12  and  N_13
REMARK                            x       y       z     vdW  Elec       q    Type
REMARK                         _______ _______ _______ _____ _____    ______ ____
ROOT
ATOM      1  C   UNL     1       4.041   3.560  16.992  0.00  0.00    +0.000 C 
ENDROOT
BRANCH   1   2
ATOM      2  N   UNL     1       3.175   3.480  18.205  0.00  0.00    +0.000 N 
ATOM      3  C   UNL     1       2.874   2.212  18.631  0.00  0.00    +0.000 A 
ATOM      4  C   UNL     1       2.109   1.976  19.768  0.00  0.00    +0.000 A 
ATOM      5  C   UNL     1       1.615   3.045  20.509  0.00  0.00    +0.000 A 
ATOM      6  N   UNL     1       0.910   2.824  21.563  0.00  0.00    +0.000 NA
ATOM      7  C   UNL     1       1.901   4.359  20.091  0.00  0.00    +0.000 A 
ATOM      8  C   UNL     1       1.402   5.466  20.815  0.00  0.00    +0.000 A 
ATOM      9  C   UNL     1       1.681   6.765  20.407  0.00  0.00    +0.000 A 
ATOM     10  C   UNL     1       2.473   6.987  19.288  0.00  0.00    +0.000 A 
ATOM     11  C   UNL     1       2.988   5.914  18.561  0.00  0.00    +0.000 A 
ATOM     12  C   UNL     1       2.706   4.572  18.926  0.00  0.00    +0.000 A 
ATOM     13  H   UNL     1       0.687   1.876  21.899  0.00  0.00    +0.000 HD
ENDBRANCH   1   2
BRANCH   1  15
ATOM     14  N   UNL     1       6.125   4.932  16.338  0.00  0.00    +0.000 N 
ATOM     15  C   UNL     1       5.398   4.211  17.278  0.00  0.00    +0.000 C 
ATOM     16  O   UNL     1       5.839   4.068  18.412  0.00  0.00    +0.000 OA
BRANCH  14  17
ATOM     17  C   UNL     1       7.455   5.459  16.701  0.00  0.00    +0.000 C 
BRANCH  17  18
ATOM     18  C   UNL     1       7.505   6.939  17.150  0.00  0.00    +0.000 C 
BRANCH  18  20
ATOM     19  C   UNL     1       8.033   5.957  19.379  0.00  0.00    +0.000 C 
ATOM     20  C   UNL     1       8.085   7.241  18.536  0.00  0.00    +0.000 C 
ENDBRANCH  18  20
ENDBRANCH  17  18
ENDBRANCH  14  17
BRANCH  14  21
ATOM     21  C   UNL     1       5.514   5.172  15.019  0.00  0.00    +0.000 C 
BRANCH  21  22
ATOM     22  C   UNL     1       5.547   4.074  13.926  0.00  0.00    +0.000 C 
BRANCH  22  23
ATOM     23  C   UNL     1       6.648   4.195  12.856  0.00  0.00    +0.000 C 
ATOM     24  C   UNL     1       6.622   3.070  11.820  0.00  0.00    +0.000 C 
ENDBRANCH  22  23
ENDBRANCH  21  22
ENDBRANCH  14  21
ENDBRANCH   1  15
TORSDOF 8
ENDMDL
MODEL 8
REMARK VINA RESULT:      -6.8      2.777      6.495
REMARK  Name = 
REMARK  10 active torsions:
REMARK  status: ('A' for Active; 'I' for Inactive)
REMARK    1  A    between atoms: C_1  and  C_2
REMARK    2  A    between atoms: C_2  and  C_3
REMARK    3  A    between atoms: C_3  and  C_4
REMARK    4  A    between atoms: C_4  and  N_5
REMARK    5  A    between atoms: N_5  and  C_6
REMARK    6  A    between atoms: C_6  and  C_7
REMARK    7  A    between atoms: C_7  and  C_8
REMARK    8  A    between atoms: C_8  and  C_9
REMARK    9  A    between atoms: C_10  and  C_12
REMARK   10  A    between atoms: C_12  and  N_13
REMARK                            x       y       z     vdW  Elec       q    Type
REMARK                         _______ _______ _______ _____ _____    ______ ____
ROOT
ATOM      1  C   UNL     1       2.926   5.417  17.922  0.00  0.00    +0.000 C 
ENDROOT
BRANCH   1   2
ATOM      2  N   UNL     1       4.404   5.213  17.913  0.00  0.00    +0.000 N 
ATOM      3  C   UNL     1       5.022   5.326  19.133  0.00  0.00    +0.000 A 
ATOM      4  C   UNL     1       6.389   5.128  19.291  0.00  0.00    +0.000 A 
ATOM      5  C   UNL     1       7.177   4.808  18.190  0.00  0.00    +0.000 A 
ATOM      6  N   UNL     1       8.442   4.620  18.339  0.00  0.00    +0.000 NA
ATOM      7  C   UNL     1       6.573   4.692  16.923  0.00  0.00    +0.000 A 
ATOM      8  C   UNL     1       7.349   4.382  15.784  0.00  0.00    +0.000 A 
ATOM      9  C   UNL     1       6.758   4.266  14.531  0.00  0.00    +0.000 A 
ATOM     10  C   UNL     1       5.386   4.436  14.393  0.00  0.00    +0.000 A 
ATOM     11  C   UNL     1       4.593   4.731  15.502  0.00  0.00    +0.000 A 
ATOM     12  C   UNL     1       5.160   4.886  16.793  0.00  0.00    +0.000 A 
ATOM     13  H   UNL     1       8.915   4.693  19.251  0.00  0.00    +0.000 HD
ENDBRANCH   1   2
BRANCH   1  15
ATOM     14  N   UNL     1       2.014   6.879  19.841  0.00  0.00    +0.000 N 
ATOM     15  C   UNL     1       2.519   6.753  18.552  0.00  0.00    +0.000 C 
ATOM     16  O   UNL     1       2.659   7.747  17.851  0.00  0.00    +0.000 OA
BRANCH  14  17
ATOM     17  C   UNL     1       1.588   8.208  20.324  0.00  0.00    +0.000 C 
BRANCH  17  18
ATOM     18  C   UNL     1       0.600   8.218  21.515  0.00  0.00    +0.000 C 
BRANCH  18  20
ATOM     19  C   UNL     1      -0.606   9.815  23.001  0.00  0.00    +0.000 C 
ATOM     20  C   UNL     1       0.782   9.307  22.578  0.00  0.00    +0.000 C 
ENDBRANCH  18  20
ENDBRANCH  17  18
ENDBRANCH  14  17
BRANCH  14  21
ATOM     21  C   UNL     1       1.958   5.676  20.689  0.00  0.00    +0.000 C 
BRANCH  21  22
ATOM     22  C   UNL     1       0.901   4.575  20.423  0.00  0.00    +0.000 C 
BRANCH  22  23
ATOM     23  C   UNL     1       1.262   3.146  20.871  0.00  0.00    +0.000 C 
ATOM     24  C   UNL     1       1.949   2.319  19.784  0.00  0.00    +0.000 C 
ENDBRANCH  22  23
ENDBRANCH  21  22
ENDBRANCH  14  21
ENDBRANCH   1  15
TORSDOF 8
ENDMDL
MODEL 9
REMARK VINA RESULT:      -6.8      1.944      4.499
REMARK  Name = 
REMARK  10 active torsions:
REMARK  status: ('A' for Active; 'I' for Inactive)
REMARK    1  A    between atoms: C_1  and  C_2
REMARK    2  A    between atoms: C_2  and  C_3
REMARK    3  A    between atoms: C_3  and  C_4
REMARK    4  A    between atoms: C_4  and  N_5
REMARK    5  A    between atoms: N_5  and  C_6
REMARK    6  A    between atoms: C_6  and  C_7
REMARK    7  A    between atoms: C_7  and  C_8
REMARK    8  A    between atoms: C_8  and  C_9
REMARK    9  A    between atoms: C_10  and  C_12
REMARK   10  A    between atoms: C_12  and  N_13
REMARK                            x       y       z     vdW  Elec       q    Type
REMARK                         _______ _______ _______ _____ _____    ______ ____
ROOT
ATOM      1  C   UNL     1       4.929   4.105  18.548  0.00  0.00    +0.000 C 
ENDROOT
BRANCH   1   2
ATOM      2  N   UNL     1       3.827   4.896  19.169  0.00  0.00    +0.000 N 
ATOM      3  C   UNL     1       3.225   4.316  20.257  0.00  0.00    +0.000 A 
ATOM      4  C   UNL     1       2.208   4.947  20.963  0.00  0.00    +0.000 A 
ATOM      5  C   UNL     1       1.765   6.206  20.570  0.00  0.00    +0.000 A 
ATOM      6  N   UNL     1       0.826   6.791  21.228  0.00  0.00    +0.000 NA
ATOM      7  C   UNL     1       2.358   6.824  19.452  0.00  0.00    +0.000 A 
ATOM      8  C   UNL     1       1.921   8.097  19.020  0.00  0.00    +0.000 A 
ATOM      9  C   UNL     1       2.503   8.711  17.918  0.00  0.00    +0.000 A 
ATOM     10  C   UNL     1       3.540   8.083  17.239  0.00  0.00    +0.000 A 
ATOM     11  C   UNL     1       4.000   6.832  17.651  0.00  0.00    +0.000 A 
ATOM     12  C   UNL     1       3.415   6.157  18.753  0.00  0.00    +0.000 A 
ATOM     13  H   UNL     1       0.374   6.369  22.053  0.00  0.00    +0.000 HD
ENDBRANCH   1   2
BRANCH   1  15
ATOM     14  N   UNL     1       5.637   4.138  16.068  0.00  0.00    +0.000 N 
ATOM     15  C   UNL     1       4.701   3.849  17.054  0.00  0.00    +0.000 C 
ATOM     16  O   UNL     1       3.620   3.363  16.747  0.00  0.00    +0.000 OA
BRANCH  14  17
ATOM     17  C   UNL     1       5.287   3.915  14.651  0.00  0.00    +0.000 C 
BRANCH  17  18
ATOM     18  C   UNL     1       6.441   4.063  13.630  0.00  0.00    +0.000 C 
BRANCH  18  20
ATOM     19  C   UNL     1       4.823   3.382  11.860  0.00  0.00    +0.000 C 
ATOM     20  C   UNL     1       6.299   3.335  12.289  0.00  0.00    +0.000 C 
ENDBRANCH  18  20
ENDBRANCH  17  18
ENDBRANCH  14  17
BRANCH  14  21
ATOM     21  C   UNL     1       6.964   4.624  16.486  0.00  0.00    +0.000 C 
BRANCH  21  22
ATOM     22  C   UNL     1       7.267   6.142  16.528  0.00  0.00    +0.000 C 
BRANCH  22  23
ATOM     23  C   UNL     1       7.593   6.745  17.907  0.00  0.00    +0.000 C 
ATOM     24  C   UNL     1       7.963   8.228  17.855  0.00  0.00    +0.000 C 
ENDBRANCH  22  23
ENDBRANCH  21  22
ENDBRANCH  14  21
ENDBRANCH   1  15
TORSDOF 8
ENDMDL
