MODEL 1
REMARK VINA RESULT:      -8.3      0.000      0.000
REMARK  Name = 
REMARK  7 active torsions:
REMARK  status: ('A' for Active; 'I' for Inactive)
REMARK    1  A    between atoms: C_1  and  O_2
REMARK    2  A    between atoms: O_2  and  C_3
REMARK    3  A    between atoms: C_7  and  C_8
REMARK    4  A    between atoms: C_9  and  C_10
REMARK    5  A    between atoms: C_13  and  O_14
REMARK    6  A    between atoms: O_14  and  C_15
REMARK    7  A    between atoms: C_18  and  C_19
REMARK                            x       y       z     vdW  Elec       q    Type
REMARK                         _______ _______ _______ _____ _____    ______ ____
ROOT
ATOM      1  C   UNL     1       0.032  10.189  19.337  0.00  0.00    +0.000 A 
ATOM      2  C   UNL     1       0.734  10.210  18.124  0.00  0.00    +0.000 A 
ATOM      3  C   UNL     1       1.780   9.313  17.899  0.00  0.00    +0.000 A 
ATOM      4  C   UNL     1       2.139   8.394  18.886  0.00  0.00    +0.000 A 
ATOM      5  C   UNL     1       1.418   8.353  20.085  0.00  0.00    +0.000 A 
ATOM      6  C   UNL     1       0.383   9.260  20.321  0.00  0.00    +0.000 A 
ENDROOT
BRANCH   1  13
ATOM      7  C   UNL     1      -5.655  13.451  19.787  0.00  0.00    +0.000 A 
ATOM      8  C   UNL     1      -4.428  13.575  20.450  0.00  0.00    +0.000 A 
ATOM      9  C   UNL     1      -3.340  12.775  20.091  0.00  0.00    +0.000 A 
ATOM     10  N   UNL     1      -2.112  12.922  20.743  0.00  0.00    +0.000 N 
ATOM     11  C   UNL     1      -1.040  12.090  20.491  0.00  0.00    +0.000 A 
ATOM     12  C   UNL     1       0.195  12.351  21.324  0.00  0.00    +0.000 C 
ATOM     13  C   UNL     1      -1.089  11.112  19.556  0.00  0.00    +0.000 A 
ATOM     14  C   UNL     1      -2.339  10.965  18.735  0.00  0.00    +0.000 A 
ATOM     15  O   UNL     1      -2.426  10.161  17.813  0.00  0.00    +0.000 OA
ATOM     16  C   UNL     1      -3.492  11.832  19.073  0.00  0.00    +0.000 A 
ATOM     17  C   UNL     1      -4.709  11.691  18.400  0.00  0.00    +0.000 A 
ATOM     18  C   UNL     1      -5.788  12.497  18.764  0.00  0.00    +0.000 A 
ATOM     19 CL   UNL     1      -7.279  12.298  17.913  0.00  0.00    +0.000 Cl
ATOM     20  H   UNL     1      -2.030  13.602  21.489  0.00  0.00    +0.000 HD
BRANCH   7  22
ATOM     21  C   UNL     1      -7.337  13.935  21.387  0.00  0.00    +0.000 C 
ATOM     22  O   UNL     1      -6.759  14.196  20.111  0.00  0.00    +0.000 OA
ENDBRANCH   7  22
ENDBRANCH   1  13
BRANCH   4  23
ATOM     23  O   UNL     1       3.165   7.531  18.562  0.00  0.00    +0.000 OA
BRANCH  23  24
ATOM     24  C   UNL     1       2.920   6.169  18.649  0.00  0.00    +0.000 A 
ATOM     25  C   UNL     1       1.984   5.637  17.777  0.00  0.00    +0.000 A 
ATOM     26  C   UNL     1       1.631   4.298  17.935  0.00  0.00    +0.000 A 
ATOM     27  C   UNL     1       2.225   3.538  18.948  0.00  0.00    +0.000 A 
ATOM     28  C   UNL     1       3.208   4.149  19.718  0.00  0.00    +0.000 A 
ATOM     29  N   UNL     1       3.575   5.436  19.577  0.00  0.00    +0.000 NA
BRANCH  27  30
ATOM     30  C   UNL     1       1.826   2.134  19.266  0.00  0.00    +0.000 C 
ATOM     31  F   UNL     1       1.608   1.919  20.593  0.00  0.00    +0.000 F 
ATOM     32  F   UNL     1       0.686   1.751  18.630  0.00  0.00    +0.000 F 
ATOM     33  F   UNL     1       2.780   1.234  18.898  0.00  0.00    +0.000 F 
ENDBRANCH  27  30
ENDBRANCH  23  24
ENDBRANCH   4  23
TORSDOF 5
ENDMDL
MODEL 2
REMARK VINA RESULT:      -8.2      0.394      1.156
REMARK  Name = 
REMARK  7 active torsions:
REMARK  status: ('A' for Active; 'I' for Inactive)
REMARK    1  A    between atoms: C_1  and  O_2
REMARK    2  A    between atoms: O_2  and  C_3
REMARK    3  A    between atoms: C_7  and  C_8
REMARK    4  A    between atoms: C_9  and  C_10
REMARK    5  A    between atoms: C_13  and  O_14
REMARK    6  A    between atoms: O_14  and  C_15
REMARK    7  A    between atoms: C_18  and  C_19
REMARK                            x       y       z     vdW  Elec       q    Type
REMARK                         _______ _______ _______ _____ _____    ______ ____
ROOT
ATOM      1  C   UNL     1      -0.040  10.195  19.295  0.00  0.00    +0.000 A 
ATOM      2  C   UNL     1       0.316   9.255  20.272  0.00  0.00    +0.000 A 
ATOM      3  C   UNL     1       1.388   8.387  20.057  0.00  0.00    +0.000 A 
ATOM      4  C   UNL     1       2.107   8.444  18.863  0.00  0.00    +0.000 A 
ATOM      5  C   UNL     1       1.769   9.403  17.900  0.00  0.00    +0.000 A 
ATOM      6  C   UNL     1       0.687  10.260  18.104  0.00  0.00    +0.000 A 
ENDROOT
BRANCH   1  13
ATOM      7  C   UNL     1      -5.680  13.523  19.844  0.00  0.00    +0.000 A 
ATOM      8  C   UNL     1      -4.447  13.619  20.500  0.00  0.00    +0.000 A 
ATOM      9  C   UNL     1      -3.373  12.811  20.119  0.00  0.00    +0.000 A 
ATOM     10  N   UNL     1      -2.138  12.930  20.765  0.00  0.00    +0.000 N 
ATOM     11  C   UNL     1      -1.079  12.088  20.491  0.00  0.00    +0.000 A 
ATOM     12  C   UNL     1       0.165  12.317  21.320  0.00  0.00    +0.000 C 
ATOM     13  C   UNL     1      -1.148  11.128  19.539  0.00  0.00    +0.000 A 
ATOM     14  C   UNL     1      -2.405  11.013  18.724  0.00  0.00    +0.000 A 
ATOM     15  O   UNL     1      -2.508  10.227  17.788  0.00  0.00    +0.000 OA
ATOM     16  C   UNL     1      -3.544  11.889  19.086  0.00  0.00    +0.000 A 
ATOM     17  C   UNL     1      -4.767  11.776  18.419  0.00  0.00    +0.000 A 
ATOM     18  C   UNL     1      -5.832  12.589  18.804  0.00  0.00    +0.000 A 
ATOM     19 CL   UNL     1      -7.332  12.425  17.960  0.00  0.00    +0.000 Cl
ATOM     20  H   UNL     1      -2.043  13.595  21.523  0.00  0.00    +0.000 HD
BRANCH   7  22
ATOM     21  C   UNL     1      -6.514  15.639  20.515  0.00  0.00    +0.000 C 
ATOM     22  O   UNL     1      -6.772  14.276  20.189  0.00  0.00    +0.000 OA
ENDBRANCH   7  22
ENDBRANCH   1  13
BRANCH   4  23
ATOM     23  O   UNL     1       3.166   7.566  18.753  0.00  0.00    +0.000 OA
BRANCH  23  24
ATOM     24  C   UNL     1       2.892   6.209  18.811  0.00  0.00    +0.000 A 
ATOM     25  C   UNL     1       2.089   5.681  17.813  0.00  0.00    +0.000 A 
ATOM     26  C   UNL     1       1.698   4.348  17.924  0.00  0.00    +0.000 A 
ATOM     27  C   UNL     1       2.125   3.588  19.020  0.00  0.00    +0.000 A 
ATOM     28  C   UNL     1       2.990   4.194  19.923  0.00  0.00    +0.000 A 
ATOM     29  N   UNL     1       3.392   5.475  19.831  0.00  0.00    +0.000 NA
BRANCH  27  30
ATOM     30  C   UNL     1       1.664   2.193  19.283  0.00  0.00    +0.000 C 
ATOM     31  F   UNL     1       2.548   1.242  18.867  0.00  0.00    +0.000 F 
ATOM     32  F   UNL     1       1.441   1.948  20.602  0.00  0.00    +0.000 F 
ATOM     33  F   UNL     1       0.493   1.911  18.647  0.00  0.00    +0.000 F 
ENDBRANCH  27  30
ENDBRANCH  23  24
ENDBRANCH   4  23
TORSDOF 5
ENDMDL
MODEL 3
REMARK VINA RESULT:      -8.2      5.501     10.315
REMARK  Name = 
REMARK  7 active torsions:
REMARK  status: ('A' for Active; 'I' for Inactive)
REMARK    1  A    between atoms: C_1  and  O_2
REMARK    2  A    between atoms: O_2  and  C_3
REMARK    3  A    between atoms: C_7  and  C_8
REMARK    4  A    between atoms: C_9  and  C_10
REMARK    5  A    between atoms: C_13  and  O_14
REMARK    6  A    between atoms: O_14  and  C_15
REMARK    7  A    between atoms: C_18  and  C_19
REMARK                            x       y       z     vdW  Elec       q    Type
REMARK                         _______ _______ _______ _____ _____    ______ ____
ROOT
ATOM      1  C   UNL     1       0.207  10.490  19.888  0.00  0.00    +0.000 A 
ATOM      2  C   UNL     1       0.755  11.586  20.566  0.00  0.00    +0.000 A 
ATOM      3  C   UNL     1       0.027  12.771  20.696  0.00  0.00    +0.000 A 
ATOM      4  C   UNL     1      -1.249  12.872  20.142  0.00  0.00    +0.000 A 
ATOM      5  C   UNL     1      -1.808  11.766  19.490  0.00  0.00    +0.000 A 
ATOM      6  C   UNL     1      -1.076  10.587  19.343  0.00  0.00    +0.000 A 
ENDROOT
BRANCH   1  13
ATOM      7  C   UNL     1       4.221   5.460  18.556  0.00  0.00    +0.000 A 
ATOM      8  C   UNL     1       3.401   5.763  19.650  0.00  0.00    +0.000 A 
ATOM      9  C   UNL     1       2.579   6.892  19.631  0.00  0.00    +0.000 A 
ATOM     10  N   UNL     1       1.746   7.175  20.718  0.00  0.00    +0.000 N 
ATOM     11  C   UNL     1       0.990   8.328  20.787  0.00  0.00    +0.000 A 
ATOM     12  C   UNL     1       0.189   8.505  22.058  0.00  0.00    +0.000 C 
ATOM     13  C   UNL     1       0.963   9.235  19.782  0.00  0.00    +0.000 A 
ATOM     14  C   UNL     1       1.745   8.945  18.532  0.00  0.00    +0.000 A 
ATOM     15  O   UNL     1       1.699   9.676  17.547  0.00  0.00    +0.000 OA
ATOM     16  C   UNL     1       2.594   7.731  18.515  0.00  0.00    +0.000 A 
ATOM     17  C   UNL     1       3.407   7.447  17.414  0.00  0.00    +0.000 A 
ATOM     18  C   UNL     1       4.222   6.316  17.441  0.00  0.00    +0.000 A 
ATOM     19 CL   UNL     1       5.215   5.992  16.064  0.00  0.00    +0.000 Cl
ATOM     20  H   UNL     1       1.764   6.561  21.523  0.00  0.00    +0.000 HD
BRANCH   7  22
ATOM     21  C   UNL     1       4.507   3.143  18.973  0.00  0.00    +0.000 C 
ATOM     22  O   UNL     1       5.062   4.377  18.529  0.00  0.00    +0.000 OA
ENDBRANCH   7  22
ENDBRANCH   1  13
BRANCH   4  23
ATOM     23  O   UNL     1      -1.902  14.071  20.345  0.00  0.00    +0.000 OA
BRANCH  23  24
ATOM     24  C   UNL     1      -3.026  14.068  21.157  0.00  0.00    +0.000 A 
ATOM     25  C   UNL     1      -2.821  13.985  22.524  0.00  0.00    +0.000 A 
ATOM     26  C   UNL     1      -3.938  13.852  23.346  0.00  0.00    +0.000 A 
ATOM     27  C   UNL     1      -5.217  13.813  22.778  0.00  0.00    +0.000 A 
ATOM     28  C   UNL     1      -5.315  13.982  21.402  0.00  0.00    +0.000 A 
ATOM     29  N   UNL     1      -4.252  14.124  20.589  0.00  0.00    +0.000 NA
BRANCH  27  30
ATOM     30  C   UNL     1      -6.460  13.558  23.566  0.00  0.00    +0.000 C 
ATOM     31  F   UNL     1      -6.887  14.642  24.272  0.00  0.00    +0.000 F 
ATOM     32  F   UNL     1      -7.510  13.175  22.790  0.00  0.00    +0.000 F 
ATOM     33  F   UNL     1      -6.291  12.564  24.483  0.00  0.00    +0.000 F 
ENDBRANCH  27  30
ENDBRANCH  23  24
ENDBRANCH   4  23
TORSDOF 5
ENDMDL
MODEL 4
REMARK VINA RESULT:      -8.1      5.842     10.494
REMARK  Name = 
REMARK  7 active torsions:
REMARK  status: ('A' for Active; 'I' for Inactive)
REMARK    1  A    between atoms: C_1  and  O_2
REMARK    2  A    between atoms: O_2  and  C_3
REMARK    3  A    between atoms: C_7  and  C_8
REMARK    4  A    between atoms: C_9  and  C_10
REMARK    5  A    between atoms: C_13  and  O_14
REMARK    6  A    between atoms: O_14  and  C_15
REMARK    7  A    between atoms: C_18  and  C_19
REMARK                            x       y       z     vdW  Elec       q    Type
REMARK                         _______ _______ _______ _____ _____    ______ ____
ROOT
ATOM      1  C   UNL     1       0.417  10.547  19.728  0.00  0.00    +0.000 A 
ATOM      2  C   UNL     1       1.083  11.669  20.239  0.00  0.00    +0.000 A 
ATOM      3  C   UNL     1       0.442  12.908  20.288  0.00  0.00    +0.000 A 
ATOM      4  C   UNL     1      -0.865  13.039  19.818  0.00  0.00    +0.000 A 
ATOM      5  C   UNL     1      -1.541  11.912  19.336  0.00  0.00    +0.000 A 
ATOM      6  C   UNL     1      -0.897  10.675  19.269  0.00  0.00    +0.000 A 
ENDROOT
BRANCH   1  13
ATOM      7  C   UNL     1       4.064   5.169  18.746  0.00  0.00    +0.000 A 
ATOM      8  C   UNL     1       3.274   5.604  19.817  0.00  0.00    +0.000 A 
ATOM      9  C   UNL     1       2.531   6.784  19.721  0.00  0.00    +0.000 A 
ATOM     10  N   UNL     1       1.727   7.199  20.787  0.00  0.00    +0.000 N 
ATOM     11  C   UNL     1       1.054   8.404  20.776  0.00  0.00    +0.000 A 
ATOM     12  C   UNL     1       0.275   8.725  22.032  0.00  0.00    +0.000 C 
ATOM     13  C   UNL     1       1.083   9.238  19.710  0.00  0.00    +0.000 A 
ATOM     14  C   UNL     1       1.835   8.808  18.482  0.00  0.00    +0.000 A 
ATOM     15  O   UNL     1       1.834   9.469  17.449  0.00  0.00    +0.000 OA
ATOM     16  C   UNL     1       2.598   7.539  18.549  0.00  0.00    +0.000 A 
ATOM     17  C   UNL     1       3.381   7.123  17.469  0.00  0.00    +0.000 A 
ATOM     18  C   UNL     1       4.116   5.943  17.574  0.00  0.00    +0.000 A 
ATOM     19 CL   UNL     1       5.076   5.456  16.221  0.00  0.00    +0.000 Cl
ATOM     20  H   UNL     1       1.708   6.643  21.632  0.00  0.00    +0.000 HD
BRANCH   7  22
ATOM     21  C   UNL     1       4.321   2.972  19.600  0.00  0.00    +0.000 C 
ATOM     22  O   UNL     1       4.827   4.031  18.794  0.00  0.00    +0.000 OA
ENDBRANCH   7  22
ENDBRANCH   1  13
BRANCH   4  23
ATOM     23  O   UNL     1      -1.424  14.295  19.933  0.00  0.00    +0.000 OA
BRANCH  23  24
ATOM     24  C   UNL     1      -1.868  14.697  21.183  0.00  0.00    +0.000 A 
ATOM     25  C   UNL     1      -1.182  15.731  21.798  0.00  0.00    +0.000 A 
ATOM     26  C   UNL     1      -1.531  16.062  23.106  0.00  0.00    +0.000 A 
ATOM     27  C   UNL     1      -2.554  15.356  23.750  0.00  0.00    +0.000 A 
ATOM     28  C   UNL     1      -3.229  14.389  23.016  0.00  0.00    +0.000 A 
ATOM     29  N   UNL     1      -2.918  14.060  21.749  0.00  0.00    +0.000 NA
BRANCH  27  30
ATOM     30  C   UNL     1      -2.917  15.562  25.184  0.00  0.00    +0.000 C 
ATOM     31  F   UNL     1      -3.041  14.399  25.884  0.00  0.00    +0.000 F 
ATOM     32  F   UNL     1      -2.006  16.313  25.859  0.00  0.00    +0.000 F 
ATOM     33  F   UNL     1      -4.110  16.205  25.324  0.00  0.00    +0.000 F 
ENDBRANCH  27  30
ENDBRANCH  23  24
ENDBRANCH   4  23
TORSDOF 5
ENDMDL
MODEL 5
REMARK VINA RESULT:      -8.1      5.432     10.260
REMARK  Name = 
REMARK  7 active torsions:
REMARK  status: ('A' for Active; 'I' for Inactive)
REMARK    1  A    between atoms: C_1  and  O_2
REMARK    2  A    between atoms: O_2  and  C_3
REMARK    3  A    between atoms: C_7  and  C_8
REMARK    4  A    between atoms: C_9  and  C_10
REMARK    5  A    between atoms: C_13  and  O_14
REMARK    6  A    between atoms: O_14  and  C_15
REMARK    7  A    between atoms: C_18  and  C_19
REMARK                            x       y       z     vdW  Elec       q    Type
REMARK                         _______ _______ _______ _____ _____    ______ ____
ROOT
ATOM      1  C   UNL     1       0.439  10.184  19.771  0.00  0.00    +0.000 A 
ATOM      2  C   UNL     1      -0.843  10.261  19.209  0.00  0.00    +0.000 A 
ATOM      3  C   UNL     1      -1.606  11.421  19.352  0.00  0.00    +0.000 A 
ATOM      4  C   UNL     1      -1.100  12.510  20.062  0.00  0.00    +0.000 A 
ATOM      5  C   UNL     1       0.192  12.443  20.597  0.00  0.00    +0.000 A 
ATOM      6  C   UNL     1       0.951  11.279  20.472  0.00  0.00    +0.000 A 
ENDROOT
BRANCH   1  13
ATOM      7  C   UNL     1       4.626   5.408  18.083  0.00  0.00    +0.000 A 
ATOM      8  C   UNL     1       3.856   5.643  19.229  0.00  0.00    +0.000 A 
ATOM      9  C   UNL     1       2.976   6.726  19.287  0.00  0.00    +0.000 A 
ATOM     10  N   UNL     1       2.195   6.939  20.427  0.00  0.00    +0.000 N 
ATOM     11  C   UNL     1       1.385   8.048  20.568  0.00  0.00    +0.000 A 
ATOM     12  C   UNL     1       0.652   8.153  21.887  0.00  0.00    +0.000 C 
ATOM     13  C   UNL     1       1.252   8.974  19.590  0.00  0.00    +0.000 A 
ATOM     14  C   UNL     1       1.973   8.755  18.291  0.00  0.00    +0.000 A 
ATOM     15  O   UNL     1       1.832   9.504  17.329  0.00  0.00    +0.000 OA
ATOM     16  C   UNL     1       2.883   7.589  18.194  0.00  0.00    +0.000 A 
ATOM     17  C   UNL     1       3.643   7.374  17.041  0.00  0.00    +0.000 A 
ATOM     18  C   UNL     1       4.516   6.288  16.992  0.00  0.00    +0.000 A 
ATOM     19 CL   UNL     1       5.443   6.050  15.552  0.00  0.00    +0.000 Cl
ATOM     20  H   UNL     1       2.292   6.309  21.213  0.00  0.00    +0.000 HD
BRANCH   7  22
ATOM     21  C   UNL     1       6.883   4.698  18.230  0.00  0.00    +0.000 C 
ATOM     22  O   UNL     1       5.519   4.373  17.979  0.00  0.00    +0.000 OA
ENDBRANCH   7  22
ENDBRANCH   1  13
BRANCH   4  23
ATOM     23  O   UNL     1      -1.915  13.621  20.126  0.00  0.00    +0.000 OA
BRANCH  23  24
ATOM     24  C   UNL     1      -3.003  13.580  20.985  0.00  0.00    +0.000 A 
ATOM     25  C   UNL     1      -2.803  14.022  22.283  0.00  0.00    +0.000 A 
ATOM     26  C   UNL     1      -3.846  13.868  23.194  0.00  0.00    +0.000 A 
ATOM     27  C   UNL     1      -5.050  13.288  22.779  0.00  0.00    +0.000 A 
ATOM     28  C   UNL     1      -5.172  12.950  21.437  0.00  0.00    +0.000 A 
ATOM     29  N   UNL     1      -4.184  13.099  20.535  0.00  0.00    +0.000 NA
BRANCH  27  30
ATOM     30  C   UNL     1      -6.177  12.978  23.709  0.00  0.00    +0.000 C 
ATOM     31  F   UNL     1      -6.777  14.089  24.223  0.00  0.00    +0.000 F 
ATOM     32  F   UNL     1      -7.167  12.255  23.119  0.00  0.00    +0.000 F 
ATOM     33  F   UNL     1      -5.769  12.248  24.784  0.00  0.00    +0.000 F 
ENDBRANCH  27  30
ENDBRANCH  23  24
ENDBRANCH   4  23
TORSDOF 5
ENDMDL
MODEL 6
REMARK VINA RESULT:      -8.1      2.514      3.162
REMARK  Name = 
REMARK  7 active torsions:
REMARK  status: ('A' for Active; 'I' for Inactive)
REMARK    1  A    between atoms: C_1  and  O_2
REMARK    2  A    between atoms: O_2  and  C_3
REMARK    3  A    between atoms: C_7  and  C_8
REMARK    4  A    between atoms: C_9  and  C_10
REMARK    5  A    between atoms: C_13  and  O_14
REMARK    6  A    between atoms: O_14  and  C_15
REMARK    7  A    between atoms: C_18  and  C_19
REMARK                            x       y       z     vdW  Elec       q    Type
REMARK                         _______ _______ _______ _____ _____    ______ ____
ROOT
ATOM      1  C   UNL     1       0.595   9.934  19.456  0.00  0.00    +0.000 A 
ATOM      2  C   UNL     1       1.192  10.230  18.224  0.00  0.00    +0.000 A 
ATOM      3  C   UNL     1       2.162   9.379  17.688  0.00  0.00    +0.000 A 
ATOM      4  C   UNL     1       2.548   8.233  18.383  0.00  0.00    +0.000 A 
ATOM      5  C   UNL     1       1.929   7.922  19.600  0.00  0.00    +0.000 A 
ATOM      6  C   UNL     1       0.972   8.779  20.146  0.00  0.00    +0.000 A 
ENDROOT
BRANCH   1  13
ATOM      7  C   UNL     1      -3.173  14.331  22.564  0.00  0.00    +0.000 A 
ATOM      8  C   UNL     1      -3.332  13.607  21.377  0.00  0.00    +0.000 A 
ATOM      9  C   UNL     1      -2.381  12.662  20.985  0.00  0.00    +0.000 A 
ATOM     10  N   UNL     1      -2.559  11.927  19.809  0.00  0.00    +0.000 N 
ATOM     11  C   UNL     1      -1.601  11.055  19.332  0.00  0.00    +0.000 A 
ATOM     12  C   UNL     1      -1.931  10.383  18.018  0.00  0.00    +0.000 C 
ATOM     13  C   UNL     1      -0.449  10.813  20.000  0.00  0.00    +0.000 A 
ATOM     14  C   UNL     1      -0.234  11.481  21.328  0.00  0.00    +0.000 A 
ATOM     15  O   UNL     1       0.743  11.244  22.030  0.00  0.00    +0.000 OA
ATOM     16  C   UNL     1      -1.253  12.458  21.782  0.00  0.00    +0.000 A 
ATOM     17  C   UNL     1      -1.073  13.172  22.970  0.00  0.00    +0.000 A 
ATOM     18  C   UNL     1      -2.031  14.110  23.354  0.00  0.00    +0.000 A 
ATOM     19 CL   UNL     1      -1.780  14.977  24.828  0.00  0.00    +0.000 Cl
ATOM     20  H   UNL     1      -3.377  12.103  19.240  0.00  0.00    +0.000 HD
BRANCH   7  22
ATOM     21  C   UNL     1      -5.241  14.797  23.626  0.00  0.00    +0.000 C 
ATOM     22  O   UNL     1      -4.065  15.283  22.986  0.00  0.00    +0.000 OA
ENDBRANCH   7  22
ENDBRANCH   1  13
BRANCH   4  23
ATOM     23  O   UNL     1       3.492   7.440  17.762  0.00  0.00    +0.000 OA
BRANCH  23  24
ATOM     24  C   UNL     1       3.463   6.078  18.016  0.00  0.00    +0.000 A 
ATOM     25  C   UNL     1       2.288   5.404  17.728  0.00  0.00    +0.000 A 
ATOM     26  C   UNL     1       2.196   4.062  18.095  0.00  0.00    +0.000 A 
ATOM     27  C   UNL     1       3.279   3.440  18.727  0.00  0.00    +0.000 A 
ATOM     28  C   UNL     1       4.438   4.187  18.899  0.00  0.00    +0.000 A 
ATOM     29  N   UNL     1       4.555   5.479  18.543  0.00  0.00    +0.000 NA
BRANCH  27  30
ATOM     30  C   UNL     1       3.230   2.045  19.259  0.00  0.00    +0.000 C 
ATOM     31  F   UNL     1       3.543   1.100  18.329  0.00  0.00    +0.000 F 
ATOM     32  F   UNL     1       4.082   1.845  20.300  0.00  0.00    +0.000 F 
ATOM     33  F   UNL     1       1.992   1.714  19.720  0.00  0.00    +0.000 F 
ENDBRANCH  27  30
ENDBRANCH  23  24
ENDBRANCH   4  23
TORSDOF 5
ENDMDL
MODEL 7
REMARK VINA RESULT:      -8.0      2.418      3.111
REMARK  Name = 
REMARK  7 active torsions:
REMARK  status: ('A' for Active; 'I' for Inactive)
REMARK    1  A    between atoms: C_1  and  O_2
REMARK    2  A    between atoms: O_2  and  C_3
REMARK    3  A    between atoms: C_7  and  C_8
REMARK    4  A    between atoms: C_9  and  C_10
REMARK    5  A    between atoms: C_13  and  O_14
REMARK    6  A    between atoms: O_14  and  C_15
REMARK    7  A    between atoms: C_18  and  C_19
REMARK                            x       y       z     vdW  Elec       q    Type
REMARK                         _______ _______ _______ _____ _____    ______ ____
ROOT
ATOM      1  C   UNL     1       0.282  10.099  19.659  0.00  0.00    +0.000 A 
ATOM      2  C   UNL     1       0.703   9.015  20.441  0.00  0.00    +0.000 A 
ATOM      3  C   UNL     1       1.686   8.144  19.967  0.00  0.00    +0.000 A 
ATOM      4  C   UNL     1       2.249   8.343  18.706  0.00  0.00    +0.000 A 
ATOM      5  C   UNL     1       1.849   9.443  17.938  0.00  0.00    +0.000 A 
ATOM      6  C   UNL     1       0.854  10.305  18.401  0.00  0.00    +0.000 A 
ENDROOT
BRANCH   1  13
ATOM      7  C   UNL     1      -3.341  14.665  22.693  0.00  0.00    +0.000 A 
ATOM      8  C   UNL     1      -3.492  13.975  21.484  0.00  0.00    +0.000 A 
ATOM      9  C   UNL     1      -2.584  12.980  21.114  0.00  0.00    +0.000 A 
ATOM     10  N   UNL     1      -2.755  12.280  19.916  0.00  0.00    +0.000 N 
ATOM     11  C   UNL     1      -1.832  11.359  19.463  0.00  0.00    +0.000 A 
ATOM     12  C   UNL     1      -2.143  10.734  18.121  0.00  0.00    +0.000 C 
ATOM     13  C   UNL     1      -0.728  11.032  20.175  0.00  0.00    +0.000 A 
ATOM     14  C   UNL     1      -0.533  11.660  21.526  0.00  0.00    +0.000 A 
ATOM     15  O   UNL     1       0.395  11.348  22.265  0.00  0.00    +0.000 OA
ATOM     16  C   UNL     1      -1.508  12.690  21.955  0.00  0.00    +0.000 A 
ATOM     17  C   UNL     1      -1.339  13.369  23.165  0.00  0.00    +0.000 A 
ATOM     18  C   UNL     1      -2.252  14.358  23.527  0.00  0.00    +0.000 A 
ATOM     19 CL   UNL     1      -2.015  15.179  25.029  0.00  0.00    +0.000 Cl
ATOM     20  H   UNL     1      -3.534  12.519  19.315  0.00  0.00    +0.000 HD
BRANCH   7  22
ATOM     21  C   UNL     1      -5.416  15.241  23.686  0.00  0.00    +0.000 C 
ATOM     22  O   UNL     1      -4.191  15.664  23.096  0.00  0.00    +0.000 OA
ENDBRANCH   7  22
ENDBRANCH   1  13
BRANCH   4  23
ATOM     23  O   UNL     1       3.232   7.448  18.336  0.00  0.00    +0.000 OA
BRANCH  23  24
ATOM     24  C   UNL     1       2.958   6.095  18.464  0.00  0.00    +0.000 A 
ATOM     25  C   UNL     1       1.957   5.571  17.662  0.00  0.00    +0.000 A 
ATOM     26  C   UNL     1       1.581   4.245  17.868  0.00  0.00    +0.000 A 
ATOM     27  C   UNL     1       2.219   3.488  18.858  0.00  0.00    +0.000 A 
ATOM     28  C   UNL     1       3.262   4.087  19.553  0.00  0.00    +0.000 A 
ATOM     29  N   UNL     1       3.652   5.362  19.364  0.00  0.00    +0.000 NA
BRANCH  27  30
ATOM     30  C   UNL     1       1.806   2.101  19.227  0.00  0.00    +0.000 C 
ATOM     31  F   UNL     1       1.621   1.928  20.565  0.00  0.00    +0.000 F 
ATOM     32  F   UNL     1       0.643   1.720  18.634  0.00  0.00    +0.000 F 
ATOM     33  F   UNL     1       2.734   1.174  18.860  0.00  0.00    +0.000 F 
ENDBRANCH  27  30
ENDBRANCH  23  24
ENDBRANCH   4  23
TORSDOF 5
ENDMDL
MODEL 8
REMARK VINA RESULT:      -8.0      0.684      1.010
REMARK  Name = 
REMARK  7 active torsions:
REMARK  status: ('A' for Active; 'I' for Inactive)
REMARK    1  A    between atoms: C_1  and  O_2
REMARK    2  A    between atoms: O_2  and  C_3
REMARK    3  A    between atoms: C_7  and  C_8
REMARK    4  A    between atoms: C_9  and  C_10
REMARK    5  A    between atoms: C_13  and  O_14
REMARK    6  A    between atoms: O_14  and  C_15
REMARK    7  A    between atoms: C_18  and  C_19
REMARK                            x       y       z     vdW  Elec       q    Type
REMARK                         _______ _______ _______ _____ _____    ______ ____
ROOT
ATOM      1  C   UNL     1       0.018  10.160  19.332  0.00  0.00    +0.000 A 
ATOM      2  C   UNL     1       0.724  10.196  18.121  0.00  0.00    +0.000 A 
ATOM      3  C   UNL     1       1.787   9.318  17.899  0.00  0.00    +0.000 A 
ATOM      4  C   UNL     1       2.159   8.405  18.886  0.00  0.00    +0.000 A 
ATOM      5  C   UNL     1       1.436   8.350  20.083  0.00  0.00    +0.000 A 
ATOM      6  C   UNL     1       0.384   9.237  20.316  0.00  0.00    +0.000 A 
ENDROOT
BRANCH   1  13
ATOM      7  C   UNL     1      -5.715  13.350  19.699  0.00  0.00    +0.000 A 
ATOM      8  C   UNL     1      -4.519  13.449  20.420  0.00  0.00    +0.000 A 
ATOM      9  C   UNL     1      -3.409  12.678  20.069  0.00  0.00    +0.000 A 
ATOM     10  N   UNL     1      -2.212  12.800  20.780  0.00  0.00    +0.000 N 
ATOM     11  C   UNL     1      -1.121  11.990  20.533  0.00  0.00    +0.000 A 
ATOM     12  C   UNL     1       0.074  12.218  21.431  0.00  0.00    +0.000 C 
ATOM     13  C   UNL     1      -1.120  11.061  19.549  0.00  0.00    +0.000 A 
ATOM     14  C   UNL     1      -2.332  10.947  18.668  0.00  0.00    +0.000 A 
ATOM     15  O   UNL     1      -2.371  10.190  17.703  0.00  0.00    +0.000 OA
ATOM     16  C   UNL     1      -3.508  11.786  18.999  0.00  0.00    +0.000 A 
ATOM     17  C   UNL     1      -4.693  11.670  18.267  0.00  0.00    +0.000 A 
ATOM     18  C   UNL     1      -5.794  12.448  18.624  0.00  0.00    +0.000 A 
ATOM     19 CL   UNL     1      -7.245  12.281  17.699  0.00  0.00    +0.000 Cl
ATOM     20  H   UNL     1      -2.169  13.441  21.562  0.00  0.00    +0.000 HD
BRANCH   7  22
ATOM     21  C   UNL     1      -7.552  13.641  21.170  0.00  0.00    +0.000 C 
ATOM     22  O   UNL     1      -6.840  14.068  20.012  0.00  0.00    +0.000 OA
ENDBRANCH   7  22
ENDBRANCH   1  13
BRANCH   4  23
ATOM     23  O   UNL     1       3.203   7.562  18.564  0.00  0.00    +0.000 OA
BRANCH  23  24
ATOM     24  C   UNL     1       2.986   6.196  18.657  0.00  0.00    +0.000 A 
ATOM     25  C   UNL     1       3.716   5.500  19.607  0.00  0.00    +0.000 A 
ATOM     26  C   UNL     1       3.606   4.112  19.629  0.00  0.00    +0.000 A 
ATOM     27  C   UNL     1       2.769   3.467  18.711  0.00  0.00    +0.000 A 
ATOM     28  C   UNL     1       2.022   4.264  17.853  0.00  0.00    +0.000 A 
ATOM     29  N   UNL     1       2.102   5.607  17.820  0.00  0.00    +0.000 NA
BRANCH  27  30
ATOM     30  C   UNL     1       2.676   1.982  18.584  0.00  0.00    +0.000 C 
ATOM     31  F   UNL     1       1.767   1.421  19.430  0.00  0.00    +0.000 F 
ATOM     32  F   UNL     1       2.326   1.578  17.334  0.00  0.00    +0.000 F 
ATOM     33  F   UNL     1       3.862   1.369  18.857  0.00  0.00    +0.000 F 
ENDBRANCH  27  30
ENDBRANCH  23  24
ENDBRANCH   4  23
TORSDOF 5
ENDMDL
MODEL 9
REMARK VINA RESULT:      -8.0      4.127      5.062
REMARK  Name = 
REMARK  7 active torsions:
REMARK  status: ('A' for Active; 'I' for Inactive)
REMARK    1  A    between atoms: C_1  and  O_2
REMARK    2  A    between atoms: O_2  and  C_3
REMARK    3  A    between atoms: C_7  and  C_8
REMARK    4  A    between atoms: C_9  and  C_10
REMARK    5  A    between atoms: C_13  and  O_14
REMARK    6  A    between atoms: O_14  and  C_15
REMARK    7  A    between atoms: C_18  and  C_19
REMARK                            x       y       z     vdW  Elec       q    Type
REMARK                         _______ _______ _______ _____ _____    ______ ____
ROOT
ATOM      1  C   UNL     1       1.074   9.893  19.433  0.00  0.00    +0.000 A 
ATOM      2  C   UNL     1       0.860   9.168  20.613  0.00  0.00    +0.000 A 
ATOM      3  C   UNL     1       1.353   7.868  20.741  0.00  0.00    +0.000 A 
ATOM      4  C   UNL     1       2.055   7.279  19.689  0.00  0.00    +0.000 A 
ATOM      5  C   UNL     1       2.294   8.015  18.522  0.00  0.00    +0.000 A 
ATOM      6  C   UNL     1       1.788   9.308  18.384  0.00  0.00    +0.000 A 
ENDROOT
BRANCH   1  13
ATOM      7  C   UNL     1       0.013  16.375  19.214  0.00  0.00    +0.000 A 
ATOM      8  C   UNL     1      -0.669  15.277  18.675  0.00  0.00    +0.000 A 
ATOM      9  C   UNL     1      -0.250  13.973  18.950  0.00  0.00    +0.000 A 
ATOM     10  N   UNL     1      -0.950  12.882  18.427  0.00  0.00    +0.000 N 
ATOM     11  C   UNL     1      -0.518  11.581  18.590  0.00  0.00    +0.000 A 
ATOM     12  C   UNL     1      -1.362  10.526  17.912  0.00  0.00    +0.000 C 
ATOM     13  C   UNL     1       0.583  11.272  19.315  0.00  0.00    +0.000 A 
ATOM     14  C   UNL     1       1.325  12.383  20.003  0.00  0.00    +0.000 A 
ATOM     15  O   UNL     1       2.278  12.171  20.746  0.00  0.00    +0.000 OA
ATOM     16  C   UNL     1       0.872  13.772  19.756  0.00  0.00    +0.000 A 
ATOM     17  C   UNL     1       1.568  14.854  20.302  0.00  0.00    +0.000 A 
ATOM     18  C   UNL     1       1.139  16.152  20.024  0.00  0.00    +0.000 A 
ATOM     19 CL   UNL     1       2.021  17.469  20.714  0.00  0.00    +0.000 Cl
ATOM     20  H   UNL     1      -1.752  13.053  17.832  0.00  0.00    +0.000 HD
BRANCH   7  22
ATOM     21  C   UNL     1      -0.242  18.097  17.604  0.00  0.00    +0.000 C 
ATOM     22  O   UNL     1      -0.343  17.675  18.960  0.00  0.00    +0.000 OA
ENDBRANCH   7  22
ENDBRANCH   1  13
BRANCH   4  23
ATOM     23  O   UNL     1       2.526   6.003  19.919  0.00  0.00    +0.000 OA
BRANCH  23  24
ATOM     24  C   UNL     1       3.466   5.490  19.038  0.00  0.00    +0.000 A 
ATOM     25  C   UNL     1       4.800   5.613  19.390  0.00  0.00    +0.000 A 
ATOM     26  C   UNL     1       5.761   5.221  18.461  0.00  0.00    +0.000 A 
ATOM     27  C   UNL     1       5.360   4.714  17.219  0.00  0.00    +0.000 A 
ATOM     28  C   UNL     1       3.997   4.561  16.998  0.00  0.00    +0.000 A 
ATOM     29  N   UNL     1       3.050   4.921  17.884  0.00  0.00    +0.000 NA
BRANCH  27  30
ATOM     30  C   UNL     1       6.314   4.377  16.121  0.00  0.00    +0.000 C 
ATOM     31  F   UNL     1       7.608   4.282  16.537  0.00  0.00    +0.000 F 
ATOM     32  F   UNL     1       6.026   3.196  15.512  0.00  0.00    +0.000 F 
ATOM     33  F   UNL     1       6.312   5.316  15.134  0.00  0.00    +0.000 F 
ENDBRANCH  27  30
ENDBRANCH  23  24
ENDBRANCH   4  23
TORSDOF 5
ENDMDL
