MODEL 1
REMARK VINA RESULT:      -7.7      0.000      0.000
REMARK  Name = 
REMARK  13 active torsions:
REMARK  status: ('A' for Active; 'I' for Inactive)
REMARK    1  A    between atoms: C_1  and  C_2
REMARK    2  A    between atoms: C_2  and  O_3
REMARK    3  A    between atoms: O_3  and  C_4
REMARK    4  A    between atoms: C_4  and  C_6
REMARK    5  A    between atoms: C_7  and  C_8
REMARK    6  A    between atoms: C_10  and  C_11
REMARK    7  A    between atoms: C_12  and  S_13
REMARK    8  A    between atoms: S_13  and  N_16
REMARK    9  A    between atoms: C_20  and  C_21
REMARK   10  A    between atoms: N_23  and  C_24
REMARK   11  A    between atoms: C_29  and  O_30
REMARK   12  A    between atoms: O_30  and  C_31
REMARK   13  A    between atoms: C_31  and  C_32
REMARK                            x       y       z     vdW  Elec       q    Type
REMARK                         _______ _______ _______ _____ _____    ______ ____
ROOT
ATOM      1  N   UNL     1       0.417  11.396  21.625  0.00  0.00    +0.000 NA
ATOM      2  C   UNL     1      -0.692  10.776  22.392  0.00  0.00    +0.000 C 
ATOM      3  C   UNL     1      -0.277   9.438  22.984  0.00  0.00    +0.000 C 
ATOM      4  C   UNL     1       0.213   8.486  21.907  0.00  0.00    +0.000 C 
ATOM      5  C   UNL     1       1.378   9.083  21.109  0.00  0.00    +0.000 C 
ATOM      6  C   UNL     1       1.043  10.487  20.609  0.00  0.00    +0.000 C 
ENDROOT
BRANCH   5   7
ATOM      7  C   UNL     1       1.696   8.173  19.910  0.00  0.00    +0.000 C 
ATOM      8  O   UNL     1       1.535   8.556  18.752  0.00  0.00    +0.000 OA
ATOM      9  N   UNL     1       2.190   6.921  20.242  0.00  0.00    +0.000 N 
ATOM     10  H   UNL     1       2.198   6.610  21.203  0.00  0.00    +0.000 HD
BRANCH   9  11
ATOM     11  C   UNL     1       2.595   5.976  19.275  0.00  0.00    +0.000 A 
ATOM     12  C   UNL     1       3.693   6.312  18.473  0.00  0.00    +0.000 A 
ATOM     13  C   UNL     1       4.162   5.437  17.495  0.00  0.00    +0.000 A 
ATOM     14  C   UNL     1       3.557   4.198  17.332  0.00  0.00    +0.000 A 
ATOM     15  C   UNL     1       2.469   3.846  18.132  0.00  0.00    +0.000 A 
ATOM     16  C   UNL     1       1.952   4.737  19.084  0.00  0.00    +0.000 A 
BRANCH  16  17
ATOM     17  O   UNL     1       0.947   4.188  19.841  0.00  0.00    +0.000 OA
BRANCH  17  18
ATOM     18  C   UNL     1       1.216   2.942  20.469  0.00  0.00    +0.000 C 
ATOM     19  C   UNL     1       1.996   3.183  21.750  0.00  0.00    +0.000 C 
ENDBRANCH  17  18
ENDBRANCH  16  17
ENDBRANCH   9  11
ENDBRANCH   5   7
BRANCH   1  20
ATOM     20  S   UNL     1      -0.064  12.865  20.832  0.00  0.00    +0.000 S 
ATOM     21  O   UNL     1       0.567  12.839  19.525  0.00  0.00    +0.000 OA
ATOM     22  O   UNL     1       0.164  13.968  21.736  0.00  0.00    +0.000 OA
BRANCH  20  29
ATOM     23  C   UNL     1      -2.453  12.110  19.511  0.00  0.00    +0.000 A 
ATOM     24  C   UNL     1      -3.803  12.443  19.623  0.00  0.00    +0.000 A 
ATOM     25  C   UNL     1      -4.993  12.006  18.844  0.00  0.00    +0.000 C 
ATOM     26  N   UNL     1      -3.951  13.295  20.687  0.00  0.00    +0.000 N 
ATOM     27  C   UNL     1      -2.735  13.536  21.270  0.00  0.00    +0.000 A 
ATOM     28  C   UNL     1      -2.642  14.338  22.522  0.00  0.00    +0.000 C 
ATOM     29  C   UNL     1      -1.772  12.876  20.513  0.00  0.00    +0.000 A 
ATOM     30  H   UNL     1      -4.838  13.645  21.029  0.00  0.00    +0.000 HD
BRANCH  23  31
ATOM     31  C   UNL     1      -1.937  11.102  18.582  0.00  0.00    +0.000 C 
ATOM     32  O   UNL     1      -1.513  10.023  18.971  0.00  0.00    +0.000 OA
BRANCH  31  33
ATOM     33  O   UNL     1      -1.998  11.476  17.276  0.00  0.00    +0.000 OA
BRANCH  33  35
ATOM     34  C   UNL     1      -3.422  10.947  15.419  0.00  0.00    +0.000 C 
ATOM     35  C   UNL     1      -2.374  10.420  16.380  0.00  0.00    +0.000 C 
ENDBRANCH  33  35
ENDBRANCH  31  33
ENDBRANCH  23  31
ENDBRANCH  20  29
ENDBRANCH   1  20
TORSDOF 9
ENDMDL
MODEL 2
REMARK VINA RESULT:      -7.5      1.413      2.152
REMARK  Name = 
REMARK  13 active torsions:
REMARK  status: ('A' for Active; 'I' for Inactive)
REMARK    1  A    between atoms: C_1  and  C_2
REMARK    2  A    between atoms: C_2  and  O_3
REMARK    3  A    between atoms: O_3  and  C_4
REMARK    4  A    between atoms: C_4  and  C_6
REMARK    5  A    between atoms: C_7  and  C_8
REMARK    6  A    between atoms: C_10  and  C_11
REMARK    7  A    between atoms: C_12  and  S_13
REMARK    8  A    between atoms: S_13  and  N_16
REMARK    9  A    between atoms: C_20  and  C_21
REMARK   10  A    between atoms: N_23  and  C_24
REMARK   11  A    between atoms: C_29  and  O_30
REMARK   12  A    between atoms: O_30  and  C_31
REMARK   13  A    between atoms: C_31  and  C_32
REMARK                            x       y       z     vdW  Elec       q    Type
REMARK                         _______ _______ _______ _____ _____    ______ ____
ROOT
ATOM      1  N   UNL     1       0.642  10.965  20.716  0.00  0.00    +0.000 NA
ATOM      2  C   UNL     1      -0.485  10.449  21.535  0.00  0.00    +0.000 C 
ATOM      3  C   UNL     1      -0.066   9.239  22.355  0.00  0.00    +0.000 C 
ATOM      4  C   UNL     1       0.487   8.137  21.469  0.00  0.00    +0.000 C 
ATOM      5  C   UNL     1       1.671   8.626  20.626  0.00  0.00    +0.000 C 
ATOM      6  C   UNL     1       1.327   9.919  19.889  0.00  0.00    +0.000 C 
ENDROOT
BRANCH   5   7
ATOM      7  C   UNL     1       2.057   7.540  19.607  0.00  0.00    +0.000 C 
ATOM      8  O   UNL     1       2.248   7.810  18.422  0.00  0.00    +0.000 OA
ATOM      9  N   UNL     1       2.190   6.265  20.134  0.00  0.00    +0.000 N 
ATOM     10  H   UNL     1       1.914   6.071  21.086  0.00  0.00    +0.000 HD
BRANCH   9  11
ATOM     11  C   UNL     1       2.598   5.156  19.363  0.00  0.00    +0.000 A 
ATOM     12  C   UNL     1       1.590   4.356  18.810  0.00  0.00    +0.000 A 
ATOM     13  C   UNL     1       1.903   3.243  18.033  0.00  0.00    +0.000 A 
ATOM     14  C   UNL     1       3.231   2.938  17.768  0.00  0.00    +0.000 A 
ATOM     15  C   UNL     1       4.245   3.734  18.303  0.00  0.00    +0.000 A 
ATOM     16  C   UNL     1       3.948   4.825  19.132  0.00  0.00    +0.000 A 
BRANCH  16  17
ATOM     17  O   UNL     1       5.061   5.547  19.486  0.00  0.00    +0.000 OA
BRANCH  17  18
ATOM     18  C   UNL     1       5.944   5.931  18.442  0.00  0.00    +0.000 C 
ATOM     19  C   UNL     1       7.376   5.651  18.867  0.00  0.00    +0.000 C 
ENDBRANCH  17  18
ENDBRANCH  16  17
ENDBRANCH   9  11
ENDBRANCH   5   7
BRANCH   1  20
ATOM     20  S   UNL     1       0.162  12.270  19.675  0.00  0.00    +0.000 S 
ATOM     21  O   UNL     1       0.653  11.926  18.352  0.00  0.00    +0.000 OA
ATOM     22  O   UNL     1       0.541  13.516  20.299  0.00  0.00    +0.000 OA
BRANCH  20  29
ATOM     23  C   UNL     1      -2.365  11.587  18.594  0.00  0.00    +0.000 A 
ATOM     24  C   UNL     1      -3.685  11.974  18.823  0.00  0.00    +0.000 A 
ATOM     25  C   UNL     1      -4.959  11.572  18.165  0.00  0.00    +0.000 C 
ATOM     26  N   UNL     1      -3.702  12.849  19.878  0.00  0.00    +0.000 N 
ATOM     27  C   UNL     1      -2.430  13.053  20.342  0.00  0.00    +0.000 A 
ATOM     28  C   UNL     1      -2.191  13.871  21.564  0.00  0.00    +0.000 C 
ATOM     29  C   UNL     1      -1.567  12.342  19.513  0.00  0.00    +0.000 A 
ATOM     30  H   UNL     1      -4.540  13.240  20.293  0.00  0.00    +0.000 HD
BRANCH  23  31
ATOM     31  C   UNL     1      -1.976  10.544  17.642  0.00  0.00    +0.000 C 
ATOM     32  O   UNL     1      -1.438   9.507  18.005  0.00  0.00    +0.000 OA
BRANCH  31  33
ATOM     33  O   UNL     1      -2.286  10.835  16.351  0.00  0.00    +0.000 OA
BRANCH  33  35
ATOM     34  C   UNL     1      -3.512  10.261  14.370  0.00  0.00    +0.000 C 
ATOM     35  C   UNL     1      -2.823   9.728  15.612  0.00  0.00    +0.000 C 
ENDBRANCH  33  35
ENDBRANCH  31  33
ENDBRANCH  23  31
ENDBRANCH  20  29
ENDBRANCH   1  20
TORSDOF 9
ENDMDL
MODEL 3
REMARK VINA RESULT:      -7.2      1.861      3.010
REMARK  Name = 
REMARK  13 active torsions:
REMARK  status: ('A' for Active; 'I' for Inactive)
REMARK    1  A    between atoms: C_1  and  C_2
REMARK    2  A    between atoms: C_2  and  O_3
REMARK    3  A    between atoms: O_3  and  C_4
REMARK    4  A    between atoms: C_4  and  C_6
REMARK    5  A    between atoms: C_7  and  C_8
REMARK    6  A    between atoms: C_10  and  C_11
REMARK    7  A    between atoms: C_12  and  S_13
REMARK    8  A    between atoms: S_13  and  N_16
REMARK    9  A    between atoms: C_20  and  C_21
REMARK   10  A    between atoms: N_23  and  C_24
REMARK   11  A    between atoms: C_29  and  O_30
REMARK   12  A    between atoms: O_30  and  C_31
REMARK   13  A    between atoms: C_31  and  C_32
REMARK                            x       y       z     vdW  Elec       q    Type
REMARK                         _______ _______ _______ _____ _____    ______ ____
ROOT
ATOM      1  N   UNL     1       0.366  11.112  19.744  0.00  0.00    +0.000 NA
ATOM      2  C   UNL     1       1.490  11.981  19.311  0.00  0.00    +0.000 C 
ATOM      3  C   UNL     1       2.124  11.470  18.027  0.00  0.00    +0.000 C 
ATOM      4  C   UNL     1       2.598  10.036  18.178  0.00  0.00    +0.000 C 
ATOM      5  C   UNL     1       1.458   9.102  18.599  0.00  0.00    +0.000 C 
ATOM      6  C   UNL     1       0.711   9.654  19.812  0.00  0.00    +0.000 C 
ENDROOT
BRANCH   5   7
ATOM      7  C   UNL     1       2.030   7.714  18.935  0.00  0.00    +0.000 C 
ATOM      8  O   UNL     1       2.154   7.336  20.099  0.00  0.00    +0.000 OA
ATOM      9  N   UNL     1       2.364   6.939  17.836  0.00  0.00    +0.000 N 
ATOM     10  H   UNL     1       2.352   7.333  16.906  0.00  0.00    +0.000 HD
BRANCH   9  11
ATOM     11  C   UNL     1       2.845   5.617  17.950  0.00  0.00    +0.000 A 
ATOM     12  C   UNL     1       1.921   4.582  17.758  0.00  0.00    +0.000 A 
ATOM     13  C   UNL     1       2.310   3.247  17.848  0.00  0.00    +0.000 A 
ATOM     14  C   UNL     1       3.639   2.931  18.097  0.00  0.00    +0.000 A 
ATOM     15  C   UNL     1       4.572   3.953  18.279  0.00  0.00    +0.000 A 
ATOM     16  C   UNL     1       4.186   5.301  18.244  0.00  0.00    +0.000 A 
BRANCH  16  17
ATOM     17  O   UNL     1       5.249   6.166  18.347  0.00  0.00    +0.000 OA
BRANCH  17  18
ATOM     18  C   UNL     1       5.863   6.583  17.137  0.00  0.00    +0.000 C 
ATOM     19  C   UNL     1       7.350   6.792  17.374  0.00  0.00    +0.000 C 
ENDBRANCH  17  18
ENDBRANCH  16  17
ENDBRANCH   9  11
ENDBRANCH   5   7
BRANCH   1  20
ATOM     20  S   UNL     1      -0.298  11.597  21.273  0.00  0.00    +0.000 S 
ATOM     21  O   UNL     1       0.449  12.775  21.678  0.00  0.00    +0.000 OA
ATOM     22  O   UNL     1      -0.365  10.438  22.132  0.00  0.00    +0.000 OA
BRANCH  20  29
ATOM     23  C   UNL     1      -2.686  12.214  19.879  0.00  0.00    +0.000 A 
ATOM     24  C   UNL     1      -3.945  12.702  20.225  0.00  0.00    +0.000 A 
ATOM     25  C   UNL     1      -5.138  13.028  19.397  0.00  0.00    +0.000 C 
ATOM     26  N   UNL     1      -3.998  12.835  21.589  0.00  0.00    +0.000 N 
ATOM     27  C   UNL     1      -2.805  12.455  22.145  0.00  0.00    +0.000 A 
ATOM     28  C   UNL     1      -2.645  12.393  23.625  0.00  0.00    +0.000 C 
ATOM     29  C   UNL     1      -1.941  12.138  21.101  0.00  0.00    +0.000 A 
ATOM     30  H   UNL     1      -4.818  13.114  22.112  0.00  0.00    +0.000 HD
BRANCH  23  31
ATOM     31  C   UNL     1      -2.316  11.805  18.522  0.00  0.00    +0.000 C 
ATOM     32  O   UNL     1      -1.605  12.500  17.810  0.00  0.00    +0.000 OA
BRANCH  31  33
ATOM     33  O   UNL     1      -2.817  10.595  18.157  0.00  0.00    +0.000 OA
BRANCH  33  35
ATOM     34  C   UNL     1      -2.765   9.859  15.874  0.00  0.00    +0.000 C 
ATOM     35  C   UNL     1      -2.017   9.895  17.193  0.00  0.00    +0.000 C 
ENDBRANCH  33  35
ENDBRANCH  31  33
ENDBRANCH  23  31
ENDBRANCH  20  29
ENDBRANCH   1  20
TORSDOF 9
ENDMDL
MODEL 4
REMARK VINA RESULT:      -7.1      1.774      3.778
REMARK  Name = 
REMARK  13 active torsions:
REMARK  status: ('A' for Active; 'I' for Inactive)
REMARK    1  A    between atoms: C_1  and  C_2
REMARK    2  A    between atoms: C_2  and  O_3
REMARK    3  A    between atoms: O_3  and  C_4
REMARK    4  A    between atoms: C_4  and  C_6
REMARK    5  A    between atoms: C_7  and  C_8
REMARK    6  A    between atoms: C_10  and  C_11
REMARK    7  A    between atoms: C_12  and  S_13
REMARK    8  A    between atoms: S_13  and  N_16
REMARK    9  A    between atoms: C_20  and  C_21
REMARK   10  A    between atoms: N_23  and  C_24
REMARK   11  A    between atoms: C_29  and  O_30
REMARK   12  A    between atoms: O_30  and  C_31
REMARK   13  A    between atoms: C_31  and  C_32
REMARK                            x       y       z     vdW  Elec       q    Type
REMARK                         _______ _______ _______ _____ _____    ______ ____
ROOT
ATOM      1  N   UNL     1       0.390  10.549  20.048  0.00  0.00    +0.000 NA
ATOM      2  C   UNL     1      -0.529  10.145  21.143  0.00  0.00    +0.000 C 
ATOM      3  C   UNL     1       0.173   9.254  22.156  0.00  0.00    +0.000 C 
ATOM      4  C   UNL     1       0.769   8.026  21.491  0.00  0.00    +0.000 C 
ATOM      5  C   UNL     1       1.746   8.405  20.371  0.00  0.00    +0.000 C 
ATOM      6  C   UNL     1       1.116   9.406  19.405  0.00  0.00    +0.000 C 
ENDROOT
BRANCH   5   7
ATOM      7  C   UNL     1       2.160   7.138  19.603  0.00  0.00    +0.000 C 
ATOM      8  O   UNL     1       2.313   7.149  18.383  0.00  0.00    +0.000 OA
ATOM      9  N   UNL     1       2.360   6.016  20.391  0.00  0.00    +0.000 N 
ATOM     10  H   UNL     1       2.112   6.025  21.371  0.00  0.00    +0.000 HD
BRANCH   9  11
ATOM     11  C   UNL     1       2.801   4.781  19.869  0.00  0.00    +0.000 A 
ATOM     12  C   UNL     1       1.855   3.752  19.774  0.00  0.00    +0.000 A 
ATOM     13  C   UNL     1       2.204   2.503  19.267  0.00  0.00    +0.000 A 
ATOM     14  C   UNL     1       3.497   2.277  18.814  0.00  0.00    +0.000 A 
ATOM     15  C   UNL     1       4.446   3.298  18.892  0.00  0.00    +0.000 A 
ATOM     16  C   UNL     1       4.125   4.545  19.450  0.00  0.00    +0.000 A 
BRANCH  16  17
ATOM     17  O   UNL     1       5.151   5.453  19.356  0.00  0.00    +0.000 OA
BRANCH  17  18
ATOM     18  C   UNL     1       6.389   4.982  18.844  0.00  0.00    +0.000 C 
ATOM     19  C   UNL     1       7.324   6.160  18.627  0.00  0.00    +0.000 C 
ENDBRANCH  17  18
ENDBRANCH  16  17
ENDBRANCH   9  11
ENDBRANCH   5   7
BRANCH   1  20
ATOM     20  S   UNL     1      -0.414  11.464  18.810  0.00  0.00    +0.000 S 
ATOM     21  O   UNL     1      -0.821  10.501  17.803  0.00  0.00    +0.000 OA
ATOM     22  O   UNL     1       0.421  12.588  18.457  0.00  0.00    +0.000 OA
BRANCH  20  29
ATOM     23  C   UNL     1      -2.011  13.243  20.329  0.00  0.00    +0.000 A 
ATOM     24  C   UNL     1      -3.378  13.450  20.509  0.00  0.00    +0.000 A 
ATOM     25  C   UNL     1      -4.125  14.406  21.371  0.00  0.00    +0.000 C 
ATOM     26  N   UNL     1      -4.057  12.599  19.676  0.00  0.00    +0.000 N 
ATOM     27  C   UNL     1      -3.174  11.835  18.961  0.00  0.00    +0.000 A 
ATOM     28  C   UNL     1      -3.659  10.912  17.896  0.00  0.00    +0.000 C 
ATOM     29  C   UNL     1      -1.894  12.157  19.402  0.00  0.00    +0.000 A 
ATOM     30  H   UNL     1      -5.064  12.581  19.562  0.00  0.00    +0.000 HD
BRANCH  23  31
ATOM     31  C   UNL     1      -0.974  14.078  20.940  0.00  0.00    +0.000 C 
ATOM     32  O   UNL     1      -0.747  15.214  20.549  0.00  0.00    +0.000 OA
BRANCH  31  33
ATOM     33  O   UNL     1      -0.323  13.478  21.972  0.00  0.00    +0.000 OA
BRANCH  33  35
ATOM     34  C   UNL     1      -1.267  14.474  23.941  0.00  0.00    +0.000 C 
ATOM     35  C   UNL     1      -1.153  13.209  23.112  0.00  0.00    +0.000 C 
ENDBRANCH  33  35
ENDBRANCH  31  33
ENDBRANCH  23  31
ENDBRANCH  20  29
ENDBRANCH   1  20
TORSDOF 9
ENDMDL
MODEL 5
REMARK VINA RESULT:      -7.1      1.583      3.316
REMARK  Name = 
REMARK  13 active torsions:
REMARK  status: ('A' for Active; 'I' for Inactive)
REMARK    1  A    between atoms: C_1  and  C_2
REMARK    2  A    between atoms: C_2  and  O_3
REMARK    3  A    between atoms: O_3  and  C_4
REMARK    4  A    between atoms: C_4  and  C_6
REMARK    5  A    between atoms: C_7  and  C_8
REMARK    6  A    between atoms: C_10  and  C_11
REMARK    7  A    between atoms: C_12  and  S_13
REMARK    8  A    between atoms: S_13  and  N_16
REMARK    9  A    between atoms: C_20  and  C_21
REMARK   10  A    between atoms: N_23  and  C_24
REMARK   11  A    between atoms: C_29  and  O_30
REMARK   12  A    between atoms: O_30  and  C_31
REMARK   13  A    between atoms: C_31  and  C_32
REMARK                            x       y       z     vdW  Elec       q    Type
REMARK                         _______ _______ _______ _____ _____    ______ ____
ROOT
ATOM      1  N   UNL     1      -0.034  10.604  20.091  0.00  0.00    +0.000 NA
ATOM      2  C   UNL     1      -0.611   9.811  21.206  0.00  0.00    +0.000 C 
ATOM      3  C   UNL     1       0.455   8.978  21.903  0.00  0.00    +0.000 C 
ATOM      4  C   UNL     1       1.169   8.064  20.924  0.00  0.00    +0.000 C 
ATOM      5  C   UNL     1       1.800   8.852  19.769  0.00  0.00    +0.000 C 
ATOM      6  C   UNL     1       0.789   9.800  19.129  0.00  0.00    +0.000 C 
ENDROOT
BRANCH   5   7
ATOM      7  C   UNL     1       2.328   7.870  18.709  0.00  0.00    +0.000 C 
ATOM      8  O   UNL     1       2.390   8.182  17.521  0.00  0.00    +0.000 OA
ATOM      9  N   UNL     1       2.739   6.642  19.202  0.00  0.00    +0.000 N 
ATOM     10  H   UNL     1       2.565   6.391  20.165  0.00  0.00    +0.000 HD
BRANCH   9  11
ATOM     11  C   UNL     1       3.308   5.640  18.387  0.00  0.00    +0.000 A 
ATOM     12  C   UNL     1       4.665   5.773  18.064  0.00  0.00    +0.000 A 
ATOM     13  C   UNL     1       5.307   4.829  17.267  0.00  0.00    +0.000 A 
ATOM     14  C   UNL     1       4.608   3.719  16.811  0.00  0.00    +0.000 A 
ATOM     15  C   UNL     1       3.259   3.569  17.136  0.00  0.00    +0.000 A 
ATOM     16  C   UNL     1       2.584   4.538  17.892  0.00  0.00    +0.000 A 
BRANCH  16  17
ATOM     17  O   UNL     1       1.293   4.179  18.194  0.00  0.00    +0.000 OA
BRANCH  17  18
ATOM     18  C   UNL     1       1.114   3.033  19.014  0.00  0.00    +0.000 C 
ATOM     19  C   UNL     1       1.072   3.460  20.472  0.00  0.00    +0.000 C 
ENDBRANCH  17  18
ENDBRANCH  16  17
ENDBRANCH   9  11
ENDBRANCH   5   7
BRANCH   1  20
ATOM     20  S   UNL     1      -1.245  11.470  19.197  0.00  0.00    +0.000 S 
ATOM     21  O   UNL     1      -2.069  10.459  18.558  0.00  0.00    +0.000 OA
ATOM     22  O   UNL     1      -0.591  12.490  18.410  0.00  0.00    +0.000 OA
BRANCH  20  29
ATOM     23  C   UNL     1      -1.942  13.086  21.416  0.00  0.00    +0.000 A 
ATOM     24  C   UNL     1      -3.128  13.586  21.952  0.00  0.00    +0.000 A 
ATOM     25  C   UNL     1      -3.392  14.412  23.163  0.00  0.00    +0.000 C 
ATOM     26  N   UNL     1      -4.161  13.227  21.126  0.00  0.00    +0.000 N 
ATOM     27  C   UNL     1      -3.687  12.499  20.068  0.00  0.00    +0.000 A 
ATOM     28  C   UNL     1      -4.597  12.090  18.961  0.00  0.00    +0.000 C 
ATOM     29  C   UNL     1      -2.319  12.327  20.261  0.00  0.00    +0.000 A 
ATOM     30  H   UNL     1      -5.126  13.511  21.249  0.00  0.00    +0.000 HD
BRANCH  23  31
ATOM     31  C   UNL     1      -0.613  13.400  21.946  0.00  0.00    +0.000 C 
ATOM     32  O   UNL     1      -0.147  12.809  22.910  0.00  0.00    +0.000 OA
BRANCH  31  33
ATOM     33  O   UNL     1       0.036  14.377  21.259  0.00  0.00    +0.000 OA
BRANCH  33  35
ATOM     34  C   UNL     1       2.290  15.062  21.717  0.00  0.00    +0.000 C 
ATOM     35  C   UNL     1       0.829  15.246  22.082  0.00  0.00    +0.000 C 
ENDBRANCH  33  35
ENDBRANCH  31  33
ENDBRANCH  23  31
ENDBRANCH  20  29
ENDBRANCH   1  20
TORSDOF 9
ENDMDL
MODEL 6
REMARK VINA RESULT:      -7.0      1.612      3.610
REMARK  Name = 
REMARK  13 active torsions:
REMARK  status: ('A' for Active; 'I' for Inactive)
REMARK    1  A    between atoms: C_1  and  C_2
REMARK    2  A    between atoms: C_2  and  O_3
REMARK    3  A    between atoms: O_3  and  C_4
REMARK    4  A    between atoms: C_4  and  C_6
REMARK    5  A    between atoms: C_7  and  C_8
REMARK    6  A    between atoms: C_10  and  C_11
REMARK    7  A    between atoms: C_12  and  S_13
REMARK    8  A    between atoms: S_13  and  N_16
REMARK    9  A    between atoms: C_20  and  C_21
REMARK   10  A    between atoms: N_23  and  C_24
REMARK   11  A    between atoms: C_29  and  O_30
REMARK   12  A    between atoms: O_30  and  C_31
REMARK   13  A    between atoms: C_31  and  C_32
REMARK                            x       y       z     vdW  Elec       q    Type
REMARK                         _______ _______ _______ _____ _____    ______ ____
ROOT
ATOM      1  N   UNL     1       0.532  11.167  21.328  0.00  0.00    +0.000 NA
ATOM      2  C   UNL     1      -0.545  10.794  22.280  0.00  0.00    +0.000 C 
ATOM      3  C   UNL     1      -0.123   9.634  23.168  0.00  0.00    +0.000 C 
ATOM      4  C   UNL     1       0.286   8.428  22.342  0.00  0.00    +0.000 C 
ATOM      5  C   UNL     1       1.417   8.768  21.363  0.00  0.00    +0.000 C 
ATOM      6  C   UNL     1       1.083  10.013  20.545  0.00  0.00    +0.000 C 
ENDROOT
BRANCH   5   7
ATOM      7  C   UNL     1       1.651   7.577  20.417  0.00  0.00    +0.000 C 
ATOM      8  O   UNL     1       1.780   7.737  19.205  0.00  0.00    +0.000 OA
ATOM      9  N   UNL     1       1.722   6.341  21.040  0.00  0.00    +0.000 N 
ATOM     10  H   UNL     1       1.497   6.246  22.020  0.00  0.00    +0.000 HD
BRANCH   9  11
ATOM     11  C   UNL     1       1.992   5.146  20.341  0.00  0.00    +0.000 A 
ATOM     12  C   UNL     1       0.938   4.234  20.203  0.00  0.00    +0.000 A 
ATOM     13  C   UNL     1       1.115   3.030  19.525  0.00  0.00    +0.000 A 
ATOM     14  C   UNL     1       2.343   2.739  18.944  0.00  0.00    +0.000 A 
ATOM     15  C   UNL     1       3.398   3.644  19.064  0.00  0.00    +0.000 A 
ATOM     16  C   UNL     1       3.251   4.836  19.790  0.00  0.00    +0.000 A 
BRANCH  16  17
ATOM     17  O   UNL     1       4.359   5.645  19.721  0.00  0.00    +0.000 OA
BRANCH  17  18
ATOM     18  C   UNL     1       5.249   5.432  18.635  0.00  0.00    +0.000 C 
ATOM     19  C   UNL     1       6.682   5.499  19.140  0.00  0.00    +0.000 C 
ENDBRANCH  17  18
ENDBRANCH  16  17
ENDBRANCH   9  11
ENDBRANCH   5   7
BRANCH   1  20
ATOM     20  S   UNL     1       0.037  12.407  20.217  0.00  0.00    +0.000 S 
ATOM     21  O   UNL     1       0.800  12.183  19.003  0.00  0.00    +0.000 OA
ATOM     22  O   UNL     1       0.094  13.679  20.897  0.00  0.00    +0.000 OA
BRANCH  20  29
ATOM     23  C   UNL     1      -2.742  12.953  20.252  0.00  0.00    +0.000 A 
ATOM     24  C   UNL     1      -3.867  12.447  19.601  0.00  0.00    +0.000 A 
ATOM     25  C   UNL     1      -5.311  12.787  19.719  0.00  0.00    +0.000 C 
ATOM     26  N   UNL     1      -3.454  11.505  18.694  0.00  0.00    +0.000 N 
ATOM     27  C   UNL     1      -2.091  11.375  18.738  0.00  0.00    +0.000 A 
ATOM     28  C   UNL     1      -1.382  10.499  17.763  0.00  0.00    +0.000 C 
ATOM     29  C   UNL     1      -1.626  12.206  19.753  0.00  0.00    +0.000 A 
ATOM     30  H   UNL     1      -4.061  11.022  18.044  0.00  0.00    +0.000 HD
BRANCH  23  31
ATOM     31  C   UNL     1      -2.780  14.085  21.182  0.00  0.00    +0.000 C 
ATOM     32  O   UNL     1      -2.732  15.243  20.791  0.00  0.00    +0.000 OA
BRANCH  31  33
ATOM     33  O   UNL     1      -2.892  13.720  22.487  0.00  0.00    +0.000 OA
BRANCH  33  35
ATOM     34  C   UNL     1      -1.288  14.591  24.045  0.00  0.00    +0.000 C 
ATOM     35  C   UNL     1      -2.655  14.788  23.416  0.00  0.00    +0.000 C 
ENDBRANCH  33  35
ENDBRANCH  31  33
ENDBRANCH  23  31
ENDBRANCH  20  29
ENDBRANCH   1  20
TORSDOF 9
ENDMDL
MODEL 7
REMARK VINA RESULT:      -7.0      2.768      9.266
REMARK  Name = 
REMARK  13 active torsions:
REMARK  status: ('A' for Active; 'I' for Inactive)
REMARK    1  A    between atoms: C_1  and  C_2
REMARK    2  A    between atoms: C_2  and  O_3
REMARK    3  A    between atoms: O_3  and  C_4
REMARK    4  A    between atoms: C_4  and  C_6
REMARK    5  A    between atoms: C_7  and  C_8
REMARK    6  A    between atoms: C_10  and  C_11
REMARK    7  A    between atoms: C_12  and  S_13
REMARK    8  A    between atoms: S_13  and  N_16
REMARK    9  A    between atoms: C_20  and  C_21
REMARK   10  A    between atoms: N_23  and  C_24
REMARK   11  A    between atoms: C_29  and  O_30
REMARK   12  A    between atoms: O_30  and  C_31
REMARK   13  A    between atoms: C_31  and  C_32
REMARK                            x       y       z     vdW  Elec       q    Type
REMARK                         _______ _______ _______ _____ _____    ______ ____
ROOT
ATOM      1  N   UNL     1       2.541   7.068  19.512  0.00  0.00    +0.000 NA
ATOM      2  C   UNL     1       2.372   7.404  18.075  0.00  0.00    +0.000 C 
ATOM      3  C   UNL     1       2.293   8.908  17.863  0.00  0.00    +0.000 C 
ATOM      4  C   UNL     1       1.172   9.523  18.681  0.00  0.00    +0.000 C 
ATOM      5  C   UNL     1       1.327   9.219  20.175  0.00  0.00    +0.000 C 
ATOM      6  C   UNL     1       1.541   7.726  20.416  0.00  0.00    +0.000 C 
ENDROOT
BRANCH   5   7
ATOM      7  C   UNL     1       0.067   9.685  20.926  0.00  0.00    +0.000 C 
ATOM      8  O   UNL     1      -0.573   8.918  21.644  0.00  0.00    +0.000 OA
ATOM      9  N   UNL     1      -0.261  11.019  20.743  0.00  0.00    +0.000 N 
ATOM     10  H   UNL     1       0.225  11.579  20.058  0.00  0.00    +0.000 HD
BRANCH   9  11
ATOM     11  C   UNL     1      -1.347  11.637  21.400  0.00  0.00    +0.000 A 
ATOM     12  C   UNL     1      -1.352  11.600  22.800  0.00  0.00    +0.000 A 
ATOM     13  C   UNL     1      -2.383  12.187  23.529  0.00  0.00    +0.000 A 
ATOM     14  C   UNL     1      -3.406  12.853  22.866  0.00  0.00    +0.000 A 
ATOM     15  C   UNL     1      -3.406  12.907  21.471  0.00  0.00    +0.000 A 
ATOM     16  C   UNL     1      -2.404  12.274  20.721  0.00  0.00    +0.000 A 
BRANCH  16  17
ATOM     17  O   UNL     1      -2.512  12.513  19.373  0.00  0.00    +0.000 OA
BRANCH  17  18
ATOM     18  C   UNL     1      -3.027  11.462  18.568  0.00  0.00    +0.000 C 
ATOM     19  C   UNL     1      -2.224  11.376  17.281  0.00  0.00    +0.000 C 
ENDBRANCH  17  18
ENDBRANCH  16  17
ENDBRANCH   9  11
ENDBRANCH   5   7
BRANCH   1  20
ATOM     20  S   UNL     1       2.508   5.356  19.802  0.00  0.00    +0.000 S 
ATOM     21  O   UNL     1       1.111   4.966  19.739  0.00  0.00    +0.000 OA
ATOM     22  O   UNL     1       3.298   5.076  20.978  0.00  0.00    +0.000 OA
BRANCH  20  29
ATOM     23  C   UNL     1       4.619   4.683  18.036  0.00  0.00    +0.000 A 
ATOM     24  C   UNL     1       4.797   3.769  16.997  0.00  0.00    +0.000 A 
ATOM     25  C   UNL     1       5.954   3.516  16.095  0.00  0.00    +0.000 C 
ATOM     26  N   UNL     1       3.667   3.000  16.899  0.00  0.00    +0.000 N 
ATOM     27  C   UNL     1       2.749   3.388  17.839  0.00  0.00    +0.000 A 
ATOM     28  C   UNL     1       1.481   2.628  18.019  0.00  0.00    +0.000 C 
ATOM     29  C   UNL     1       3.281   4.486  18.511  0.00  0.00    +0.000 A 
ATOM     30  H   UNL     1       3.552   2.218  16.266  0.00  0.00    +0.000 HD
BRANCH  23  31
ATOM     31  C   UNL     1       5.675   5.569  18.532  0.00  0.00    +0.000 C 
ATOM     32  O   UNL     1       6.309   5.312  19.545  0.00  0.00    +0.000 OA
BRANCH  31  33
ATOM     33  O   UNL     1       5.881   6.665  17.755  0.00  0.00    +0.000 OA
BRANCH  33  35
ATOM     34  C   UNL     1       7.825   8.070  17.677  0.00  0.00    +0.000 C 
ATOM     35  C   UNL     1       7.208   6.763  17.217  0.00  0.00    +0.000 C 
ENDBRANCH  33  35
ENDBRANCH  31  33
ENDBRANCH  23  31
ENDBRANCH  20  29
ENDBRANCH   1  20
TORSDOF 9
ENDMDL
MODEL 8
REMARK VINA RESULT:      -7.0      1.566      3.245
REMARK  Name = 
REMARK  13 active torsions:
REMARK  status: ('A' for Active; 'I' for Inactive)
REMARK    1  A    between atoms: C_1  and  C_2
REMARK    2  A    between atoms: C_2  and  O_3
REMARK    3  A    between atoms: O_3  and  C_4
REMARK    4  A    between atoms: C_4  and  C_6
REMARK    5  A    between atoms: C_7  and  C_8
REMARK    6  A    between atoms: C_10  and  C_11
REMARK    7  A    between atoms: C_12  and  S_13
REMARK    8  A    between atoms: S_13  and  N_16
REMARK    9  A    between atoms: C_20  and  C_21
REMARK   10  A    between atoms: N_23  and  C_24
REMARK   11  A    between atoms: C_29  and  O_30
REMARK   12  A    between atoms: O_30  and  C_31
REMARK   13  A    between atoms: C_31  and  C_32
REMARK                            x       y       z     vdW  Elec       q    Type
REMARK                         _______ _______ _______ _____ _____    ______ ____
ROOT
ATOM      1  N   UNL     1      -0.187  10.968  19.335  0.00  0.00    +0.000 NA
ATOM      2  C   UNL     1      -0.832  10.235  20.454  0.00  0.00    +0.000 C 
ATOM      3  C   UNL     1       0.192   9.467  21.276  0.00  0.00    +0.000 C 
ATOM      4  C   UNL     1       0.986   8.506  20.409  0.00  0.00    +0.000 C 
ATOM      5  C   UNL     1       1.689   9.232  19.255  0.00  0.00    +0.000 C 
ATOM      6  C   UNL     1       0.713  10.121  18.486  0.00  0.00    +0.000 C 
ENDROOT
BRANCH   5   7
ATOM      7  C   UNL     1       2.305   8.196  18.298  0.00  0.00    +0.000 C 
ATOM      8  O   UNL     1       2.534   8.467  17.121  0.00  0.00    +0.000 OA
ATOM      9  N   UNL     1       2.591   6.968  18.873  0.00  0.00    +0.000 N 
ATOM     10  H   UNL     1       2.281   6.755  19.810  0.00  0.00    +0.000 HD
BRANCH   9  11
ATOM     11  C   UNL     1       3.214   5.918  18.165  0.00  0.00    +0.000 A 
ATOM     12  C   UNL     1       4.513   6.148  17.694  0.00  0.00    +0.000 A 
ATOM     13  C   UNL     1       5.204   5.165  16.988  0.00  0.00    +0.000 A 
ATOM     14  C   UNL     1       4.615   3.925  16.776  0.00  0.00    +0.000 A 
ATOM     15  C   UNL     1       3.326   3.680  17.251  0.00  0.00    +0.000 A 
ATOM     16  C   UNL     1       2.597   4.677  17.916  0.00  0.00    +0.000 A 
BRANCH  16  17
ATOM     17  O   UNL     1       1.390   4.228  18.394  0.00  0.00    +0.000 OA
BRANCH  17  18
ATOM     18  C   UNL     1       1.273   4.055  19.798  0.00  0.00    +0.000 C 
ATOM     19  C   UNL     1       1.362   2.575  20.131  0.00  0.00    +0.000 C 
ENDBRANCH  17  18
ENDBRANCH  16  17
ENDBRANCH   9  11
ENDBRANCH   5   7
BRANCH   1  20
ATOM     20  S   UNL     1      -1.343  11.755  18.304  0.00  0.00    +0.000 S 
ATOM     21  O   UNL     1      -1.753  10.759  17.330  0.00  0.00    +0.000 OA
ATOM     22  O   UNL     1      -0.788  13.017  17.874  0.00  0.00    +0.000 OA
BRANCH  20  29
ATOM     23  C   UNL     1      -2.885  13.053  20.294  0.00  0.00    +0.000 A 
ATOM     24  C   UNL     1      -4.229  13.065  20.663  0.00  0.00    +0.000 A 
ATOM     25  C   UNL     1      -4.942  13.768  21.765  0.00  0.00    +0.000 C 
ATOM     26  N   UNL     1      -4.930  12.294  19.773  0.00  0.00    +0.000 N 
ATOM     27  C   UNL     1      -4.081  11.770  18.834  0.00  0.00    +0.000 A 
ATOM     28  C   UNL     1      -4.614  10.991  17.681  0.00  0.00    +0.000 C 
ATOM     29  C   UNL     1      -2.790  12.160  19.177  0.00  0.00    +0.000 A 
ATOM     30  H   UNL     1      -5.936  12.179  19.773  0.00  0.00    +0.000 HD
BRANCH  23  31
ATOM     31  C   UNL     1      -1.859  13.887  20.925  0.00  0.00    +0.000 C 
ATOM     32  O   UNL     1      -1.785  15.089  20.712  0.00  0.00    +0.000 OA
BRANCH  31  33
ATOM     33  O   UNL     1      -1.035  13.204  21.763  0.00  0.00    +0.000 OA
BRANCH  33  35
ATOM     34  C   UNL     1      -2.064  11.830  23.439  0.00  0.00    +0.000 C 
ATOM     35  C   UNL     1      -1.468  13.191  23.131  0.00  0.00    +0.000 C 
ENDBRANCH  33  35
ENDBRANCH  31  33
ENDBRANCH  23  31
ENDBRANCH  20  29
ENDBRANCH   1  20
TORSDOF 9
ENDMDL
MODEL 9
REMARK VINA RESULT:      -6.9      2.223      4.289
REMARK  Name = 
REMARK  13 active torsions:
REMARK  status: ('A' for Active; 'I' for Inactive)
REMARK    1  A    between atoms: C_1  and  C_2
REMARK    2  A    between atoms: C_2  and  O_3
REMARK    3  A    between atoms: O_3  and  C_4
REMARK    4  A    between atoms: C_4  and  C_6
REMARK    5  A    between atoms: C_7  and  C_8
REMARK    6  A    between atoms: C_10  and  C_11
REMARK    7  A    between atoms: C_12  and  S_13
REMARK    8  A    between atoms: S_13  and  N_16
REMARK    9  A    between atoms: C_20  and  C_21
REMARK   10  A    between atoms: N_23  and  C_24
REMARK   11  A    between atoms: C_29  and  O_30
REMARK   12  A    between atoms: O_30  and  C_31
REMARK   13  A    between atoms: C_31  and  C_32
REMARK                            x       y       z     vdW  Elec       q    Type
REMARK                         _______ _______ _______ _____ _____    ______ ____
ROOT
ATOM      1  N   UNL     1       0.381  10.845  19.549  0.00  0.00    +0.000 NA
ATOM      2  C   UNL     1       1.529  11.711  19.175  0.00  0.00    +0.000 C 
ATOM      3  C   UNL     1       2.245  11.181  17.942  0.00  0.00    +0.000 C 
ATOM      4  C   UNL     1       2.711   9.750  18.147  0.00  0.00    +0.000 C 
ATOM      5  C   UNL     1       1.547   8.820  18.509  0.00  0.00    +0.000 C 
ATOM      6  C   UNL     1       0.723   9.390  19.662  0.00  0.00    +0.000 C 
ENDROOT
BRANCH   5   7
ATOM      7  C   UNL     1       2.098   7.439  18.902  0.00  0.00    +0.000 C 
ATOM      8  O   UNL     1       2.200   7.101  20.080  0.00  0.00    +0.000 OA
ATOM      9  N   UNL     1       2.441   6.622  17.837  0.00  0.00    +0.000 N 
ATOM     10  H   UNL     1       2.448   6.983  16.893  0.00  0.00    +0.000 HD
BRANCH   9  11
ATOM     11  C   UNL     1       2.906   5.300  18.004  0.00  0.00    +0.000 A 
ATOM     12  C   UNL     1       1.989   4.266  17.772  0.00  0.00    +0.000 A 
ATOM     13  C   UNL     1       2.364   2.932  17.911  0.00  0.00    +0.000 A 
ATOM     14  C   UNL     1       3.672   2.613  18.251  0.00  0.00    +0.000 A 
ATOM     15  C   UNL     1       4.598   3.634  18.474  0.00  0.00    +0.000 A 
ATOM     16  C   UNL     1       4.223   4.983  18.390  0.00  0.00    +0.000 A 
BRANCH  16  17
ATOM     17  O   UNL     1       5.282   5.844  18.546  0.00  0.00    +0.000 OA
BRANCH  17  18
ATOM     18  C   UNL     1       6.497   5.499  17.897  0.00  0.00    +0.000 C 
ATOM     19  C   UNL     1       7.665   6.089  18.671  0.00  0.00    +0.000 C 
ENDBRANCH  17  18
ENDBRANCH  16  17
ENDBRANCH   9  11
ENDBRANCH   5   7
BRANCH   1  20
ATOM     20  S   UNL     1      -0.380  11.353  21.025  0.00  0.00    +0.000 S 
ATOM     21  O   UNL     1       0.401  12.475  21.512  0.00  0.00    +0.000 OA
ATOM     22  O   UNL     1      -0.592  10.190  21.854  0.00  0.00    +0.000 OA
BRANCH  20  29
ATOM     23  C   UNL     1      -2.894  12.463  21.711  0.00  0.00    +0.000 A 
ATOM     24  C   UNL     1      -4.023  12.885  21.009  0.00  0.00    +0.000 A 
ATOM     25  C   UNL     1      -5.327  13.431  21.476  0.00  0.00    +0.000 C 
ATOM     26  N   UNL     1      -3.767  12.768  19.668  0.00  0.00    +0.000 N 
ATOM     27  C   UNL     1      -2.505  12.274  19.470  0.00  0.00    +0.000 A 
ATOM     28  C   UNL     1      -1.940  12.165  18.096  0.00  0.00    +0.000 C 
ATOM     29  C   UNL     1      -1.965  12.000  20.723  0.00  0.00    +0.000 A 
ATOM     30  H   UNL     1      -4.396  13.062  18.930  0.00  0.00    +0.000 HD
BRANCH  23  31
ATOM     31  C   UNL     1      -2.744  12.589  23.163  0.00  0.00    +0.000 C 
ATOM     32  O   UNL     1      -3.244  11.783  23.935  0.00  0.00    +0.000 OA
BRANCH  31  33
ATOM     33  O   UNL     1      -1.994  13.655  23.547  0.00  0.00    +0.000 OA
BRANCH  33  35
ATOM     34  C   UNL     1      -2.635  15.064  25.381  0.00  0.00    +0.000 C 
ATOM     35  C   UNL     1      -2.761  14.819  23.889  0.00  0.00    +0.000 C 
ENDBRANCH  33  35
ENDBRANCH  31  33
ENDBRANCH  23  31
ENDBRANCH  20  29
ENDBRANCH   1  20
TORSDOF 9
ENDMDL
