MODEL 1
REMARK VINA RESULT:      -6.4      0.000      0.000
REMARK  Name = 
REMARK  4 active torsions:
REMARK  status: ('A' for Active; 'I' for Inactive)
REMARK    1  A    between atoms: C_2  and  O_3
REMARK    2  A    between atoms: C_2  and  C_4
REMARK    3  A    between atoms: C_7  and  N_8
REMARK    4  A    between atoms: C_11  and  N_12
REMARK                            x       y       z     vdW  Elec       q    Type
REMARK                         _______ _______ _______ _____ _____    ______ ____
ROOT
ATOM      1  C   UNL     1       3.481   3.616  17.870  0.00  0.00    +0.000 A 
ATOM      2  C   UNL     1       4.177   3.784  19.082  0.00  0.00    +0.000 A 
ATOM      3  C   UNL     1       5.485   4.284  19.079  0.00  0.00    +0.000 A 
ATOM      4  C   UNL     1       6.095   4.605  17.859  0.00  0.00    +0.000 A 
ATOM      5  C   UNL     1       5.408   4.435  16.660  0.00  0.00    +0.000 A 
ATOM      6  C   UNL     1       4.100   3.934  16.652  0.00  0.00    +0.000 A 
ENDROOT
BRANCH   4   7
ATOM      7  N   UNL     1       7.478   5.032  17.877  0.00  0.00    +0.000 N 
ATOM      8  O   UNL     1       7.690   6.232  18.091  0.00  0.00    +0.000 OA
ATOM      9  O   UNL     1       8.333   4.151  17.738  0.00  0.00    +0.000 OA
ENDBRANCH   4   7
BRANCH   5  10
ATOM     10  N   UNL     1       5.996   4.843  15.402  0.00  0.00    +0.000 N 
ATOM     11  O   UNL     1       6.588   3.969  14.759  0.00  0.00    +0.000 OA
ATOM     12  O   UNL     1       5.905   6.038  15.100  0.00  0.00    +0.000 OA
ENDBRANCH   5  10
BRANCH   1  14
ATOM     13  O   UNL     1       1.138   3.738  17.547  0.00  0.00    +0.000 OA
ATOM     14  C   UNL     1       2.108   3.054  17.826  0.00  0.00    +0.000 C 
BRANCH  14  15
ATOM     15  O   UNL     1       2.031   1.751  18.154  0.00  0.00    +0.000 OA
ATOM     16  H   UNL     1       1.803   1.131  17.438  0.00  0.00    +0.000 HD
ENDBRANCH  14  15
ENDBRANCH   1  14
TORSDOF 4
ENDMDL
MODEL 2
REMARK VINA RESULT:      -6.3      0.251      1.172
REMARK  Name = 
REMARK  4 active torsions:
REMARK  status: ('A' for Active; 'I' for Inactive)
REMARK    1  A    between atoms: C_2  and  O_3
REMARK    2  A    between atoms: C_2  and  C_4
REMARK    3  A    between atoms: C_7  and  N_8
REMARK    4  A    between atoms: C_11  and  N_12
REMARK                            x       y       z     vdW  Elec       q    Type
REMARK                         _______ _______ _______ _____ _____    ______ ____
ROOT
ATOM      1  C   UNL     1       3.410   3.821  17.955  0.00  0.00    +0.000 A 
ATOM      2  C   UNL     1       4.125   4.030  19.149  0.00  0.00    +0.000 A 
ATOM      3  C   UNL     1       5.453   4.472  19.105  0.00  0.00    +0.000 A 
ATOM      4  C   UNL     1       6.063   4.694  17.863  0.00  0.00    +0.000 A 
ATOM      5  C   UNL     1       5.357   4.482  16.682  0.00  0.00    +0.000 A 
ATOM      6  C   UNL     1       4.028   4.039  16.715  0.00  0.00    +0.000 A 
ENDROOT
BRANCH   4   7
ATOM      7  N   UNL     1       7.463   5.060  17.844  0.00  0.00    +0.000 N 
ATOM      8  O   UNL     1       7.730   6.258  17.996  0.00  0.00    +0.000 OA
ATOM      9  O   UNL     1       8.277   4.137  17.739  0.00  0.00    +0.000 OA
ENDBRANCH   4   7
BRANCH   5  10
ATOM     10  N   UNL     1       5.948   4.790  15.397  0.00  0.00    +0.000 N 
ATOM     11  O   UNL     1       5.841   5.958  15.006  0.00  0.00    +0.000 OA
ATOM     12  O   UNL     1       6.462   3.853  14.776  0.00  0.00    +0.000 OA
ENDBRANCH   5  10
BRANCH   1  14
ATOM     13  O   UNL     1       1.719   2.227  18.414  0.00  0.00    +0.000 OA
ATOM     14  C   UNL     1       2.013   3.317  17.955  0.00  0.00    +0.000 C 
BRANCH  14  15
ATOM     15  O   UNL     1       1.125   4.146  17.376  0.00  0.00    +0.000 OA
ATOM     16  H   UNL     1       0.727   3.846  16.538  0.00  0.00    +0.000 HD
ENDBRANCH  14  15
ENDBRANCH   1  14
TORSDOF 4
ENDMDL
MODEL 3
REMARK VINA RESULT:      -6.2      0.962      1.213
REMARK  Name = 
REMARK  4 active torsions:
REMARK  status: ('A' for Active; 'I' for Inactive)
REMARK    1  A    between atoms: C_2  and  O_3
REMARK    2  A    between atoms: C_2  and  C_4
REMARK    3  A    between atoms: C_7  and  N_8
REMARK    4  A    between atoms: C_11  and  N_12
REMARK                            x       y       z     vdW  Elec       q    Type
REMARK                         _______ _______ _______ _____ _____    ______ ____
ROOT
ATOM      1  C   UNL     1       3.668   3.954  17.858  0.00  0.00    +0.000 A 
ATOM      2  C   UNL     1       3.924   4.470  19.142  0.00  0.00    +0.000 A 
ATOM      3  C   UNL     1       5.125   5.142  19.403  0.00  0.00    +0.000 A 
ATOM      4  C   UNL     1       6.069   5.285  18.377  0.00  0.00    +0.000 A 
ATOM      5  C   UNL     1       5.818   4.770  17.109  0.00  0.00    +0.000 A 
ATOM      6  C   UNL     1       4.620   4.096  16.838  0.00  0.00    +0.000 A 
ENDROOT
BRANCH   4   7
ATOM      7  N   UNL     1       7.339   5.902  18.698  0.00  0.00    +0.000 N 
ATOM      8  O   UNL     1       8.126   5.239  19.384  0.00  0.00    +0.000 OA
ATOM      9  O   UNL     1       7.556   7.014  18.206  0.00  0.00    +0.000 OA
ENDBRANCH   4   7
BRANCH   5  10
ATOM     10  N   UNL     1       6.747   4.987  16.020  0.00  0.00    +0.000 N 
ATOM     11  O   UNL     1       7.811   4.361  16.070  0.00  0.00    +0.000 OA
ATOM     12  O   UNL     1       6.424   5.815  15.162  0.00  0.00    +0.000 OA
ENDBRANCH   5  10
BRANCH   1  14
ATOM     13  O   UNL     1       1.380   3.767  17.276  0.00  0.00    +0.000 OA
ATOM     14  C   UNL     1       2.425   3.203  17.549  0.00  0.00    +0.000 C 
BRANCH  14  15
ATOM     15  O   UNL     1       2.549   1.866  17.636  0.00  0.00    +0.000 OA
ATOM     16  H   UNL     1       1.743   1.340  17.486  0.00  0.00    +0.000 HD
ENDBRANCH  14  15
ENDBRANCH   1  14
TORSDOF 4
ENDMDL
MODEL 4
REMARK VINA RESULT:      -6.1      2.356      5.124
REMARK  Name = 
REMARK  4 active torsions:
REMARK  status: ('A' for Active; 'I' for Inactive)
REMARK    1  A    between atoms: C_2  and  O_3
REMARK    2  A    between atoms: C_2  and  C_4
REMARK    3  A    between atoms: C_7  and  N_8
REMARK    4  A    between atoms: C_11  and  N_12
REMARK                            x       y       z     vdW  Elec       q    Type
REMARK                         _______ _______ _______ _____ _____    ______ ____
ROOT
ATOM      1  C   UNL     1       5.802   5.359  17.326  0.00  0.00    +0.000 A 
ATOM      2  C   UNL     1       4.800   6.342  17.231  0.00  0.00    +0.000 A 
ATOM      3  C   UNL     1       3.490   6.053  17.637  0.00  0.00    +0.000 A 
ATOM      4  C   UNL     1       3.189   4.775  18.127  0.00  0.00    +0.000 A 
ATOM      5  C   UNL     1       4.180   3.801  18.216  0.00  0.00    +0.000 A 
ATOM      6  C   UNL     1       5.492   4.080  17.812  0.00  0.00    +0.000 A 
ENDROOT
BRANCH   4   7
ATOM      7  N   UNL     1       1.811   4.474  18.452  0.00  0.00    +0.000 N 
ATOM      8  O   UNL     1       1.100   4.047  17.535  0.00  0.00    +0.000 OA
ATOM      9  O   UNL     1       1.477   4.611  19.633  0.00  0.00    +0.000 OA
ENDBRANCH   4   7
BRANCH   5  10
ATOM     10  N   UNL     1       3.900   2.507  18.801  0.00  0.00    +0.000 N 
ATOM     11  O   UNL     1       3.500   1.628  18.029  0.00  0.00    +0.000 OA
ATOM     12  O   UNL     1       4.033   2.402  20.025  0.00  0.00    +0.000 OA
ENDBRANCH   5  10
BRANCH   1  14
ATOM     13  O   UNL     1       7.589   6.729  16.592  0.00  0.00    +0.000 OA
ATOM     14  C   UNL     1       7.193   5.611  16.873  0.00  0.00    +0.000 C 
BRANCH  14  15
ATOM     15  O   UNL     1       7.950   4.504  16.764  0.00  0.00    +0.000 OA
ATOM     16  H   UNL     1       7.689   3.739  17.309  0.00  0.00    +0.000 HD
ENDBRANCH  14  15
ENDBRANCH   1  14
TORSDOF 4
ENDMDL
MODEL 5
REMARK VINA RESULT:      -6.1      2.358      5.195
REMARK  Name = 
REMARK  4 active torsions:
REMARK  status: ('A' for Active; 'I' for Inactive)
REMARK    1  A    between atoms: C_2  and  O_3
REMARK    2  A    between atoms: C_2  and  C_4
REMARK    3  A    between atoms: C_7  and  N_8
REMARK    4  A    between atoms: C_11  and  N_12
REMARK                            x       y       z     vdW  Elec       q    Type
REMARK                         _______ _______ _______ _____ _____    ______ ____
ROOT
ATOM      1  C   UNL     1       5.799   5.223  17.291  0.00  0.00    +0.000 A 
ATOM      2  C   UNL     1       4.810   6.219  17.188  0.00  0.00    +0.000 A 
ATOM      3  C   UNL     1       3.503   5.959  17.617  0.00  0.00    +0.000 A 
ATOM      4  C   UNL     1       3.189   4.697  18.140  0.00  0.00    +0.000 A 
ATOM      5  C   UNL     1       4.166   3.711  18.237  0.00  0.00    +0.000 A 
ATOM      6  C   UNL     1       5.476   3.960  17.809  0.00  0.00    +0.000 A 
ENDROOT
BRANCH   4   7
ATOM      7  N   UNL     1       1.811   4.425  18.490  0.00  0.00    +0.000 N 
ATOM      8  O   UNL     1       1.470   4.672  19.653  0.00  0.00    +0.000 OA
ATOM      9  O   UNL     1       1.075   4.028  17.580  0.00  0.00    +0.000 OA
ENDBRANCH   4   7
BRANCH   5  10
ATOM     10  N   UNL     1       3.874   2.434  18.854  0.00  0.00    +0.000 N 
ATOM     11  O   UNL     1       4.077   2.349  20.070  0.00  0.00    +0.000 OA
ATOM     12  O   UNL     1       3.499   1.522  18.108  0.00  0.00    +0.000 OA
ENDBRANCH   5  10
BRANCH   1  14
ATOM     13  O   UNL     1       7.954   4.519  16.607  0.00  0.00    +0.000 OA
ATOM     14  C   UNL     1       7.187   5.443  16.813  0.00  0.00    +0.000 C 
BRANCH  14  15
ATOM     15  O   UNL     1       7.525   6.738  16.671  0.00  0.00    +0.000 OA
ATOM     16  H   UNL     1       6.840   7.397  16.886  0.00  0.00    +0.000 HD
ENDBRANCH  14  15
ENDBRANCH   1  14
TORSDOF 4
ENDMDL
MODEL 6
REMARK VINA RESULT:      -6.1      0.994      1.642
REMARK  Name = 
REMARK  4 active torsions:
REMARK  status: ('A' for Active; 'I' for Inactive)
REMARK    1  A    between atoms: C_2  and  O_3
REMARK    2  A    between atoms: C_2  and  C_4
REMARK    3  A    between atoms: C_7  and  N_8
REMARK    4  A    between atoms: C_11  and  N_12
REMARK                            x       y       z     vdW  Elec       q    Type
REMARK                         _______ _______ _______ _____ _____    ______ ____
ROOT
ATOM      1  C   UNL     1       3.680   4.043  17.874  0.00  0.00    +0.000 A 
ATOM      2  C   UNL     1       3.942   4.558  19.157  0.00  0.00    +0.000 A 
ATOM      3  C   UNL     1       5.150   5.217  19.418  0.00  0.00    +0.000 A 
ATOM      4  C   UNL     1       6.096   5.349  18.392  0.00  0.00    +0.000 A 
ATOM      5  C   UNL     1       5.839   4.836  17.124  0.00  0.00    +0.000 A 
ATOM      6  C   UNL     1       4.634   4.174  16.854  0.00  0.00    +0.000 A 
ENDROOT
BRANCH   4   7
ATOM      7  N   UNL     1       7.372   5.952  18.712  0.00  0.00    +0.000 N 
ATOM      8  O   UNL     1       8.144   5.289  19.415  0.00  0.00    +0.000 OA
ATOM      9  O   UNL     1       7.609   7.053  18.205  0.00  0.00    +0.000 OA
ENDBRANCH   4   7
BRANCH   5  10
ATOM     10  N   UNL     1       6.770   5.042  16.035  0.00  0.00    +0.000 N 
ATOM     11  O   UNL     1       6.413   5.819  15.143  0.00  0.00    +0.000 OA
ATOM     12  O   UNL     1       7.818   4.387  16.061  0.00  0.00    +0.000 OA
ENDBRANCH   5  10
BRANCH   1  14
ATOM     13  O   UNL     1       2.396   2.089  17.501  0.00  0.00    +0.000 OA
ATOM     14  C   UNL     1       2.430   3.306  17.566  0.00  0.00    +0.000 C 
BRANCH  14  15
ATOM     15  O   UNL     1       1.365   4.094  17.329  0.00  0.00    +0.000 OA
ATOM     16  H   UNL     1       1.047   4.137  16.408  0.00  0.00    +0.000 HD
ENDBRANCH  14  15
ENDBRANCH   1  14
TORSDOF 4
ENDMDL
MODEL 7
REMARK VINA RESULT:      -6.1      2.376      4.608
REMARK  Name = 
REMARK  4 active torsions:
REMARK  status: ('A' for Active; 'I' for Inactive)
REMARK    1  A    between atoms: C_2  and  O_3
REMARK    2  A    between atoms: C_2  and  C_4
REMARK    3  A    between atoms: C_7  and  N_8
REMARK    4  A    between atoms: C_11  and  N_12
REMARK                            x       y       z     vdW  Elec       q    Type
REMARK                         _______ _______ _______ _____ _____    ______ ____
ROOT
ATOM      1  C   UNL     1       6.579   4.755  15.122  0.00  0.00    +0.000 A 
ATOM      2  C   UNL     1       5.302   4.223  15.378  0.00  0.00    +0.000 A 
ATOM      3  C   UNL     1       4.811   4.170  16.688  0.00  0.00    +0.000 A 
ATOM      4  C   UNL     1       5.607   4.644  17.740  0.00  0.00    +0.000 A 
ATOM      5  C   UNL     1       6.873   5.166  17.487  0.00  0.00    +0.000 A 
ATOM      6  C   UNL     1       7.373   5.222  16.180  0.00  0.00    +0.000 A 
ENDROOT
BRANCH   4   7
ATOM      7  N   UNL     1       5.115   4.493  19.093  0.00  0.00    +0.000 N 
ATOM      8  O   UNL     1       4.554   5.473  19.597  0.00  0.00    +0.000 OA
ATOM      9  O   UNL     1       5.241   3.377  19.608  0.00  0.00    +0.000 OA
ENDBRANCH   4   7
BRANCH   5  10
ATOM     10  N   UNL     1       7.668   5.736  18.554  0.00  0.00    +0.000 N 
ATOM     11  O   UNL     1       7.847   6.958  18.516  0.00  0.00    +0.000 OA
ATOM     12  O   UNL     1       8.145   4.951  19.381  0.00  0.00    +0.000 OA
ENDBRANCH   5  10
BRANCH   1  14
ATOM     13  O   UNL     1       8.043   5.570  13.448  0.00  0.00    +0.000 OA
ATOM     14  C   UNL     1       7.152   4.796  13.754  0.00  0.00    +0.000 C 
BRANCH  14  15
ATOM     15  O   UNL     1       6.579   3.940  12.887  0.00  0.00    +0.000 OA
ATOM     16  H   UNL     1       6.802   2.997  12.989  0.00  0.00    +0.000 HD
ENDBRANCH  14  15
ENDBRANCH   1  14
TORSDOF 4
ENDMDL
MODEL 8
REMARK VINA RESULT:      -6.0      2.213      4.690
REMARK  Name = 
REMARK  4 active torsions:
REMARK  status: ('A' for Active; 'I' for Inactive)
REMARK    1  A    between atoms: C_2  and  O_3
REMARK    2  A    between atoms: C_2  and  C_4
REMARK    3  A    between atoms: C_7  and  N_8
REMARK    4  A    between atoms: C_11  and  N_12
REMARK                            x       y       z     vdW  Elec       q    Type
REMARK                         _______ _______ _______ _____ _____    ______ ____
ROOT
ATOM      1  C   UNL     1       5.758   4.547  16.800  0.00  0.00    +0.000 A 
ATOM      2  C   UNL     1       6.183   4.859  18.104  0.00  0.00    +0.000 A 
ATOM      3  C   UNL     1       5.315   4.682  19.189  0.00  0.00    +0.000 A 
ATOM      4  C   UNL     1       4.018   4.201  18.959  0.00  0.00    +0.000 A 
ATOM      5  C   UNL     1       3.596   3.898  17.668  0.00  0.00    +0.000 A 
ATOM      6  C   UNL     1       4.457   4.072  16.577  0.00  0.00    +0.000 A 
ENDROOT
BRANCH   4   7
ATOM      7  N   UNL     1       3.112   4.116  20.085  0.00  0.00    +0.000 N 
ATOM      8  O   UNL     1       3.063   3.035  20.683  0.00  0.00    +0.000 OA
ATOM      9  O   UNL     1       2.508   5.149  20.391  0.00  0.00    +0.000 OA
ENDBRANCH   4   7
BRANCH   5  10
ATOM     10  N   UNL     1       2.290   3.321  17.430  0.00  0.00    +0.000 N 
ATOM     11  O   UNL     1       1.347   4.113  17.327  0.00  0.00    +0.000 OA
ATOM     12  O   UNL     1       2.217   2.087  17.401  0.00  0.00    +0.000 OA
ENDBRANCH   5  10
BRANCH   1  14
ATOM     13  O   UNL     1       7.460   5.648  15.576  0.00  0.00    +0.000 OA
ATOM     14  C   UNL     1       6.632   4.754  15.619  0.00  0.00    +0.000 C 
BRANCH  14  15
ATOM     15  O   UNL     1       6.402   3.903  14.602  0.00  0.00    +0.000 OA
ATOM     16  H   UNL     1       6.470   4.268  13.701  0.00  0.00    +0.000 HD
ENDBRANCH  14  15
ENDBRANCH   1  14
TORSDOF 4
ENDMDL
MODEL 9
REMARK VINA RESULT:      -6.0      0.886      1.498
REMARK  Name = 
REMARK  4 active torsions:
REMARK  status: ('A' for Active; 'I' for Inactive)
REMARK    1  A    between atoms: C_2  and  O_3
REMARK    2  A    between atoms: C_2  and  C_4
REMARK    3  A    between atoms: C_7  and  N_8
REMARK    4  A    between atoms: C_11  and  N_12
REMARK                            x       y       z     vdW  Elec       q    Type
REMARK                         _______ _______ _______ _____ _____    ______ ____
ROOT
ATOM      1  C   UNL     1       3.333   4.360  18.303  0.00  0.00    +0.000 A 
ATOM      2  C   UNL     1       4.260   4.421  19.359  0.00  0.00    +0.000 A 
ATOM      3  C   UNL     1       5.601   4.735  19.102  0.00  0.00    +0.000 A 
ATOM      4  C   UNL     1       6.008   4.977  17.783  0.00  0.00    +0.000 A 
ATOM      5  C   UNL     1       5.092   4.911  16.737  0.00  0.00    +0.000 A 
ATOM      6  C   UNL     1       3.749   4.597  16.985  0.00  0.00    +0.000 A 
ENDROOT
BRANCH   4   7
ATOM      7  N   UNL     1       7.416   5.208  17.534  0.00  0.00    +0.000 N 
ATOM      8  O   UNL     1       8.108   4.216  17.274  0.00  0.00    +0.000 OA
ATOM      9  O   UNL     1       7.795   6.383  17.540  0.00  0.00    +0.000 OA
ENDBRANCH   4   7
BRANCH   5  10
ATOM     10  N   UNL     1       5.484   5.242  15.384  0.00  0.00    +0.000 N 
ATOM     11  O   UNL     1       5.447   6.439  15.076  0.00  0.00    +0.000 OA
ATOM     12  O   UNL     1       5.770   4.302  14.635  0.00  0.00    +0.000 OA
ENDBRANCH   5  10
BRANCH   1  14
ATOM     13  O   UNL     1       1.154   3.749  17.604  0.00  0.00    +0.000 OA
ATOM     14  C   UNL     1       1.912   3.994  18.527  0.00  0.00    +0.000 C 
BRANCH  14  15
ATOM     15  O   UNL     1       1.536   3.997  19.819  0.00  0.00    +0.000 OA
ATOM     16  H   UNL     1       2.231   3.823  20.479  0.00  0.00    +0.000 HD
ENDBRANCH  14  15
ENDBRANCH   1  14
TORSDOF 4
ENDMDL
