MODEL 1
REMARK VINA RESULT:      -7.8      0.000      0.000
REMARK  Name = 
REMARK  6 active torsions:
REMARK  status: ('A' for Active; 'I' for Inactive)
REMARK    1  A    between atoms: C_1  and  C_2
REMARK    2  A    between atoms: C_2  and  C_3
REMARK    3  A    between atoms: C_3  and  C_4
REMARK    4  A    between atoms: C_4  and  C_5
REMARK    5  A    between atoms: C_10  and  O_11
REMARK    6  A    between atoms: C_13  and  C_14
REMARK                            x       y       z     vdW  Elec       q    Type
REMARK                         _______ _______ _______ _____ _____    ______ ____
ROOT
ATOM      1  C   UNL     1       5.115   4.816  14.938  0.00  0.00    +0.000 C 
ATOM      2  C   UNL     1       5.572   6.264  15.265  0.00  0.00    +0.000 C 
ATOM      3  C   UNL     1       6.186   6.296  16.617  0.00  0.00    +0.000 A 
ATOM      4  N   UNL     1       7.045   7.229  17.032  0.00  0.00    +0.000 NA
ATOM      5  N   UNL     1       7.382   6.802  18.266  0.00  0.00    +0.000 N 
ATOM      6  C   UNL     1       6.791   5.615  18.625  0.00  0.00    +0.000 A 
ATOM      7  C   UNL     1       5.962   5.281  17.575  0.00  0.00    +0.000 A 
ATOM      8  C   UNL     1       5.120   4.093  17.264  0.00  0.00    +0.000 C 
ATOM      9  O   UNL     1       4.367   4.246  16.038  0.00  0.00    +0.000 OA
ATOM     10  H   UNL     1       8.060   7.348  18.786  0.00  0.00    +0.000 HD
ENDROOT
BRANCH   8  11
ATOM     11  C   UNL     1       4.194   3.840  18.448  0.00  0.00    +0.000 A 
ATOM     12  C   UNL     1       3.119   4.683  18.777  0.00  0.00    +0.000 A 
ATOM     13  C   UNL     1       2.307   4.398  19.884  0.00  0.00    +0.000 A 
ATOM     14  C   UNL     1       2.567   3.277  20.671  0.00  0.00    +0.000 A 
ATOM     15 CL   UNL     1       1.575   2.929  22.035  0.00  0.00    +0.000 Cl
ATOM     16  C   UNL     1       3.626   2.432  20.362  0.00  0.00    +0.000 A 
ATOM     17  C   UNL     1       4.433   2.714  19.260  0.00  0.00    +0.000 A 
ENDBRANCH   8  11
BRANCH   6  18
ATOM     18  O   UNL     1       7.056   4.979  19.759  0.00  0.00    +0.000 OA
ATOM     19  H   UNL     1       7.973   4.655  19.761  0.00  0.00    +0.000 HD
ENDBRANCH   6  18
BRANCH   1  20
ATOM     20  C   UNL     1       6.294   3.934  14.474  0.00  0.00    +0.000 C 
BRANCH  20  21
ATOM     21  C   UNL     1       6.589   3.932  12.970  0.00  0.00    +0.000 C 
BRANCH  21  23
ATOM     22  C   UNL     1       4.562   3.349  11.622  0.00  0.00    +0.000 C 
ATOM     23  C   UNL     1       5.888   2.835  12.173  0.00  0.00    +0.000 C 
ENDBRANCH  21  23
ENDBRANCH  20  21
ENDBRANCH   1  20
TORSDOF 5
ENDMDL
MODEL 2
REMARK VINA RESULT:      -7.8      0.311      1.133
REMARK  Name = 
REMARK  6 active torsions:
REMARK  status: ('A' for Active; 'I' for Inactive)
REMARK    1  A    between atoms: C_1  and  C_2
REMARK    2  A    between atoms: C_2  and  C_3
REMARK    3  A    between atoms: C_3  and  C_4
REMARK    4  A    between atoms: C_4  and  C_5
REMARK    5  A    between atoms: C_10  and  O_11
REMARK    6  A    between atoms: C_13  and  C_14
REMARK                            x       y       z     vdW  Elec       q    Type
REMARK                         _______ _______ _______ _____ _____    ______ ____
ROOT
ATOM      1  C   UNL     1       5.150   4.773  14.954  0.00  0.00    +0.000 C 
ATOM      2  C   UNL     1       5.521   6.244  15.285  0.00  0.00    +0.000 C 
ATOM      3  C   UNL     1       6.126   6.309  16.641  0.00  0.00    +0.000 A 
ATOM      4  N   UNL     1       6.927   7.289  17.061  0.00  0.00    +0.000 NA
ATOM      5  N   UNL     1       7.281   6.881  18.296  0.00  0.00    +0.000 N 
ATOM      6  C   UNL     1       6.758   5.661  18.650  0.00  0.00    +0.000 A 
ATOM      7  C   UNL     1       5.955   5.281  17.595  0.00  0.00    +0.000 A 
ATOM      8  C   UNL     1       5.185   4.047  17.278  0.00  0.00    +0.000 C 
ATOM      9  O   UNL     1       4.431   4.159  16.049  0.00  0.00    +0.000 OA
ATOM     10  H   UNL     1       7.924   7.463  18.822  0.00  0.00    +0.000 HD
ENDROOT
BRANCH   8  11
ATOM     11  C   UNL     1       4.269   3.739  18.457  0.00  0.00    +0.000 A 
ATOM     12  C   UNL     1       4.513   2.700  19.371  0.00  0.00    +0.000 A 
ATOM     13  C   UNL     1       3.627   2.465  20.432  0.00  0.00    +0.000 A 
ATOM     14  C   UNL     1       2.493   3.262  20.584  0.00  0.00    +0.000 A 
ATOM     15 CL   UNL     1       1.400   2.972  21.883  0.00  0.00    +0.000 Cl
ATOM     16  C   UNL     1       2.234   4.294  19.691  0.00  0.00    +0.000 A 
ATOM     17  C   UNL     1       3.116   4.529  18.635  0.00  0.00    +0.000 A 
ENDBRANCH   8  11
BRANCH   6  18
ATOM     18  O   UNL     1       7.053   5.039  19.785  0.00  0.00    +0.000 OA
ATOM     19  H   UNL     1       6.531   5.405  20.520  0.00  0.00    +0.000 HD
ENDBRANCH   6  18
BRANCH   1  20
ATOM     20  C   UNL     1       6.381   3.961  14.494  0.00  0.00    +0.000 C 
BRANCH  20  21
ATOM     21  C   UNL     1       6.570   3.812  12.981  0.00  0.00    +0.000 C 
BRANCH  21  23
ATOM     22  C   UNL     1       5.670   2.051  11.446  0.00  0.00    +0.000 C 
ATOM     23  C   UNL     1       5.340   3.324  12.219  0.00  0.00    +0.000 C 
ENDBRANCH  21  23
ENDBRANCH  20  21
ENDBRANCH   1  20
TORSDOF 5
ENDMDL
MODEL 3
REMARK VINA RESULT:      -7.5      0.571      1.442
REMARK  Name = 
REMARK  6 active torsions:
REMARK  status: ('A' for Active; 'I' for Inactive)
REMARK    1  A    between atoms: C_1  and  C_2
REMARK    2  A    between atoms: C_2  and  C_3
REMARK    3  A    between atoms: C_3  and  C_4
REMARK    4  A    between atoms: C_4  and  C_5
REMARK    5  A    between atoms: C_10  and  O_11
REMARK    6  A    between atoms: C_13  and  C_14
REMARK                            x       y       z     vdW  Elec       q    Type
REMARK                         _______ _______ _______ _____ _____    ______ ____
ROOT
ATOM      1  C   UNL     1       5.148   4.927  14.995  0.00  0.00    +0.000 C 
ATOM      2  C   UNL     1       5.557   6.380  15.362  0.00  0.00    +0.000 C 
ATOM      3  C   UNL     1       6.196   6.391  16.703  0.00  0.00    +0.000 A 
ATOM      4  N   UNL     1       7.027   7.341  17.134  0.00  0.00    +0.000 NA
ATOM      5  N   UNL     1       7.403   6.888  18.346  0.00  0.00    +0.000 N 
ATOM      6  C   UNL     1       6.863   5.668  18.676  0.00  0.00    +0.000 A 
ATOM      7  C   UNL     1       6.028   5.337  17.630  0.00  0.00    +0.000 A 
ATOM      8  C   UNL     1       5.225   4.128  17.295  0.00  0.00    +0.000 C 
ATOM      9  O   UNL     1       4.443   4.294  16.088  0.00  0.00    +0.000 OA
ATOM     10  H   UNL     1       8.070   7.441  18.873  0.00  0.00    +0.000 HD
ENDROOT
BRANCH   8  11
ATOM     11  C   UNL     1       4.332   3.803  18.486  0.00  0.00    +0.000 A 
ATOM     12  C   UNL     1       4.527   2.681  19.310  0.00  0.00    +0.000 A 
ATOM     13  C   UNL     1       3.666   2.434  20.388  0.00  0.00    +0.000 A 
ATOM     14  C   UNL     1       2.604   3.300  20.647  0.00  0.00    +0.000 A 
ATOM     15 CL   UNL     1       1.541   2.996  21.967  0.00  0.00    +0.000 Cl
ATOM     16  C   UNL     1       2.395   4.415  19.844  0.00  0.00    +0.000 A 
ATOM     17  C   UNL     1       3.252   4.661  18.771  0.00  0.00    +0.000 A 
ENDBRANCH   8  11
BRANCH   6  18
ATOM     18  O   UNL     1       7.174   5.005  19.783  0.00  0.00    +0.000 OA
ATOM     19  H   UNL     1       7.469   5.620  20.476  0.00  0.00    +0.000 HD
ENDBRANCH   6  18
BRANCH   1  20
ATOM     20  C   UNL     1       6.350   4.106  14.480  0.00  0.00    +0.000 C 
BRANCH  20  21
ATOM     21  C   UNL     1       6.228   3.540  13.061  0.00  0.00    +0.000 C 
BRANCH  21  23
ATOM     22  C   UNL     1       7.943   5.317  12.658  0.00  0.00    +0.000 C 
ATOM     23  C   UNL     1       7.161   4.168  12.030  0.00  0.00    +0.000 C 
ENDBRANCH  21  23
ENDBRANCH  20  21
ENDBRANCH   1  20
TORSDOF 5
ENDMDL
MODEL 4
REMARK VINA RESULT:      -7.4      3.314      4.343
REMARK  Name = 
REMARK  6 active torsions:
REMARK  status: ('A' for Active; 'I' for Inactive)
REMARK    1  A    between atoms: C_1  and  C_2
REMARK    2  A    between atoms: C_2  and  C_3
REMARK    3  A    between atoms: C_3  and  C_4
REMARK    4  A    between atoms: C_4  and  C_5
REMARK    5  A    between atoms: C_10  and  O_11
REMARK    6  A    between atoms: C_13  and  C_14
REMARK                            x       y       z     vdW  Elec       q    Type
REMARK                         _______ _______ _______ _____ _____    ______ ____
ROOT
ATOM      1  C   UNL     1       6.021   5.514  16.904  0.00  0.00    +0.000 C 
ATOM      2  C   UNL     1       5.850   4.131  17.590  0.00  0.00    +0.000 C 
ATOM      3  C   UNL     1       4.406   3.799  17.682  0.00  0.00    +0.000 A 
ATOM      4  N   UNL     1       3.924   2.561  17.806  0.00  0.00    +0.000 NA
ATOM      5  N   UNL     1       2.590   2.750  17.767  0.00  0.00    +0.000 N 
ATOM      6  C   UNL     1       2.219   4.060  17.588  0.00  0.00    +0.000 A 
ATOM      7  C   UNL     1       3.395   4.780  17.573  0.00  0.00    +0.000 A 
ATOM      8  C   UNL     1       3.725   6.210  17.320  0.00  0.00    +0.000 C 
ATOM      9  O   UNL     1       5.133   6.496  17.486  0.00  0.00    +0.000 OA
ATOM     10  H   UNL     1       1.994   1.931  17.819  0.00  0.00    +0.000 HD
ENDROOT
BRANCH   8  11
ATOM     11  C   UNL     1       2.877   7.068  18.252  0.00  0.00    +0.000 A 
ATOM     12  C   UNL     1       2.612   6.722  19.588  0.00  0.00    +0.000 A 
ATOM     13  C   UNL     1       1.819   7.552  20.392  0.00  0.00    +0.000 A 
ATOM     14  C   UNL     1       1.284   8.728  19.868  0.00  0.00    +0.000 A 
ATOM     15 CL   UNL     1       0.304   9.746  20.853  0.00  0.00    +0.000 Cl
ATOM     16  C   UNL     1       1.535   9.088  18.550  0.00  0.00    +0.000 A 
ATOM     17  C   UNL     1       2.324   8.262  17.749  0.00  0.00    +0.000 A 
ENDBRANCH   8  11
BRANCH   6  18
ATOM     18  O   UNL     1       0.960   4.450  17.434  0.00  0.00    +0.000 OA
ATOM     19  H   UNL     1       0.918   5.264  16.903  0.00  0.00    +0.000 HD
ENDBRANCH   6  18
BRANCH   1  20
ATOM     20  C   UNL     1       5.901   5.409  15.367  0.00  0.00    +0.000 C 
BRANCH  20  21
ATOM     21  C   UNL     1       6.266   4.056  14.748  0.00  0.00    +0.000 C 
BRANCH  21  23
ATOM     22  C   UNL     1       5.661   3.326  12.432  0.00  0.00    +0.000 C 
ATOM     23  C   UNL     1       6.666   4.103  13.276  0.00  0.00    +0.000 C 
ENDBRANCH  21  23
ENDBRANCH  20  21
ENDBRANCH   1  20
TORSDOF 5
ENDMDL
MODEL 5
REMARK VINA RESULT:      -7.2      3.272      4.210
REMARK  Name = 
REMARK  6 active torsions:
REMARK  status: ('A' for Active; 'I' for Inactive)
REMARK    1  A    between atoms: C_1  and  C_2
REMARK    2  A    between atoms: C_2  and  C_3
REMARK    3  A    between atoms: C_3  and  C_4
REMARK    4  A    between atoms: C_4  and  C_5
REMARK    5  A    between atoms: C_10  and  O_11
REMARK    6  A    between atoms: C_13  and  C_14
REMARK                            x       y       z     vdW  Elec       q    Type
REMARK                         _______ _______ _______ _____ _____    ______ ____
ROOT
ATOM      1  C   UNL     1       5.991   5.571  16.917  0.00  0.00    +0.000 C 
ATOM      2  C   UNL     1       5.816   4.180  17.586  0.00  0.00    +0.000 C 
ATOM      3  C   UNL     1       4.371   3.844  17.658  0.00  0.00    +0.000 A 
ATOM      4  N   UNL     1       3.891   2.604  17.762  0.00  0.00    +0.000 NA
ATOM      5  N   UNL     1       2.557   2.790  17.711  0.00  0.00    +0.000 N 
ATOM      6  C   UNL     1       2.185   4.102  17.543  0.00  0.00    +0.000 A 
ATOM      7  C   UNL     1       3.359   4.824  17.549  0.00  0.00    +0.000 A 
ATOM      8  C   UNL     1       3.689   6.258  17.316  0.00  0.00    +0.000 C 
ATOM      9  O   UNL     1       5.095   6.545  17.501  0.00  0.00    +0.000 OA
ATOM     10  H   UNL     1       1.962   1.970  17.748  0.00  0.00    +0.000 HD
ENDROOT
BRANCH   8  11
ATOM     11  C   UNL     1       2.830   7.104  18.249  0.00  0.00    +0.000 A 
ATOM     12  C   UNL     1       2.222   8.308  17.855  0.00  0.00    +0.000 A 
ATOM     13  C   UNL     1       1.447   9.042  18.763  0.00  0.00    +0.000 A 
ATOM     14  C   UNL     1       1.280   8.584  20.070  0.00  0.00    +0.000 A 
ATOM     15 CL   UNL     1       0.335   9.488  21.190  0.00  0.00    +0.000 Cl
ATOM     16  C   UNL     1       1.874   7.396  20.478  0.00  0.00    +0.000 A 
ATOM     17  C   UNL     1       2.644   6.664  19.574  0.00  0.00    +0.000 A 
ENDBRANCH   8  11
BRANCH   6  18
ATOM     18  O   UNL     1       0.926   4.492  17.380  0.00  0.00    +0.000 OA
ATOM     19  H   UNL     1       0.821   5.423  17.641  0.00  0.00    +0.000 HD
ENDBRANCH   6  18
BRANCH   1  20
ATOM     20  C   UNL     1       5.888   5.484  15.378  0.00  0.00    +0.000 C 
BRANCH  20  21
ATOM     21  C   UNL     1       6.107   4.098  14.761  0.00  0.00    +0.000 C 
BRANCH  21  23
ATOM     22  C   UNL     1       5.741   3.284  12.422  0.00  0.00    +0.000 C 
ATOM     23  C   UNL     1       6.649   4.103  13.334  0.00  0.00    +0.000 C 
ENDBRANCH  21  23
ENDBRANCH  20  21
ENDBRANCH   1  20
TORSDOF 5
ENDMDL
MODEL 6
REMARK VINA RESULT:      -7.2      3.821      5.377
REMARK  Name = 
REMARK  6 active torsions:
REMARK  status: ('A' for Active; 'I' for Inactive)
REMARK    1  A    between atoms: C_1  and  C_2
REMARK    2  A    between atoms: C_2  and  C_3
REMARK    3  A    between atoms: C_3  and  C_4
REMARK    4  A    between atoms: C_4  and  C_5
REMARK    5  A    between atoms: C_10  and  O_11
REMARK    6  A    between atoms: C_13  and  C_14
REMARK                            x       y       z     vdW  Elec       q    Type
REMARK                         _______ _______ _______ _____ _____    ______ ____
ROOT
ATOM      1  C   UNL     1       5.566   4.398  19.130  0.00  0.00    +0.000 C 
ATOM      2  C   UNL     1       4.688   3.230  19.657  0.00  0.00    +0.000 C 
ATOM      3  C   UNL     1       3.347   3.292  19.020  0.00  0.00    +0.000 A 
ATOM      4  N   UNL     1       2.521   2.252  18.903  0.00  0.00    +0.000 NA
ATOM      5  N   UNL     1       1.489   2.763  18.202  0.00  0.00    +0.000 N 
ATOM      6  C   UNL     1       1.656   4.079  17.846  0.00  0.00    +0.000 A 
ATOM      7  C   UNL     1       2.852   4.467  18.411  0.00  0.00    +0.000 A 
ATOM      8  C   UNL     1       3.672   5.709  18.339  0.00  0.00    +0.000 C 
ATOM      9  O   UNL     1       4.847   5.653  19.181  0.00  0.00    +0.000 OA
ATOM     10  H   UNL     1       0.726   2.140  17.960  0.00  0.00    +0.000 HD
ENDROOT
BRANCH   8  11
ATOM     11  C   UNL     1       2.783   6.890  18.715  0.00  0.00    +0.000 A 
ATOM     12  C   UNL     1       2.453   7.920  17.819  0.00  0.00    +0.000 A 
ATOM     13  C   UNL     1       1.635   8.982  18.229  0.00  0.00    +0.000 A 
ATOM     14  C   UNL     1       1.147   9.025  19.535  0.00  0.00    +0.000 A 
ATOM     15 CL   UNL     1       0.148  10.332  20.043  0.00  0.00    +0.000 Cl
ATOM     16  C   UNL     1       1.464   8.015  20.436  0.00  0.00    +0.000 A 
ATOM     17  C   UNL     1       2.277   6.957  20.028  0.00  0.00    +0.000 A 
ENDBRANCH   8  11
BRANCH   6  18
ATOM     18  O   UNL     1       0.800   4.745  17.081  0.00  0.00    +0.000 OA
ATOM     19  H   UNL     1       0.051   5.070  17.610  0.00  0.00    +0.000 HD
ENDBRANCH   6  18
BRANCH   1  20
ATOM     20  C   UNL     1       6.161   4.086  17.739  0.00  0.00    +0.000 C 
BRANCH  20  21
ATOM     21  C   UNL     1       7.422   4.865  17.351  0.00  0.00    +0.000 C 
BRANCH  21  23
ATOM     22  C   UNL     1       7.641   7.325  17.753  0.00  0.00    +0.000 C 
ATOM     23  C   UNL     1       7.173   6.255  16.772  0.00  0.00    +0.000 C 
ENDBRANCH  21  23
ENDBRANCH  20  21
ENDBRANCH   1  20
TORSDOF 5
ENDMDL
MODEL 7
REMARK VINA RESULT:      -7.2      3.839      5.450
REMARK  Name = 
REMARK  6 active torsions:
REMARK  status: ('A' for Active; 'I' for Inactive)
REMARK    1  A    between atoms: C_1  and  C_2
REMARK    2  A    between atoms: C_2  and  C_3
REMARK    3  A    between atoms: C_3  and  C_4
REMARK    4  A    between atoms: C_4  and  C_5
REMARK    5  A    between atoms: C_10  and  O_11
REMARK    6  A    between atoms: C_13  and  C_14
REMARK                            x       y       z     vdW  Elec       q    Type
REMARK                         _______ _______ _______ _____ _____    ______ ____
ROOT
ATOM      1  C   UNL     1       5.587   4.410  19.124  0.00  0.00    +0.000 C 
ATOM      2  C   UNL     1       4.720   3.232  19.648  0.00  0.00    +0.000 C 
ATOM      3  C   UNL     1       3.373   3.293  19.024  0.00  0.00    +0.000 A 
ATOM      4  N   UNL     1       2.551   2.250  18.904  0.00  0.00    +0.000 NA
ATOM      5  N   UNL     1       1.510   2.762  18.218  0.00  0.00    +0.000 N 
ATOM      6  C   UNL     1       1.667   4.083  17.873  0.00  0.00    +0.000 A 
ATOM      7  C   UNL     1       2.867   4.471  18.431  0.00  0.00    +0.000 A 
ATOM      8  C   UNL     1       3.679   5.718  18.363  0.00  0.00    +0.000 C 
ATOM      9  O   UNL     1       4.862   5.660  19.194  0.00  0.00    +0.000 OA
ATOM     10  H   UNL     1       0.748   2.138  17.978  0.00  0.00    +0.000 HD
ENDROOT
BRANCH   8  11
ATOM     11  C   UNL     1       2.788   6.890  18.758  0.00  0.00    +0.000 A 
ATOM     12  C   UNL     1       2.220   7.028  20.036  0.00  0.00    +0.000 A 
ATOM     13  C   UNL     1       1.404   8.128  20.335  0.00  0.00    +0.000 A 
ATOM     14  C   UNL     1       1.147   9.093  19.361  0.00  0.00    +0.000 A 
ATOM     15 CL   UNL     1       0.140  10.441  19.724  0.00  0.00    +0.000 Cl
ATOM     16  C   UNL     1       1.700   8.974  18.092  0.00  0.00    +0.000 A 
ATOM     17  C   UNL     1       2.513   7.880  17.794  0.00  0.00    +0.000 A 
ENDBRANCH   8  11
BRANCH   6  18
ATOM     18  O   UNL     1       0.801   4.751  17.122  0.00  0.00    +0.000 OA
ATOM     19  H   UNL     1       0.889   5.708  17.272  0.00  0.00    +0.000 HD
ENDBRANCH   6  18
BRANCH   1  20
ATOM     20  C   UNL     1       6.171   4.114  17.725  0.00  0.00    +0.000 C 
BRANCH  20  21
ATOM     21  C   UNL     1       7.432   4.893  17.337  0.00  0.00    +0.000 C 
BRANCH  21  23
ATOM     22  C   UNL     1       7.687   7.337  17.811  0.00  0.00    +0.000 C 
ATOM     23  C   UNL     1       7.186   6.303  16.808  0.00  0.00    +0.000 C 
ENDBRANCH  21  23
ENDBRANCH  20  21
ENDBRANCH   1  20
TORSDOF 5
ENDMDL
MODEL 8
REMARK VINA RESULT:      -7.1      3.599      4.939
REMARK  Name = 
REMARK  6 active torsions:
REMARK  status: ('A' for Active; 'I' for Inactive)
REMARK    1  A    between atoms: C_1  and  C_2
REMARK    2  A    between atoms: C_2  and  C_3
REMARK    3  A    between atoms: C_3  and  C_4
REMARK    4  A    between atoms: C_4  and  C_5
REMARK    5  A    between atoms: C_10  and  O_11
REMARK    6  A    between atoms: C_13  and  C_14
REMARK                            x       y       z     vdW  Elec       q    Type
REMARK                         _______ _______ _______ _____ _____    ______ ____
ROOT
ATOM      1  C   UNL     1       5.701   4.447  18.668  0.00  0.00    +0.000 C 
ATOM      2  C   UNL     1       4.907   3.305  19.359  0.00  0.00    +0.000 C 
ATOM      3  C   UNL     1       3.502   3.316  18.875  0.00  0.00    +0.000 A 
ATOM      4  N   UNL     1       2.685   2.263  18.913  0.00  0.00    +0.000 NA
ATOM      5  N   UNL     1       1.573   2.721  18.305  0.00  0.00    +0.000 N 
ATOM      6  C   UNL     1       1.678   4.015  17.856  0.00  0.00    +0.000 A 
ATOM      7  C   UNL     1       2.923   4.448  18.258  0.00  0.00    +0.000 A 
ATOM      8  C   UNL     1       3.710   5.690  18.020  0.00  0.00    +0.000 C 
ATOM      9  O   UNL     1       4.973   5.696  18.726  0.00  0.00    +0.000 OA
ATOM     10  H   UNL     1       0.797   2.078  18.188  0.00  0.00    +0.000 HD
ENDROOT
BRANCH   8  11
ATOM     11  C   UNL     1       2.851   6.883  18.424  0.00  0.00    +0.000 A 
ATOM     12  C   UNL     1       2.503   7.916  17.538  0.00  0.00    +0.000 A 
ATOM     13  C   UNL     1       1.714   8.990  17.973  0.00  0.00    +0.000 A 
ATOM     14  C   UNL     1       1.272   9.041  19.295  0.00  0.00    +0.000 A 
ATOM     15 CL   UNL     1       0.309  10.362  19.835  0.00  0.00    +0.000 Cl
ATOM     16  C   UNL     1       1.606   8.029  20.187  0.00  0.00    +0.000 A 
ATOM     17  C   UNL     1       2.391   6.960  19.754  0.00  0.00    +0.000 A 
ENDBRANCH   8  11
BRANCH   6  18
ATOM     18  O   UNL     1       0.731   4.626  17.154  0.00  0.00    +0.000 OA
ATOM     19  H   UNL     1      -0.111   4.144  17.225  0.00  0.00    +0.000 HD
ENDBRANCH   6  18
BRANCH   1  20
ATOM     20  C   UNL     1       6.141   4.057  17.240  0.00  0.00    +0.000 C 
BRANCH  20  21
ATOM     21  C   UNL     1       7.098   5.026  16.536  0.00  0.00    +0.000 C 
BRANCH  21  23
ATOM     22  C   UNL     1       5.988   4.002  14.540  0.00  0.00    +0.000 C 
ATOM     23  C   UNL     1       7.047   4.994  15.011  0.00  0.00    +0.000 C 
ENDBRANCH  21  23
ENDBRANCH  20  21
ENDBRANCH   1  20
TORSDOF 5
ENDMDL
MODEL 9
REMARK VINA RESULT:      -7.0      3.644      5.098
REMARK  Name = 
REMARK  6 active torsions:
REMARK  status: ('A' for Active; 'I' for Inactive)
REMARK    1  A    between atoms: C_1  and  C_2
REMARK    2  A    between atoms: C_2  and  C_3
REMARK    3  A    between atoms: C_3  and  C_4
REMARK    4  A    between atoms: C_4  and  C_5
REMARK    5  A    between atoms: C_10  and  O_11
REMARK    6  A    between atoms: C_13  and  C_14
REMARK                            x       y       z     vdW  Elec       q    Type
REMARK                         _______ _______ _______ _____ _____    ______ ____
ROOT
ATOM      1  C   UNL     1       5.639   4.359  18.900  0.00  0.00    +0.000 C 
ATOM      2  C   UNL     1       4.788   3.220  19.524  0.00  0.00    +0.000 C 
ATOM      3  C   UNL     1       3.410   3.272  18.972  0.00  0.00    +0.000 A 
ATOM      4  N   UNL     1       2.570   2.235  18.945  0.00  0.00    +0.000 NA
ATOM      5  N   UNL     1       1.499   2.730  18.293  0.00  0.00    +0.000 N 
ATOM      6  C   UNL     1       1.653   4.031  17.879  0.00  0.00    +0.000 A 
ATOM      7  C   UNL     1       2.886   4.428  18.352  0.00  0.00    +0.000 A 
ATOM      8  C   UNL     1       3.708   5.659  18.182  0.00  0.00    +0.000 C 
ATOM      9  O   UNL     1       4.933   5.622  18.950  0.00  0.00    +0.000 OA
ATOM     10  H   UNL     1       0.718   2.107  18.123  0.00  0.00    +0.000 HD
ENDROOT
BRANCH   8  11
ATOM     11  C   UNL     1       2.854   6.861  18.570  0.00  0.00    +0.000 A 
ATOM     12  C   UNL     1       2.300   7.030  19.850  0.00  0.00    +0.000 A 
ATOM     13  C   UNL     1       1.518   8.156  20.142  0.00  0.00    +0.000 A 
ATOM     14  C   UNL     1       1.280   9.116  19.158  0.00  0.00    +0.000 A 
ATOM     15 CL   UNL     1       0.315  10.497  19.512  0.00  0.00    +0.000 Cl
ATOM     16  C   UNL     1       1.819   8.965  17.886  0.00  0.00    +0.000 A 
ATOM     17  C   UNL     1       2.598   7.845  17.596  0.00  0.00    +0.000 A 
ENDBRANCH   8  11
BRANCH   6  18
ATOM     18  O   UNL     1       0.755   4.677  17.146  0.00  0.00    +0.000 OA
ATOM     19  H   UNL     1       1.193   5.190  16.445  0.00  0.00    +0.000 HD
ENDBRANCH   6  18
BRANCH   1  20
ATOM     20  C   UNL     1       6.141   3.991  17.486  0.00  0.00    +0.000 C 
BRANCH  20  21
ATOM     21  C   UNL     1       7.137   4.964  16.846  0.00  0.00    +0.000 C 
BRANCH  21  23
ATOM     22  C   UNL     1       5.589   4.693  14.898  0.00  0.00    +0.000 C 
ATOM     23  C   UNL     1       6.968   5.169  15.343  0.00  0.00    +0.000 C 
ENDBRANCH  21  23
ENDBRANCH  20  21
ENDBRANCH   1  20
TORSDOF 5
ENDMDL
