MODEL 1
REMARK VINA RESULT:      -7.5      0.000      0.000
REMARK  Name = 
REMARK  5 active torsions:
REMARK  status: ('A' for Active; 'I' for Inactive)
REMARK    1  A    between atoms: C_1  and  N_2
REMARK    2  A    between atoms: N_2  and  C_3
REMARK    3  A    between atoms: N_2  and  C_4
REMARK    4  A    between atoms: C_9  and  N_10
REMARK    5  A    between atoms: C_17  and  C_18
REMARK                            x       y       z     vdW  Elec       q    Type
REMARK                         _______ _______ _______ _____ _____    ______ ____
ROOT
ATOM      1  N   UNL     1       1.435   9.812  18.262  0.00  0.00    +0.000 N 
ATOM      2  C   UNL     1       1.471   8.929  19.293  0.00  0.00    +0.000 A 
ATOM      3  N   UNL     1       0.858   9.011  20.460  0.00  0.00    +0.000 NA
ATOM      4  C   UNL     1       1.135   7.841  21.113  0.00  0.00    +0.000 A 
ATOM      5  C   UNL     1       1.945   7.033  20.352  0.00  0.00    +0.000 A 
ATOM      6  C   UNL     1       2.509   5.753  20.485  0.00  0.00    +0.000 A 
ATOM      7  C   UNL     1       3.294   5.291  19.504  0.00  0.00    +0.000 A 
ATOM      8  C   UNL     1       3.568   6.189  18.337  0.00  0.00    +0.000 A 
ATOM      9  N   UNL     1       3.022   7.362  18.175  0.00  0.00    +0.000 NA
ATOM     10  N   UNL     1       2.194   7.743  19.199  0.00  0.00    +0.000 N 
ATOM     11  H   UNL     1       1.998   9.608  17.440  0.00  0.00    +0.000 HD
ENDROOT
BRANCH   8  12
ATOM     12  C   UNL     1       4.520   5.686  17.301  0.00  0.00    +0.000 A 
ATOM     13  C   UNL     1       5.707   6.385  17.056  0.00  0.00    +0.000 A 
ATOM     14  F   UNL     1       5.978   7.541  17.681  0.00  0.00    +0.000 F 
ATOM     15  C   UNL     1       6.647   5.923  16.132  0.00  0.00    +0.000 A 
ATOM     16  C   UNL     1       6.412   4.745  15.426  0.00  0.00    +0.000 A 
ATOM     17  C   UNL     1       5.235   4.037  15.652  0.00  0.00    +0.000 A 
ATOM     18  C   UNL     1       4.307   4.501  16.587  0.00  0.00    +0.000 A 
ATOM     19  F   UNL     1       3.216   3.747  16.791  0.00  0.00    +0.000 F 
ENDBRANCH   8  12
BRANCH   1  25
ATOM     20  C   UNL     1      -0.110  11.745  18.448  0.00  0.00    +0.000 A 
ATOM     21  C   UNL     1      -0.224  13.148  18.493  0.00  0.00    +0.000 A 
ATOM     22  C   UNL     1       0.909  13.944  18.511  0.00  0.00    +0.000 A 
ATOM     23  N   UNL     1       2.160  13.459  18.492  0.00  0.00    +0.000 NA
ATOM     24  C   UNL     1       2.267  12.110  18.459  0.00  0.00    +0.000 A 
ATOM     25  C   UNL     1       1.196  11.200  18.415  0.00  0.00    +0.000 A 
BRANCH  20  27
ATOM     26  C   UNL     1      -1.676  10.149  17.388  0.00  0.00    +0.000 C 
ATOM     27  N   UNL     1      -1.308  11.010  18.505  0.00  0.00    +0.000 N 
ATOM     28  C   UNL     1      -2.408  11.660  19.210  0.00  0.00    +0.000 C 
ENDBRANCH  20  27
ENDBRANCH   1  25
TORSDOF 3
ENDMDL
MODEL 2
REMARK VINA RESULT:      -7.5      0.067      1.595
REMARK  Name = 
REMARK  5 active torsions:
REMARK  status: ('A' for Active; 'I' for Inactive)
REMARK    1  A    between atoms: C_1  and  N_2
REMARK    2  A    between atoms: N_2  and  C_3
REMARK    3  A    between atoms: N_2  and  C_4
REMARK    4  A    between atoms: C_9  and  N_10
REMARK    5  A    between atoms: C_17  and  C_18
REMARK                            x       y       z     vdW  Elec       q    Type
REMARK                         _______ _______ _______ _____ _____    ______ ____
ROOT
ATOM      1  N   UNL     1       1.488   9.798  18.266  0.00  0.00    +0.000 N 
ATOM      2  C   UNL     1       1.500   8.913  19.295  0.00  0.00    +0.000 A 
ATOM      3  N   UNL     1       0.862   8.992  20.449  0.00  0.00    +0.000 NA
ATOM      4  C   UNL     1       1.125   7.820  21.105  0.00  0.00    +0.000 A 
ATOM      5  C   UNL     1       1.952   7.014  20.360  0.00  0.00    +0.000 A 
ATOM      6  C   UNL     1       2.514   5.734  20.502  0.00  0.00    +0.000 A 
ATOM      7  C   UNL     1       3.321   5.276  19.538  0.00  0.00    +0.000 A 
ATOM      8  C   UNL     1       3.621   6.177  18.379  0.00  0.00    +0.000 A 
ATOM      9  N   UNL     1       3.077   7.349  18.208  0.00  0.00    +0.000 NA
ATOM     10  N   UNL     1       2.226   7.728  19.214  0.00  0.00    +0.000 N 
ATOM     11  H   UNL     1       2.069   9.597  17.456  0.00  0.00    +0.000 HD
ENDROOT
BRANCH   8  12
ATOM     12  C   UNL     1       4.596   5.677  17.364  0.00  0.00    +0.000 A 
ATOM     13  C   UNL     1       4.300   4.522  16.632  0.00  0.00    +0.000 A 
ATOM     14  F   UNL     1       3.189   3.810  16.871  0.00  0.00    +0.000 F 
ATOM     15  C   UNL     1       5.161   4.049  15.639  0.00  0.00    +0.000 A 
ATOM     16  C   UNL     1       6.347   4.724  15.362  0.00  0.00    +0.000 A 
ATOM     17  C   UNL     1       6.663   5.872  16.083  0.00  0.00    +0.000 A 
ATOM     18  C   UNL     1       5.790   6.346  17.065  0.00  0.00    +0.000 A 
ATOM     19  F   UNL     1       6.131   7.482  17.690  0.00  0.00    +0.000 F 
ENDBRANCH   8  12
BRANCH   1  25
ATOM     20  C   UNL     1      -0.064  11.726  18.451  0.00  0.00    +0.000 A 
ATOM     21  C   UNL     1      -0.183  13.129  18.494  0.00  0.00    +0.000 A 
ATOM     22  C   UNL     1       0.948  13.929  18.510  0.00  0.00    +0.000 A 
ATOM     23  N   UNL     1       2.201  13.448  18.490  0.00  0.00    +0.000 NA
ATOM     24  C   UNL     1       2.312  12.099  18.458  0.00  0.00    +0.000 A 
ATOM     25  C   UNL     1       1.244  11.186  18.417  0.00  0.00    +0.000 A 
BRANCH  20  27
ATOM     26  C   UNL     1      -1.648  10.157  17.377  0.00  0.00    +0.000 C 
ATOM     27  N   UNL     1      -1.259  10.988  18.511  0.00  0.00    +0.000 N 
ATOM     28  C   UNL     1      -2.347  11.615  19.255  0.00  0.00    +0.000 C 
ENDBRANCH  20  27
ENDBRANCH   1  25
TORSDOF 3
ENDMDL
MODEL 3
REMARK VINA RESULT:      -7.2      2.655      7.569
REMARK  Name = 
REMARK  5 active torsions:
REMARK  status: ('A' for Active; 'I' for Inactive)
REMARK    1  A    between atoms: C_1  and  N_2
REMARK    2  A    between atoms: N_2  and  C_3
REMARK    3  A    between atoms: N_2  and  C_4
REMARK    4  A    between atoms: C_9  and  N_10
REMARK    5  A    between atoms: C_17  and  C_18
REMARK                            x       y       z     vdW  Elec       q    Type
REMARK                         _______ _______ _______ _____ _____    ______ ____
ROOT
ATOM      1  N   UNL     1       4.799   6.205  18.010  0.00  0.00    +0.000 N 
ATOM      2  C   UNL     1       3.936   5.542  18.822  0.00  0.00    +0.000 A 
ATOM      3  N   UNL     1       3.935   4.259  19.140  0.00  0.00    +0.000 NA
ATOM      4  C   UNL     1       2.927   4.099  20.053  0.00  0.00    +0.000 A 
ATOM      5  C   UNL     1       2.283   5.290  20.287  0.00  0.00    +0.000 A 
ATOM      6  C   UNL     1       1.233   5.726  21.114  0.00  0.00    +0.000 A 
ATOM      7  C   UNL     1       0.854   7.008  21.047  0.00  0.00    +0.000 A 
ATOM      8  C   UNL     1       1.539   7.898  20.056  0.00  0.00    +0.000 A 
ATOM      9  N   UNL     1       2.542   7.524  19.312  0.00  0.00    +0.000 NA
ATOM     10  N   UNL     1       2.902   6.210  19.471  0.00  0.00    +0.000 N 
ATOM     11  H   UNL     1       4.634   7.194  17.845  0.00  0.00    +0.000 HD
ENDROOT
BRANCH   8  12
ATOM     12  C   UNL     1       1.035   9.299  19.938  0.00  0.00    +0.000 A 
ATOM     13  C   UNL     1       0.997  10.117  21.073  0.00  0.00    +0.000 A 
ATOM     14  F   UNL     1       1.338   9.649  22.282  0.00  0.00    +0.000 F 
ATOM     15  C   UNL     1       0.579  11.448  20.996  0.00  0.00    +0.000 A 
ATOM     16  C   UNL     1       0.183  11.988  19.775  0.00  0.00    +0.000 A 
ATOM     17  C   UNL     1       0.208  11.189  18.636  0.00  0.00    +0.000 A 
ATOM     18  C   UNL     1       0.640   9.863  18.719  0.00  0.00    +0.000 A 
ATOM     19  F   UNL     1       0.684   9.162  17.576  0.00  0.00    +0.000 F 
ENDBRANCH   8  12
BRANCH   1  25
ATOM     20  C   UNL     1       6.904   5.777  16.768  0.00  0.00    +0.000 A 
ATOM     21  C   UNL     1       7.485   5.216  15.614  0.00  0.00    +0.000 A 
ATOM     22  C   UNL     1       6.709   4.513  14.707  0.00  0.00    +0.000 A 
ATOM     23  N   UNL     1       5.389   4.316  14.853  0.00  0.00    +0.000 NA
ATOM     24  C   UNL     1       4.834   4.849  15.968  0.00  0.00    +0.000 A 
ATOM     25  C   UNL     1       5.511   5.597  16.946  0.00  0.00    +0.000 A 
BRANCH  20  27
ATOM     26  C   UNL     1       7.979   5.835  18.995  0.00  0.00    +0.000 C 
ATOM     27  N   UNL     1       7.775   6.410  17.671  0.00  0.00    +0.000 N 
ATOM     28  C   UNL     1       7.816   7.867  17.587  0.00  0.00    +0.000 C 
ENDBRANCH  20  27
ENDBRANCH   1  25
TORSDOF 3
ENDMDL
MODEL 4
REMARK VINA RESULT:      -7.2      2.657      7.629
REMARK  Name = 
REMARK  5 active torsions:
REMARK  status: ('A' for Active; 'I' for Inactive)
REMARK    1  A    between atoms: C_1  and  N_2
REMARK    2  A    between atoms: N_2  and  C_3
REMARK    3  A    between atoms: N_2  and  C_4
REMARK    4  A    between atoms: C_9  and  N_10
REMARK    5  A    between atoms: C_17  and  C_18
REMARK                            x       y       z     vdW  Elec       q    Type
REMARK                         _______ _______ _______ _____ _____    ______ ____
ROOT
ATOM      1  N   UNL     1       4.797   6.198  18.009  0.00  0.00    +0.000 N 
ATOM      2  C   UNL     1       3.919   5.526  18.797  0.00  0.00    +0.000 A 
ATOM      3  N   UNL     1       3.899   4.236  19.082  0.00  0.00    +0.000 NA
ATOM      4  C   UNL     1       2.881   4.066  19.982  0.00  0.00    +0.000 A 
ATOM      5  C   UNL     1       2.251   5.258  20.242  0.00  0.00    +0.000 A 
ATOM      6  C   UNL     1       1.200   5.687  21.070  0.00  0.00    +0.000 A 
ATOM      7  C   UNL     1       0.837   6.975  21.034  0.00  0.00    +0.000 A 
ATOM      8  C   UNL     1       1.543   7.881  20.071  0.00  0.00    +0.000 A 
ATOM      9  N   UNL     1       2.547   7.513  19.326  0.00  0.00    +0.000 NA
ATOM     10  N   UNL     1       2.889   6.191  19.455  0.00  0.00    +0.000 N 
ATOM     11  H   UNL     1       4.646   7.194  17.869  0.00  0.00    +0.000 HD
ENDROOT
BRANCH   8  12
ATOM     12  C   UNL     1       1.057   9.291  19.985  0.00  0.00    +0.000 A 
ATOM     13  C   UNL     1       0.662   9.811  18.748  0.00  0.00    +0.000 A 
ATOM     14  F   UNL     1       0.776   9.093  17.621  0.00  0.00    +0.000 F 
ATOM     15  C   UNL     1       0.156  11.108  18.632  0.00  0.00    +0.000 A 
ATOM     16  C   UNL     1       0.040  11.917  19.760  0.00  0.00    +0.000 A 
ATOM     17  C   UNL     1       0.433  11.421  20.999  0.00  0.00    +0.000 A 
ATOM     18  C   UNL     1       0.926  10.118  21.108  0.00  0.00    +0.000 A 
ATOM     19  F   UNL     1       1.243   9.686  22.337  0.00  0.00    +0.000 F 
ENDBRANCH   8  12
BRANCH   1  25
ATOM     20  C   UNL     1       6.903   5.793  16.761  0.00  0.00    +0.000 A 
ATOM     21  C   UNL     1       7.486   5.251  15.599  0.00  0.00    +0.000 A 
ATOM     22  C   UNL     1       6.710   4.563  14.680  0.00  0.00    +0.000 A 
ATOM     23  N   UNL     1       5.391   4.361  14.822  0.00  0.00    +0.000 NA
ATOM     24  C   UNL     1       4.835   4.875  15.946  0.00  0.00    +0.000 A 
ATOM     25  C   UNL     1       5.511   5.609  16.936  0.00  0.00    +0.000 A 
BRANCH  20  27
ATOM     26  C   UNL     1       7.962   5.829  18.997  0.00  0.00    +0.000 C 
ATOM     27  N   UNL     1       7.774   6.413  17.675  0.00  0.00    +0.000 N 
ATOM     28  C   UNL     1       7.829   7.870  17.599  0.00  0.00    +0.000 C 
ENDBRANCH  20  27
ENDBRANCH   1  25
TORSDOF 3
ENDMDL
MODEL 5
REMARK VINA RESULT:      -6.9      2.534      4.247
REMARK  Name = 
REMARK  5 active torsions:
REMARK  status: ('A' for Active; 'I' for Inactive)
REMARK    1  A    between atoms: C_1  and  N_2
REMARK    2  A    between atoms: N_2  and  C_3
REMARK    3  A    between atoms: N_2  and  C_4
REMARK    4  A    between atoms: C_9  and  N_10
REMARK    5  A    between atoms: C_17  and  C_18
REMARK                            x       y       z     vdW  Elec       q    Type
REMARK                         _______ _______ _______ _____ _____    ______ ____
ROOT
ATOM      1  N   UNL     1      -0.010   9.719  19.822  0.00  0.00    +0.000 N 
ATOM      2  C   UNL     1       1.045   9.632  18.973  0.00  0.00    +0.000 A 
ATOM      3  N   UNL     1       1.598  10.593  18.254  0.00  0.00    +0.000 NA
ATOM      4  C   UNL     1       2.678  10.025  17.635  0.00  0.00    +0.000 A 
ATOM      5  C   UNL     1       2.785   8.694  17.955  0.00  0.00    +0.000 A 
ATOM      6  C   UNL     1       3.676   7.649  17.654  0.00  0.00    +0.000 A 
ATOM      7  C   UNL     1       3.430   6.432  18.152  0.00  0.00    +0.000 A 
ATOM      8  C   UNL     1       2.187   6.238  18.967  0.00  0.00    +0.000 A 
ATOM      9  N   UNL     1       1.372   7.202  19.293  0.00  0.00    +0.000 NA
ATOM     10  N   UNL     1       1.717   8.427  18.783  0.00  0.00    +0.000 N 
ATOM     11  H   UNL     1      -0.331   8.866  20.274  0.00  0.00    +0.000 HD
ENDROOT
BRANCH   8  12
ATOM     12  C   UNL     1       1.890   4.851  19.434  0.00  0.00    +0.000 A 
ATOM     13  C   UNL     1       1.462   3.889  18.512  0.00  0.00    +0.000 A 
ATOM     14  F   UNL     1       1.243   4.203  17.227  0.00  0.00    +0.000 F 
ATOM     15  C   UNL     1       1.221   2.568  18.898  0.00  0.00    +0.000 A 
ATOM     16  C   UNL     1       1.399   2.184  20.225  0.00  0.00    +0.000 A 
ATOM     17  C   UNL     1       1.819   3.126  21.158  0.00  0.00    +0.000 A 
ATOM     18  C   UNL     1       2.070   4.442  20.761  0.00  0.00    +0.000 A 
ATOM     19  F   UNL     1       2.517   5.289  21.700  0.00  0.00    +0.000 F 
ENDBRANCH   8  12
BRANCH   1  25
ATOM     20  C   UNL     1      -1.365  11.574  20.759  0.00  0.00    +0.000 A 
ATOM     21  C   UNL     1      -2.481  12.415  20.574  0.00  0.00    +0.000 A 
ATOM     22  C   UNL     1      -3.213  12.361  19.399  0.00  0.00    +0.000 A 
ATOM     23  N   UNL     1      -2.926  11.536  18.380  0.00  0.00    +0.000 NA
ATOM     24  C   UNL     1      -1.847  10.736  18.557  0.00  0.00    +0.000 A 
ATOM     25  C   UNL     1      -1.042  10.683  19.708  0.00  0.00    +0.000 A 
BRANCH  20  27
ATOM     26  C   UNL     1      -0.816  10.798  23.043  0.00  0.00    +0.000 C 
ATOM     27  N   UNL     1      -0.636  11.744  21.949  0.00  0.00    +0.000 N 
ATOM     28  C   UNL     1      -0.371  13.129  22.330  0.00  0.00    +0.000 C 
ENDBRANCH  20  27
ENDBRANCH   1  25
TORSDOF 3
ENDMDL
MODEL 6
REMARK VINA RESULT:      -6.8      2.491      4.097
REMARK  Name = 
REMARK  5 active torsions:
REMARK  status: ('A' for Active; 'I' for Inactive)
REMARK    1  A    between atoms: C_1  and  N_2
REMARK    2  A    between atoms: N_2  and  C_3
REMARK    3  A    between atoms: N_2  and  C_4
REMARK    4  A    between atoms: C_9  and  N_10
REMARK    5  A    between atoms: C_17  and  C_18
REMARK                            x       y       z     vdW  Elec       q    Type
REMARK                         _______ _______ _______ _____ _____    ______ ____
ROOT
ATOM      1  N   UNL     1       0.001   9.668  19.742  0.00  0.00    +0.000 N 
ATOM      2  C   UNL     1       1.065   9.581  18.904  0.00  0.00    +0.000 A 
ATOM      3  N   UNL     1       1.617  10.539  18.181  0.00  0.00    +0.000 NA
ATOM      4  C   UNL     1       2.708   9.974  17.578  0.00  0.00    +0.000 A 
ATOM      5  C   UNL     1       2.823   8.647  17.913  0.00  0.00    +0.000 A 
ATOM      6  C   UNL     1       3.725   7.607  17.631  0.00  0.00    +0.000 A 
ATOM      7  C   UNL     1       3.485   6.393  18.140  0.00  0.00    +0.000 A 
ATOM      8  C   UNL     1       2.236   6.197  18.945  0.00  0.00    +0.000 A 
ATOM      9  N   UNL     1       1.410   7.157  19.253  0.00  0.00    +0.000 NA
ATOM     10  N   UNL     1       1.749   8.380  18.734  0.00  0.00    +0.000 N 
ATOM     11  H   UNL     1      -0.317   8.817  20.200  0.00  0.00    +0.000 HD
ENDROOT
BRANCH   8  12
ATOM     12  C   UNL     1       1.945   4.812  19.423  0.00  0.00    +0.000 A 
ATOM     13  C   UNL     1       2.085   4.507  20.781  0.00  0.00    +0.000 A 
ATOM     14  F   UNL     1       2.544   5.414  21.656  0.00  0.00    +0.000 F 
ATOM     15  C   UNL     1       1.776   3.239  21.278  0.00  0.00    +0.000 A 
ATOM     16  C   UNL     1       1.324   2.242  20.417  0.00  0.00    +0.000 A 
ATOM     17  C   UNL     1       1.184   2.523  19.061  0.00  0.00    +0.000 A 
ATOM     18  C   UNL     1       1.482   3.798  18.575  0.00  0.00    +0.000 A 
ATOM     19  F   UNL     1       1.281   4.017  17.268  0.00  0.00    +0.000 F 
ENDBRANCH   8  12
BRANCH   1  25
ATOM     20  C   UNL     1      -1.348  11.553  20.629  0.00  0.00    +0.000 A 
ATOM     21  C   UNL     1      -2.470  12.380  20.430  0.00  0.00    +0.000 A 
ATOM     22  C   UNL     1      -3.223  12.276  19.271  0.00  0.00    +0.000 A 
ATOM     23  N   UNL     1      -2.949  11.413  18.281  0.00  0.00    +0.000 NA
ATOM     24  C   UNL     1      -1.863  10.626  18.470  0.00  0.00    +0.000 A 
ATOM     25  C   UNL     1      -1.038  10.622  19.608  0.00  0.00    +0.000 A 
BRANCH  20  27
ATOM     26  C   UNL     1      -0.940  11.049  23.017  0.00  0.00    +0.000 C 
ATOM     27  N   UNL     1      -0.599  11.773  21.798  0.00  0.00    +0.000 N 
ATOM     28  C   UNL     1      -0.096  13.132  21.974  0.00  0.00    +0.000 C 
ENDBRANCH  20  27
ENDBRANCH   1  25
TORSDOF 3
ENDMDL
MODEL 7
REMARK VINA RESULT:      -6.8      2.516      7.667
REMARK  Name = 
REMARK  5 active torsions:
REMARK  status: ('A' for Active; 'I' for Inactive)
REMARK    1  A    between atoms: C_1  and  N_2
REMARK    2  A    between atoms: N_2  and  C_3
REMARK    3  A    between atoms: N_2  and  C_4
REMARK    4  A    between atoms: C_9  and  N_10
REMARK    5  A    between atoms: C_17  and  C_18
REMARK                            x       y       z     vdW  Elec       q    Type
REMARK                         _______ _______ _______ _____ _____    ______ ____
ROOT
ATOM      1  N   UNL     1       4.024   6.870  18.400  0.00  0.00    +0.000 N 
ATOM      2  C   UNL     1       3.118   6.534  19.354  0.00  0.00    +0.000 A 
ATOM      3  N   UNL     1       3.032   5.408  20.039  0.00  0.00    +0.000 NA
ATOM      4  C   UNL     1       2.014   5.590  20.935  0.00  0.00    +0.000 A 
ATOM      5  C   UNL     1       1.449   6.834  20.792  0.00  0.00    +0.000 A 
ATOM      6  C   UNL     1       0.429   7.561  21.429  0.00  0.00    +0.000 A 
ATOM      7  C   UNL     1       0.135   8.786  20.977  0.00  0.00    +0.000 A 
ATOM      8  C   UNL     1       0.880   9.296  19.781  0.00  0.00    +0.000 A 
ATOM      9  N   UNL     1       1.857   8.655  19.203  0.00  0.00    +0.000 NA
ATOM     10  N   UNL     1       2.129   7.429  19.753  0.00  0.00    +0.000 N 
ATOM     11  H   UNL     1       3.925   7.774  17.946  0.00  0.00    +0.000 HD
ENDROOT
BRANCH   8  12
ATOM     12  C   UNL     1       0.469  10.627  19.241  0.00  0.00    +0.000 A 
ATOM     13  C   UNL     1      -0.590  10.706  18.329  0.00  0.00    +0.000 A 
ATOM     14  F   UNL     1      -1.200   9.603  17.872  0.00  0.00    +0.000 F 
ATOM     15  C   UNL     1      -1.037  11.934  17.839  0.00  0.00    +0.000 A 
ATOM     16  C   UNL     1      -0.426  13.116  18.250  0.00  0.00    +0.000 A 
ATOM     17  C   UNL     1       0.632  13.060  19.152  0.00  0.00    +0.000 A 
ATOM     18  C   UNL     1       1.065  11.827  19.648  0.00  0.00    +0.000 A 
ATOM     19  F   UNL     1       2.058  11.846  20.549  0.00  0.00    +0.000 F 
ENDBRANCH   8  12
BRANCH   1  25
ATOM     20  C   UNL     1       6.102   5.944  17.410  0.00  0.00    +0.000 A 
ATOM     21  C   UNL     1       6.649   5.033  16.486  0.00  0.00    +0.000 A 
ATOM     22  C   UNL     1       5.829   4.161  15.788  0.00  0.00    +0.000 A 
ATOM     23  N   UNL     1       4.496   4.116  15.936  0.00  0.00    +0.000 NA
ATOM     24  C   UNL     1       3.973   4.987  16.832  0.00  0.00    +0.000 A 
ATOM     25  C   UNL     1       4.697   5.931  17.581  0.00  0.00    +0.000 A 
BRANCH  20  27
ATOM     26  C   UNL     1       7.626   7.892  17.475  0.00  0.00    +0.000 C 
ATOM     27  N   UNL     1       7.012   6.741  18.127  0.00  0.00    +0.000 N 
ATOM     28  C   UNL     1       7.839   6.030  19.097  0.00  0.00    +0.000 C 
ENDBRANCH  20  27
ENDBRANCH   1  25
TORSDOF 3
ENDMDL
MODEL 8
REMARK VINA RESULT:      -6.8      5.069     10.005
REMARK  Name = 
REMARK  5 active torsions:
REMARK  status: ('A' for Active; 'I' for Inactive)
REMARK    1  A    between atoms: C_1  and  N_2
REMARK    2  A    between atoms: N_2  and  C_3
REMARK    3  A    between atoms: N_2  and  C_4
REMARK    4  A    between atoms: C_9  and  N_10
REMARK    5  A    between atoms: C_17  and  C_18
REMARK                            x       y       z     vdW  Elec       q    Type
REMARK                         _______ _______ _______ _____ _____    ______ ____
ROOT
ATOM      1  N   UNL     1      -1.598  11.833  19.124  0.00  0.00    +0.000 N 
ATOM      2  C   UNL     1      -2.570  11.662  18.192  0.00  0.00    +0.000 A 
ATOM      3  N   UNL     1      -2.434  11.349  16.916  0.00  0.00    +0.000 NA
ATOM      4  C   UNL     1      -3.704  11.208  16.425  0.00  0.00    +0.000 A 
ATOM      5  C   UNL     1      -4.638  11.457  17.401  0.00  0.00    +0.000 A 
ATOM      6  C   UNL     1      -6.041  11.438  17.488  0.00  0.00    +0.000 A 
ATOM      7  C   UNL     1      -6.618  11.775  18.647  0.00  0.00    +0.000 A 
ATOM      8  C   UNL     1      -5.735  12.205  19.778  0.00  0.00    +0.000 A 
ATOM      9  N   UNL     1      -4.432  12.189  19.732  0.00  0.00    +0.000 NA
ATOM     10  N   UNL     1      -3.916  11.786  18.527  0.00  0.00    +0.000 N 
ATOM     11  H   UNL     1      -1.879  12.108  20.062  0.00  0.00    +0.000 HD
ENDROOT
BRANCH   8  12
ATOM     12  C   UNL     1      -6.408  12.664  21.030  0.00  0.00    +0.000 A 
ATOM     13  C   UNL     1      -6.223  13.979  21.471  0.00  0.00    +0.000 A 
ATOM     14  F   UNL     1      -5.395  14.819  20.833  0.00  0.00    +0.000 F 
ATOM     15  C   UNL     1      -6.873  14.463  22.609  0.00  0.00    +0.000 A 
ATOM     16  C   UNL     1      -7.723  13.632  23.335  0.00  0.00    +0.000 A 
ATOM     17  C   UNL     1      -7.916  12.319  22.916  0.00  0.00    +0.000 A 
ATOM     18  C   UNL     1      -7.272  11.847  21.770  0.00  0.00    +0.000 A 
ATOM     19  F   UNL     1      -7.538  10.588  21.394  0.00  0.00    +0.000 F 
ENDBRANCH   8  12
BRANCH   1  25
ATOM     20  C   UNL     1       0.815  11.330  18.837  0.00  0.00    +0.000 A 
ATOM     21  C   UNL     1       2.102  11.864  18.630  0.00  0.00    +0.000 A 
ATOM     22  C   UNL     1       2.273  13.221  18.414  0.00  0.00    +0.000 A 
ATOM     23  N   UNL     1       1.262  14.103  18.383  0.00  0.00    +0.000 NA
ATOM     24  C   UNL     1       0.024  13.586  18.573  0.00  0.00    +0.000 A 
ATOM     25  C   UNL     1      -0.274  12.235  18.823  0.00  0.00    +0.000 A 
BRANCH  20  27
ATOM     26  C   UNL     1       0.773   9.340  20.307  0.00  0.00    +0.000 C 
ATOM     27  N   UNL     1       0.724   9.934  18.976  0.00  0.00    +0.000 N 
ATOM     28  C   UNL     1       1.328   9.156  17.899  0.00  0.00    +0.000 C 
ENDBRANCH  20  27
ENDBRANCH   1  25
TORSDOF 3
ENDMDL
MODEL 9
REMARK VINA RESULT:      -6.7      1.971      3.396
REMARK  Name = 
REMARK  5 active torsions:
REMARK  status: ('A' for Active; 'I' for Inactive)
REMARK    1  A    between atoms: C_1  and  N_2
REMARK    2  A    between atoms: N_2  and  C_3
REMARK    3  A    between atoms: N_2  and  C_4
REMARK    4  A    between atoms: C_9  and  N_10
REMARK    5  A    between atoms: C_17  and  C_18
REMARK                            x       y       z     vdW  Elec       q    Type
REMARK                         _______ _______ _______ _____ _____    ______ ____
ROOT
ATOM      1  N   UNL     1       1.848   7.191  19.678  0.00  0.00    +0.000 N 
ATOM      2  C   UNL     1       2.065   5.960  20.208  0.00  0.00    +0.000 A 
ATOM      3  N   UNL     1       1.498   5.417  21.271  0.00  0.00    +0.000 NA
ATOM      4  C   UNL     1       1.981   4.139  21.343  0.00  0.00    +0.000 A 
ATOM      5  C   UNL     1       2.872   3.892  20.327  0.00  0.00    +0.000 A 
ATOM      6  C   UNL     1       3.633   2.793  19.893  0.00  0.00    +0.000 A 
ATOM      7  C   UNL     1       4.436   2.945  18.834  0.00  0.00    +0.000 A 
ATOM      8  C   UNL     1       4.517   4.299  18.197  0.00  0.00    +0.000 A 
ATOM      9  N   UNL     1       3.789   5.319  18.557  0.00  0.00    +0.000 NA
ATOM     10  N   UNL     1       2.958   5.070  19.619  0.00  0.00    +0.000 N 
ATOM     11  H   UNL     1       2.399   7.465  18.868  0.00  0.00    +0.000 HD
ENDROOT
BRANCH   8  12
ATOM     12  C   UNL     1       5.490   4.465  17.075  0.00  0.00    +0.000 A 
ATOM     13  C   UNL     1       5.072   4.233  15.760  0.00  0.00    +0.000 A 
ATOM     14  F   UNL     1       3.835   3.793  15.488  0.00  0.00    +0.000 F 
ATOM     15  C   UNL     1       5.935   4.424  14.678  0.00  0.00    +0.000 A 
ATOM     16  C   UNL     1       7.244   4.849  14.895  0.00  0.00    +0.000 A 
ATOM     17  C   UNL     1       7.680   5.082  16.196  0.00  0.00    +0.000 A 
ATOM     18  C   UNL     1       6.806   4.900  17.270  0.00  0.00    +0.000 A 
ATOM     19  F   UNL     1       7.275   5.186  18.494  0.00  0.00    +0.000 F 
ENDBRANCH   8  12
BRANCH   1  25
ATOM     20  C   UNL     1       0.968   9.507  19.809  0.00  0.00    +0.000 A 
ATOM     21  C   UNL     1       0.654  10.590  20.653  0.00  0.00    +0.000 A 
ATOM     22  C   UNL     1       0.767  10.465  22.028  0.00  0.00    +0.000 A 
ATOM     23  N   UNL     1       1.167   9.341  22.643  0.00  0.00    +0.000 NA
ATOM     24  C   UNL     1       1.459   8.298  21.830  0.00  0.00    +0.000 A 
ATOM     25  C   UNL     1       1.404   8.309  20.425  0.00  0.00    +0.000 A 
BRANCH  20  27
ATOM     26  C   UNL     1       1.871  10.094  17.582  0.00  0.00    +0.000 C 
ATOM     27  N   UNL     1       0.756   9.696  18.432  0.00  0.00    +0.000 N 
ATOM     28  C   UNL     1      -0.556  10.222  18.066  0.00  0.00    +0.000 C 
ENDBRANCH  20  27
ENDBRANCH   1  25
TORSDOF 3
ENDMDL
