MODEL 1
REMARK VINA RESULT:      -8.8      0.000      0.000
REMARK  Name = 
REMARK  4 active torsions:
REMARK  status: ('A' for Active; 'I' for Inactive)
REMARK    1  A    between atoms: C_1  and  C_2
REMARK    2  A    between atoms: C_6  and  C_8
REMARK    3  A    between atoms: C_12  and  C_13
REMARK    4  A    between atoms: C_18  and  C_19
REMARK                            x       y       z     vdW  Elec       q    Type
REMARK                         _______ _______ _______ _____ _____    ______ ____
ROOT
ATOM      1  C   UNL     1       3.855   5.014  19.268  0.00  0.00    +0.000 A 
ATOM      2  C   UNL     1       3.335   3.941  19.991  0.00  0.00    +0.000 A 
ATOM      3  C   UNL     1       2.212   4.147  20.780  0.00  0.00    +0.000 A 
ATOM      4  C   UNL     1       1.650   5.415  20.824  0.00  0.00    +0.000 A 
ATOM      5  C   UNL     1       2.226   6.434  20.064  0.00  0.00    +0.000 A 
ATOM      6  N   UNL     1       3.323   6.274  19.265  0.00  0.00    +0.000 NA
ENDROOT
BRANCH   1  12
ATOM      7  C   UNL     1       7.621   4.985  12.904  0.00  0.00    +0.000 C 
ATOM      8  C   UNL     1       7.036   4.945  14.253  0.00  0.00    +0.000 A 
ATOM      9  C   UNL     1       5.793   5.189  14.786  0.00  0.00    +0.000 A 
ATOM     10  C   UNL     1       5.945   4.940  16.174  0.00  0.00    +0.000 A 
ATOM     11  N   UNL     1       4.933   5.058  17.106  0.00  0.00    +0.000 N 
ATOM     12  C   UNL     1       5.088   4.788  18.450  0.00  0.00    +0.000 C 
ATOM     13  O   UNL     1       6.103   4.395  19.012  0.00  0.00    +0.000 OA
ATOM     14  N   UNL     1       7.201   4.577  16.446  0.00  0.00    +0.000 NA
ATOM     15  O   UNL     1       7.881   4.583  15.250  0.00  0.00    +0.000 OA
ATOM     16  H   UNL     1       4.025   5.371  16.795  0.00  0.00    +0.000 HD
ENDBRANCH   1  12
BRANCH   5  17
ATOM     17  C   UNL     1       1.615   7.800  20.129  0.00  0.00    +0.000 C 
ATOM     18  O   UNL     1       1.819   8.580  19.206  0.00  0.00    +0.000 OA
ATOM     19  N   UNL     1       0.895   8.047  21.280  0.00  0.00    +0.000 N 
ATOM     20  C   UNL     1       0.205   9.220  21.509  0.00  0.00    +0.000 A 
ATOM     21  C   UNL     1      -0.375   9.587  22.750  0.00  0.00    +0.000 A 
ATOM     22  C   UNL     1      -0.932  10.823  22.522  0.00  0.00    +0.000 A 
ATOM     23  C   UNL     1      -1.650  11.815  23.339  0.00  0.00    +0.000 C 
ATOM     24  O   UNL     1      -0.735  11.162  21.223  0.00  0.00    +0.000 OA
ATOM     25  N   UNL     1      -0.022  10.167  20.595  0.00  0.00    +0.000 NA
ATOM     26  H   UNL     1       0.911   7.344  22.005  0.00  0.00    +0.000 HD
ENDBRANCH   5  17
TORSDOF 2
ENDMDL
MODEL 2
REMARK VINA RESULT:      -8.4      0.216      9.056
REMARK  Name = 
REMARK  4 active torsions:
REMARK  status: ('A' for Active; 'I' for Inactive)
REMARK    1  A    between atoms: C_1  and  C_2
REMARK    2  A    between atoms: C_6  and  C_8
REMARK    3  A    between atoms: C_12  and  C_13
REMARK    4  A    between atoms: C_18  and  C_19
REMARK                            x       y       z     vdW  Elec       q    Type
REMARK                         _______ _______ _______ _____ _____    ______ ____
ROOT
ATOM      1  C   UNL     1       2.250   6.598  20.114  0.00  0.00    +0.000 A 
ATOM      2  C   UNL     1       1.672   5.538  20.812  0.00  0.00    +0.000 A 
ATOM      3  C   UNL     1       2.276   4.289  20.753  0.00  0.00    +0.000 A 
ATOM      4  C   UNL     1       3.430   4.141  19.996  0.00  0.00    +0.000 A 
ATOM      5  C   UNL     1       3.950   5.253  19.334  0.00  0.00    +0.000 A 
ATOM      6  N   UNL     1       3.397   6.502  19.374  0.00  0.00    +0.000 NA
ENDROOT
BRANCH   1  12
ATOM      7  C   UNL     1      -1.867  11.790  23.396  0.00  0.00    +0.000 C 
ATOM      8  C   UNL     1      -1.024  10.882  22.603  0.00  0.00    +0.000 A 
ATOM      9  C   UNL     1      -0.517   9.617  22.778  0.00  0.00    +0.000 A 
ATOM     10  C   UNL     1       0.209   9.356  21.589  0.00  0.00    +0.000 A 
ATOM     11  N   UNL     1       0.888   8.182  21.328  0.00  0.00    +0.000 N 
ATOM     12  C   UNL     1       1.570   7.931  20.156  0.00  0.00    +0.000 C 
ATOM     13  O   UNL     1       1.664   8.670  19.183  0.00  0.00    +0.000 OA
ATOM     14  N   UNL     1       0.141  10.403  20.763  0.00  0.00    +0.000 NA
ATOM     15  O   UNL     1      -0.624  11.355  21.396  0.00  0.00    +0.000 OA
ATOM     16  H   UNL     1       0.900   7.464  22.037  0.00  0.00    +0.000 HD
ENDBRANCH   1  12
BRANCH   5  17
ATOM     17  C   UNL     1       5.190   5.075  18.514  0.00  0.00    +0.000 C 
ATOM     18  O   UNL     1       6.253   4.874  19.092  0.00  0.00    +0.000 OA
ATOM     19  N   UNL     1       4.996   5.199  17.154  0.00  0.00    +0.000 N 
ATOM     20  C   UNL     1       5.998   5.013  16.222  0.00  0.00    +0.000 A 
ATOM     21  C   UNL     1       5.886   5.324  14.843  0.00  0.00    +0.000 A 
ATOM     22  C   UNL     1       7.111   4.998  14.313  0.00  0.00    +0.000 A 
ATOM     23  C   UNL     1       7.733   5.085  12.981  0.00  0.00    +0.000 C 
ATOM     24  O   UNL     1       7.896   4.491  15.296  0.00  0.00    +0.000 OA
ATOM     25  N   UNL     1       7.205   4.505  16.485  0.00  0.00    +0.000 NA
ATOM     26  H   UNL     1       4.081   5.480  16.832  0.00  0.00    +0.000 HD
ENDBRANCH   5  17
TORSDOF 2
ENDMDL
MODEL 3
REMARK VINA RESULT:      -8.3      1.763      1.926
REMARK  Name = 
REMARK  4 active torsions:
REMARK  status: ('A' for Active; 'I' for Inactive)
REMARK    1  A    between atoms: C_1  and  C_2
REMARK    2  A    between atoms: C_6  and  C_8
REMARK    3  A    between atoms: C_12  and  C_13
REMARK    4  A    between atoms: C_18  and  C_19
REMARK                            x       y       z     vdW  Elec       q    Type
REMARK                         _______ _______ _______ _____ _____    ______ ____
ROOT
ATOM      1  C   UNL     1       3.856   4.740  19.272  0.00  0.00    +0.000 A 
ATOM      2  C   UNL     1       3.358   3.566  19.836  0.00  0.00    +0.000 A 
ATOM      3  C   UNL     1       2.226   3.635  20.635  0.00  0.00    +0.000 A 
ATOM      4  C   UNL     1       1.633   4.872  20.848  0.00  0.00    +0.000 A 
ATOM      5  C   UNL     1       2.189   5.999  20.242  0.00  0.00    +0.000 A 
ATOM      6  N   UNL     1       3.294   5.976  19.438  0.00  0.00    +0.000 NA
ENDROOT
BRANCH   1  12
ATOM      7  C   UNL     1       7.503   4.911  12.841  0.00  0.00    +0.000 C 
ATOM      8  C   UNL     1       6.948   4.862  14.203  0.00  0.00    +0.000 A 
ATOM      9  C   UNL     1       5.689   4.943  14.748  0.00  0.00    +0.000 A 
ATOM     10  C   UNL     1       5.895   4.804  16.144  0.00  0.00    +0.000 A 
ATOM     11  N   UNL     1       4.888   4.821  17.089  0.00  0.00    +0.000 N 
ATOM     12  C   UNL     1       5.100   4.658  18.442  0.00  0.00    +0.000 C 
ATOM     13  O   UNL     1       6.170   4.460  19.004  0.00  0.00    +0.000 OA
ATOM     14  N   UNL     1       7.195   4.655  16.409  0.00  0.00    +0.000 NA
ATOM     15  O   UNL     1       7.851   4.694  15.201  0.00  0.00    +0.000 OA
ATOM     16  H   UNL     1       3.939   4.971  16.780  0.00  0.00    +0.000 HD
ENDBRANCH   1  12
BRANCH   5  17
ATOM     17  C   UNL     1       1.544   7.328  20.488  0.00  0.00    +0.000 C 
ATOM     18  O   UNL     1       0.870   7.476  21.502  0.00  0.00    +0.000 OA
ATOM     19  N   UNL     1       1.759   8.258  19.492  0.00  0.00    +0.000 N 
ATOM     20  C   UNL     1       1.302   9.559  19.554  0.00  0.00    +0.000 A 
ATOM     21  C   UNL     1       1.330  10.477  18.474  0.00  0.00    +0.000 A 
ATOM     22  C   UNL     1       0.765  11.624  18.978  0.00  0.00    +0.000 A 
ATOM     23  C   UNL     1       0.431  12.953  18.437  0.00  0.00    +0.000 C 
ATOM     24  O   UNL     1       0.451  11.425  20.282  0.00  0.00    +0.000 OA
ATOM     25  N   UNL     1       0.781  10.138  20.639  0.00  0.00    +0.000 NA
ATOM     26  H   UNL     1       2.243   7.953  18.660  0.00  0.00    +0.000 HD
ENDBRANCH   5  17
TORSDOF 2
ENDMDL
MODEL 4
REMARK VINA RESULT:      -8.3      1.259      9.320
REMARK  Name = 
REMARK  4 active torsions:
REMARK  status: ('A' for Active; 'I' for Inactive)
REMARK    1  A    between atoms: C_1  and  C_2
REMARK    2  A    between atoms: C_6  and  C_8
REMARK    3  A    between atoms: C_12  and  C_13
REMARK    4  A    between atoms: C_18  and  C_19
REMARK                            x       y       z     vdW  Elec       q    Type
REMARK                         _______ _______ _______ _____ _____    ______ ____
ROOT
ATOM      1  C   UNL     1       2.310   7.411  19.356  0.00  0.00    +0.000 A 
ATOM      2  C   UNL     1       2.071   6.313  20.182  0.00  0.00    +0.000 A 
ATOM      3  C   UNL     1       2.857   5.180  20.033  0.00  0.00    +0.000 A 
ATOM      4  C   UNL     1       3.850   5.178  19.062  0.00  0.00    +0.000 A 
ATOM      5  C   UNL     1       4.030   6.320  18.281  0.00  0.00    +0.000 A 
ATOM      6  N   UNL     1       3.289   7.462  18.402  0.00  0.00    +0.000 NA
ENDROOT
BRANCH   1  12
ATOM      7  C   UNL     1      -1.969  12.008  23.261  0.00  0.00    +0.000 C 
ATOM      8  C   UNL     1      -1.141  11.213  22.340  0.00  0.00    +0.000 A 
ATOM      9  C   UNL     1      -0.403  10.058  22.439  0.00  0.00    +0.000 A 
ATOM     10  C   UNL     1       0.130   9.864  21.139  0.00  0.00    +0.000 A 
ATOM     11  N   UNL     1       0.941   8.806  20.776  0.00  0.00    +0.000 N 
ATOM     12  C   UNL     1       1.431   8.615  19.501  0.00  0.00    +0.000 C 
ATOM     13  O   UNL     1       1.221   9.311  18.516  0.00  0.00    +0.000 OA
ATOM     14  N   UNL     1      -0.264  10.845  20.324  0.00  0.00    +0.000 NA
ATOM     15  O   UNL     1      -1.053  11.687  21.072  0.00  0.00    +0.000 OA
ATOM     16  H   UNL     1       1.203   8.135  21.483  0.00  0.00    +0.000 HD
ENDBRANCH   1  12
BRANCH   5  17
ATOM     17  C   UNL     1       5.099   6.300  17.233  0.00  0.00    +0.000 C 
ATOM     18  O   UNL     1       5.994   7.137  17.289  0.00  0.00    +0.000 OA
ATOM     19  N   UNL     1       4.930   5.331  16.266  0.00  0.00    +0.000 N 
ATOM     20  C   UNL     1       5.833   5.107  15.245  0.00  0.00    +0.000 A 
ATOM     21  C   UNL     1       5.598   4.264  14.130  0.00  0.00    +0.000 A 
ATOM     22  C   UNL     1       6.743   4.358  13.376  0.00  0.00    +0.000 A 
ATOM     23  C   UNL     1       7.199   3.806  12.089  0.00  0.00    +0.000 C 
ATOM     24  O   UNL     1       7.623   5.173  14.010  0.00  0.00    +0.000 OA
ATOM     25  N   UNL     1       7.053   5.643  15.171  0.00  0.00    +0.000 NA
ATOM     26  H   UNL     1       4.079   4.787  16.288  0.00  0.00    +0.000 HD
ENDBRANCH   5  17
TORSDOF 2
ENDMDL
MODEL 5
REMARK VINA RESULT:      -8.2      1.874      8.712
REMARK  Name = 
REMARK  4 active torsions:
REMARK  status: ('A' for Active; 'I' for Inactive)
REMARK    1  A    between atoms: C_1  and  C_2
REMARK    2  A    between atoms: C_6  and  C_8
REMARK    3  A    between atoms: C_12  and  C_13
REMARK    4  A    between atoms: C_18  and  C_19
REMARK                            x       y       z     vdW  Elec       q    Type
REMARK                         _______ _______ _______ _____ _____    ______ ____
ROOT
ATOM      1  C   UNL     1       2.347   6.693  19.906  0.00  0.00    +0.000 A 
ATOM      2  C   UNL     1       2.037   5.461  20.481  0.00  0.00    +0.000 A 
ATOM      3  C   UNL     1       2.745   4.338  20.078  0.00  0.00    +0.000 A 
ATOM      4  C   UNL     1       3.733   4.481  19.113  0.00  0.00    +0.000 A 
ATOM      5  C   UNL     1       3.988   5.750  18.593  0.00  0.00    +0.000 A 
ATOM      6  N   UNL     1       3.325   6.885  18.969  0.00  0.00    +0.000 NA
ENDROOT
BRANCH   1  12
ATOM      7  C   UNL     1      -0.464  13.442  18.790  0.00  0.00    +0.000 C 
ATOM      8  C   UNL     1      -0.002  12.098  19.175  0.00  0.00    +0.000 A 
ATOM      9  C   UNL     1       0.791  11.136  18.598  0.00  0.00    +0.000 A 
ATOM     10  C   UNL     1       0.820  10.082  19.546  0.00  0.00    +0.000 A 
ATOM     11  N   UNL     1       1.512   8.899  19.380  0.00  0.00    +0.000 N 
ATOM     12  C   UNL     1       1.552   7.892  20.322  0.00  0.00    +0.000 C 
ATOM     13  O   UNL     1       1.019   7.890  21.425  0.00  0.00    +0.000 OA
ATOM     14  N   UNL     1       0.084  10.399  20.615  0.00  0.00    +0.000 NA
ATOM     15  O   UNL     1      -0.430  11.653  20.382  0.00  0.00    +0.000 OA
ATOM     16  H   UNL     1       2.013   8.750  18.517  0.00  0.00    +0.000 HD
ENDBRANCH   1  12
BRANCH   5  17
ATOM     17  C   UNL     1       5.050   5.888  17.547  0.00  0.00    +0.000 C 
ATOM     18  O   UNL     1       5.913   6.747  17.694  0.00  0.00    +0.000 OA
ATOM     19  N   UNL     1       4.912   5.026  16.479  0.00  0.00    +0.000 N 
ATOM     20  C   UNL     1       5.817   4.952  15.439  0.00  0.00    +0.000 A 
ATOM     21  C   UNL     1       5.608   4.228  14.237  0.00  0.00    +0.000 A 
ATOM     22  C   UNL     1       6.744   4.450  13.496  0.00  0.00    +0.000 A 
ATOM     23  C   UNL     1       7.213   4.061  12.155  0.00  0.00    +0.000 C 
ATOM     24  O   UNL     1       7.596   5.223  14.215  0.00  0.00    +0.000 OA
ATOM     25  N   UNL     1       7.016   5.539  15.422  0.00  0.00    +0.000 NA
ATOM     26  H   UNL     1       4.083   4.451  16.442  0.00  0.00    +0.000 HD
ENDBRANCH   5  17
TORSDOF 2
ENDMDL
MODEL 6
REMARK VINA RESULT:      -8.1      1.516      8.830
REMARK  Name = 
REMARK  4 active torsions:
REMARK  status: ('A' for Active; 'I' for Inactive)
REMARK    1  A    between atoms: C_1  and  C_2
REMARK    2  A    between atoms: C_6  and  C_8
REMARK    3  A    between atoms: C_12  and  C_13
REMARK    4  A    between atoms: C_18  and  C_19
REMARK                            x       y       z     vdW  Elec       q    Type
REMARK                         _______ _______ _______ _____ _____    ______ ____
ROOT
ATOM      1  C   UNL     1       2.797   4.610  20.097  0.00  0.00    +0.000 A 
ATOM      2  C   UNL     1       2.948   3.328  20.622  0.00  0.00    +0.000 A 
ATOM      3  C   UNL     1       3.999   2.540  20.175  0.00  0.00    +0.000 A 
ATOM      4  C   UNL     1       4.860   3.057  19.216  0.00  0.00    +0.000 A 
ATOM      5  C   UNL     1       4.645   4.353  18.746  0.00  0.00    +0.000 A 
ATOM      6  N   UNL     1       3.631   5.168  19.166  0.00  0.00    +0.000 NA
ENDROOT
BRANCH   1  12
ATOM      7  C   UNL     1      -0.270  10.904  22.478  0.00  0.00    +0.000 C 
ATOM      8  C   UNL     1       0.164   9.581  22.002  0.00  0.00    +0.000 A 
ATOM      9  C   UNL     1       1.365   9.019  21.639  0.00  0.00    +0.000 A 
ATOM     10  C   UNL     1       1.043   7.682  21.293  0.00  0.00    +0.000 A 
ATOM     11  N   UNL     1       1.960   6.742  20.868  0.00  0.00    +0.000 N 
ATOM     12  C   UNL     1       1.637   5.436  20.560  0.00  0.00    +0.000 C 
ATOM     13  O   UNL     1       0.532   4.912  20.629  0.00  0.00    +0.000 OA
ATOM     14  N   UNL     1      -0.267   7.468  21.438  0.00  0.00    +0.000 NA
ATOM     15  O   UNL     1      -0.815   8.651  21.877  0.00  0.00    +0.000 OA
ATOM     16  H   UNL     1       2.925   7.021  20.765  0.00  0.00    +0.000 HD
ENDBRANCH   1  12
BRANCH   5  17
ATOM     17  C   UNL     1       5.576   4.894  17.705  0.00  0.00    +0.000 C 
ATOM     18  O   UNL     1       6.309   5.831  18.001  0.00  0.00    +0.000 OA
ATOM     19  N   UNL     1       5.474   4.277  16.475  0.00  0.00    +0.000 N 
ATOM     20  C   UNL     1       6.283   4.586  15.400  0.00  0.00    +0.000 A 
ATOM     21  C   UNL     1       6.078   4.120  14.076  0.00  0.00    +0.000 A 
ATOM     22  C   UNL     1       7.097   4.687  13.347  0.00  0.00    +0.000 A 
ATOM     23  C   UNL     1       7.496   4.687  11.930  0.00  0.00    +0.000 C 
ATOM     24  O   UNL     1       7.883   5.414  14.180  0.00  0.00    +0.000 OA
ATOM     25  N   UNL     1       7.373   5.355  15.456  0.00  0.00    +0.000 NA
ATOM     26  H   UNL     1       4.742   3.593  16.351  0.00  0.00    +0.000 HD
ENDBRANCH   5  17
TORSDOF 2
ENDMDL
MODEL 7
REMARK VINA RESULT:      -8.1      1.434      1.850
REMARK  Name = 
REMARK  4 active torsions:
REMARK  status: ('A' for Active; 'I' for Inactive)
REMARK    1  A    between atoms: C_1  and  C_2
REMARK    2  A    between atoms: C_6  and  C_8
REMARK    3  A    between atoms: C_12  and  C_13
REMARK    4  A    between atoms: C_18  and  C_19
REMARK                            x       y       z     vdW  Elec       q    Type
REMARK                         _______ _______ _______ _____ _____    ______ ____
ROOT
ATOM      1  C   UNL     1       4.551   3.989  19.093  0.00  0.00    +0.000 A 
ATOM      2  C   UNL     1       4.611   2.728  19.686  0.00  0.00    +0.000 A 
ATOM      3  C   UNL     1       3.621   2.365  20.588  0.00  0.00    +0.000 A 
ATOM      4  C   UNL     1       2.610   3.273  20.872  0.00  0.00    +0.000 A 
ATOM      5  C   UNL     1       2.618   4.512  20.230  0.00  0.00    +0.000 A 
ATOM      6  N   UNL     1       3.564   4.907  19.327  0.00  0.00    +0.000 NA
ENDROOT
BRANCH   1  12
ATOM      7  C   UNL     1       7.413   4.880  12.333  0.00  0.00    +0.000 C 
ATOM      8  C   UNL     1       7.002   4.783  13.743  0.00  0.00    +0.000 A 
ATOM      9  C   UNL     1       5.884   4.337  14.406  0.00  0.00    +0.000 A 
ATOM     10  C   UNL     1       6.183   4.532  15.779  0.00  0.00    +0.000 A 
ATOM     11  N   UNL     1       5.331   4.212  16.818  0.00  0.00    +0.000 N 
ATOM     12  C   UNL     1       5.645   4.383  18.150  0.00  0.00    +0.000 C 
ATOM     13  O   UNL     1       6.696   4.810  18.613  0.00  0.00    +0.000 OA
ATOM     14  N   UNL     1       7.399   5.065  15.918  0.00  0.00    +0.000 NA
ATOM     15  O   UNL     1       7.908   5.225  14.650  0.00  0.00    +0.000 OA
ATOM     16  H   UNL     1       4.419   3.840  16.597  0.00  0.00    +0.000 HD
ENDBRANCH   1  12
BRANCH   5  17
ATOM     17  C   UNL     1       1.526   5.484  20.553  0.00  0.00    +0.000 C 
ATOM     18  O   UNL     1       0.367   5.083  20.576  0.00  0.00    +0.000 OA
ATOM     19  N   UNL     1       1.959   6.778  20.760  0.00  0.00    +0.000 N 
ATOM     20  C   UNL     1       1.120   7.812  21.125  0.00  0.00    +0.000 A 
ATOM     21  C   UNL     1       1.491   9.181  21.151  0.00  0.00    +0.000 A 
ATOM     22  C   UNL     1       0.352   9.841  21.550  0.00  0.00    +0.000 A 
ATOM     23  C   UNL     1      -0.023  11.249  21.758  0.00  0.00    +0.000 C 
ATOM     24  O   UNL     1      -0.626   8.931  21.784  0.00  0.00    +0.000 OA
ATOM     25  N   UNL     1      -0.149   7.669  21.515  0.00  0.00    +0.000 NA
ATOM     26  H   UNL     1       2.934   6.980  20.594  0.00  0.00    +0.000 HD
ENDBRANCH   5  17
TORSDOF 2
ENDMDL
MODEL 8
REMARK VINA RESULT:      -8.0      1.067      8.892
REMARK  Name = 
REMARK  4 active torsions:
REMARK  status: ('A' for Active; 'I' for Inactive)
REMARK    1  A    between atoms: C_1  and  C_2
REMARK    2  A    between atoms: C_6  and  C_8
REMARK    3  A    between atoms: C_12  and  C_13
REMARK    4  A    between atoms: C_18  and  C_19
REMARK                            x       y       z     vdW  Elec       q    Type
REMARK                         _______ _______ _______ _____ _____    ______ ____
ROOT
ATOM      1  C   UNL     1       2.270   6.033  19.966  0.00  0.00    +0.000 A 
ATOM      2  C   UNL     1       1.865   5.177  20.989  0.00  0.00    +0.000 A 
ATOM      3  C   UNL     1       2.234   3.841  20.929  0.00  0.00    +0.000 A 
ATOM      4  C   UNL     1       2.988   3.404  19.849  0.00  0.00    +0.000 A 
ATOM      5  C   UNL     1       3.359   4.325  18.869  0.00  0.00    +0.000 A 
ATOM      6  N   UNL     1       3.029   5.652  18.893  0.00  0.00    +0.000 NA
ENDROOT
BRANCH   1  12
ATOM      7  C   UNL     1      -1.301  11.711  23.079  0.00  0.00    +0.000 C 
ATOM      8  C   UNL     1      -0.525  10.707  22.334  0.00  0.00    +0.000 A 
ATOM      9  C   UNL     1      -0.278   9.363  22.474  0.00  0.00    +0.000 A 
ATOM     10  C   UNL     1       0.554   9.037  21.373  0.00  0.00    +0.000 A 
ATOM     11  N   UNL     1       1.047   7.774  21.112  0.00  0.00    +0.000 N 
ATOM     12  C   UNL     1       1.834   7.464  20.022  0.00  0.00    +0.000 C 
ATOM     13  O   UNL     1       2.194   8.225  19.132  0.00  0.00    +0.000 OA
ATOM     14  N   UNL     1       0.788  10.122  20.631  0.00  0.00    +0.000 NA
ATOM     15  O   UNL     1       0.119  11.163  21.231  0.00  0.00    +0.000 OA
ATOM     16  H   UNL     1       0.831   7.028  21.758  0.00  0.00    +0.000 HD
ENDBRANCH   1  12
BRANCH   5  17
ATOM     17  C   UNL     1       4.165   3.838  17.705  0.00  0.00    +0.000 C 
ATOM     18  O   UNL     1       4.222   2.632  17.493  0.00  0.00    +0.000 OA
ATOM     19  N   UNL     1       4.805   4.835  16.998  0.00  0.00    +0.000 N 
ATOM     20  C   UNL     1       5.548   4.603  15.858  0.00  0.00    +0.000 A 
ATOM     21  C   UNL     1       6.377   5.565  15.226  0.00  0.00    +0.000 A 
ATOM     22  C   UNL     1       6.929   4.899  14.157  0.00  0.00    +0.000 A 
ATOM     23  C   UNL     1       7.895   5.236  13.098  0.00  0.00    +0.000 C 
ATOM     24  O   UNL     1       6.438   3.634  14.125  0.00  0.00    +0.000 OA
ATOM     25  N   UNL     1       5.584   3.450  15.188  0.00  0.00    +0.000 NA
ATOM     26  H   UNL     1       4.756   5.776  17.362  0.00  0.00    +0.000 HD
ENDBRANCH   5  17
TORSDOF 2
ENDMDL
MODEL 9
REMARK VINA RESULT:      -7.9      1.060      1.060
REMARK  Name = 
REMARK  4 active torsions:
REMARK  status: ('A' for Active; 'I' for Inactive)
REMARK    1  A    between atoms: C_1  and  C_2
REMARK    2  A    between atoms: C_6  and  C_8
REMARK    3  A    between atoms: C_12  and  C_13
REMARK    4  A    between atoms: C_18  and  C_19
REMARK                            x       y       z     vdW  Elec       q    Type
REMARK                         _______ _______ _______ _____ _____    ______ ____
ROOT
ATOM      1  C   UNL     1       3.239   4.268  18.887  0.00  0.00    +0.000 A 
ATOM      2  C   UNL     1       2.958   3.371  19.916  0.00  0.00    +0.000 A 
ATOM      3  C   UNL     1       2.259   3.824  21.026  0.00  0.00    +0.000 A 
ATOM      4  C   UNL     1       1.869   5.156  21.073  0.00  0.00    +0.000 A 
ATOM      5  C   UNL     1       2.183   5.987  19.998  0.00  0.00    +0.000 A 
ATOM      6  N   UNL     1       2.858   5.582  18.880  0.00  0.00    +0.000 NA
ENDROOT
BRANCH   1  12
ATOM      7  C   UNL     1       7.701   5.256  13.072  0.00  0.00    +0.000 C 
ATOM      8  C   UNL     1       6.828   4.874  14.194  0.00  0.00    +0.000 A 
ATOM      9  C   UNL     1       6.165   5.550  15.190  0.00  0.00    +0.000 A 
ATOM     10  C   UNL     1       5.495   4.538  15.923  0.00  0.00    +0.000 A 
ATOM     11  N   UNL     1       4.694   4.769  17.023  0.00  0.00    +0.000 N 
ATOM     12  C   UNL     1       4.026   3.777  17.711  0.00  0.00    +0.000 C 
ATOM     13  O   UNL     1       4.018   2.579  17.457  0.00  0.00    +0.000 OA
ATOM     14  N   UNL     1       5.749   3.338  15.396  0.00  0.00    +0.000 NA
ATOM     15  O   UNL     1       6.582   3.547  14.321  0.00  0.00    +0.000 OA
ATOM     16  H   UNL     1       4.594   5.716  17.357  0.00  0.00    +0.000 HD
ENDBRANCH   1  12
BRANCH   5  17
ATOM     17  C   UNL     1       1.765   7.423  20.066  0.00  0.00    +0.000 C 
ATOM     18  O   UNL     1       2.189   8.201  19.218  0.00  0.00    +0.000 OA
ATOM     19  N   UNL     1       0.948   7.728  21.136  0.00  0.00    +0.000 N 
ATOM     20  C   UNL     1       0.405   8.979  21.347  0.00  0.00    +0.000 A 
ATOM     21  C   UNL     1      -0.269   9.378  22.529  0.00  0.00    +0.000 A 
ATOM     22  C   UNL     1      -0.615  10.690  22.306  0.00  0.00    +0.000 A 
ATOM     23  C   UNL     1      -1.285  11.743  23.087  0.00  0.00    +0.000 C 
ATOM     24  O   UNL     1      -0.212  11.047  21.061  0.00  0.00    +0.000 OA
ATOM     25  N   UNL     1       0.428   9.983  20.467  0.00  0.00    +0.000 NA
ATOM     26  H   UNL     1       0.775   7.003  21.817  0.00  0.00    +0.000 HD
ENDBRANCH   5  17
TORSDOF 2
ENDMDL
