MODEL 1
REMARK VINA RESULT:      -7.1      0.000      0.000
REMARK  Name = 
REMARK  9 active torsions:
REMARK  status: ('A' for Active; 'I' for Inactive)
REMARK    1  A    between atoms: C_1  and  C_2
REMARK    2  A    between atoms: C_2  and  C_3
REMARK    3  A    between atoms: C_2  and  O_4
REMARK    4  A    between atoms: O_4  and  C_5
REMARK    5  A    between atoms: C_8  and  C_9
REMARK    6  A    between atoms: N_11  and  C_12
REMARK    7  A    between atoms: C_14  and  S_15
REMARK    8  A    between atoms: S_15  and  N_18
REMARK    9  A    between atoms: C_26  and  N_27
REMARK                            x       y       z     vdW  Elec       q    Type
REMARK                         _______ _______ _______ _____ _____    ______ ____
ROOT
ATOM      1  C   UNL     1       0.069  12.766  21.646  0.00  0.00    +0.000 A 
ATOM      2  C   UNL     1      -1.047  12.543  22.472  0.00  0.00    +0.000 A 
ATOM      3  C   UNL     1      -1.834  13.603  22.882  0.00  0.00    +0.000 A 
ATOM      4  C   UNL     1      -1.518  14.896  22.476  0.00  0.00    +0.000 A 
ATOM      5  C   UNL     1      -0.407  15.112  21.639  0.00  0.00    +0.000 A 
ATOM      6  C   UNL     1       0.397  14.060  21.174  0.00  0.00    +0.000 A 
ENDROOT
BRANCH   6   7
ATOM      7  N   UNL     1       1.428  14.267  20.250  0.00  0.00    +0.000 N 
ATOM      8  C   UNL     1       1.148  14.270  18.799  0.00  0.00    +0.000 C 
ATOM      9  C   UNL     1       2.416  13.793  18.067  0.00  0.00    +0.000 C 
ATOM     10  O   UNL     1       3.563  14.602  18.390  0.00  0.00    +0.000 OA
ATOM     11  C   UNL     1       3.790  14.633  19.812  0.00  0.00    +0.000 C 
ATOM     12  C   UNL     1       2.555  15.175  20.559  0.00  0.00    +0.000 C 
ENDBRANCH   6   7
BRANCH   1  15
ATOM     13  C   UNL     1       0.335  10.885  20.154  0.00  0.00    +0.000 C 
ATOM     14  O   UNL     1      -0.610  11.218  19.445  0.00  0.00    +0.000 OA
ATOM     15  N   UNL     1       0.799  11.637  21.229  0.00  0.00    +0.000 N 
ATOM     16  H   UNL     1       1.307  11.177  21.970  0.00  0.00    +0.000 HD
BRANCH  13  20
ATOM     17  C   UNL     1       2.308   7.156  19.286  0.00  0.00    +0.000 A 
ATOM     18  C   UNL     1       2.160   8.144  18.316  0.00  0.00    +0.000 A 
ATOM     19  C   UNL     1       1.512   9.339  18.627  0.00  0.00    +0.000 A 
ATOM     20  C   UNL     1       0.985   9.563  19.908  0.00  0.00    +0.000 A 
ATOM     21  C   UNL     1       1.096   8.553  20.869  0.00  0.00    +0.000 A 
ATOM     22  C   UNL     1       1.753   7.359  20.551  0.00  0.00    +0.000 A 
BRANCH  17  23
ATOM     23  O   UNL     1       2.955   5.966  19.120  0.00  0.00    +0.000 OA
BRANCH  23  25
ATOM     24  C   UNL     1       4.135   4.497  17.659  0.00  0.00    +0.000 C 
ATOM     25  C   UNL     1       2.856   5.306  17.850  0.00  0.00    +0.000 C 
ATOM     26  C   UNL     1       1.636   4.391  17.850  0.00  0.00    +0.000 C 
ENDBRANCH  23  25
ENDBRANCH  17  23
ENDBRANCH  13  20
ENDBRANCH   1  15
BRANCH   3  27
ATOM     27  S   UNL     1      -3.376  13.244  23.709  0.00  0.00    +0.000 S 
ATOM     28  O   UNL     1      -3.506  11.802  23.748  0.00  0.00    +0.000 OA
ATOM     29  O   UNL     1      -3.357  14.006  24.943  0.00  0.00    +0.000 OA
BRANCH  27  30
ATOM     30  N   UNL     1      -4.600  13.865  22.752  0.00  0.00    +0.000 NA
ATOM     31  C   UNL     1      -5.952  14.082  23.315  0.00  0.00    +0.000 C 
ATOM     32  C   UNL     1      -6.838  12.868  23.058  0.00  0.00    +0.000 C 
ATOM     33  O   UNL     1      -6.913  12.562  21.658  0.00  0.00    +0.000 OA
ATOM     34  C   UNL     1      -5.616  12.348  21.070  0.00  0.00    +0.000 C 
ATOM     35  C   UNL     1      -4.668  13.531  21.306  0.00  0.00    +0.000 C 
ENDBRANCH  27  30
ENDBRANCH   3  27
TORSDOF 7
ENDMDL
MODEL 2
REMARK VINA RESULT:      -7.0      0.958      1.365
REMARK  Name = 
REMARK  9 active torsions:
REMARK  status: ('A' for Active; 'I' for Inactive)
REMARK    1  A    between atoms: C_1  and  C_2
REMARK    2  A    between atoms: C_2  and  C_3
REMARK    3  A    between atoms: C_2  and  O_4
REMARK    4  A    between atoms: O_4  and  C_5
REMARK    5  A    between atoms: C_8  and  C_9
REMARK    6  A    between atoms: N_11  and  C_12
REMARK    7  A    between atoms: C_14  and  S_15
REMARK    8  A    between atoms: S_15  and  N_18
REMARK    9  A    between atoms: C_26  and  N_27
REMARK                            x       y       z     vdW  Elec       q    Type
REMARK                         _______ _______ _______ _____ _____    ______ ____
ROOT
ATOM      1  C   UNL     1      -0.519  12.479  21.481  0.00  0.00    +0.000 A 
ATOM      2  C   UNL     1      -1.626  12.323  22.334  0.00  0.00    +0.000 A 
ATOM      3  C   UNL     1      -2.055  13.376  23.120  0.00  0.00    +0.000 A 
ATOM      4  C   UNL     1      -1.383  14.595  23.069  0.00  0.00    +0.000 A 
ATOM      5  C   UNL     1      -0.283  14.749  22.206  0.00  0.00    +0.000 A 
ATOM      6  C   UNL     1       0.162  13.715  21.366  0.00  0.00    +0.000 A 
ENDROOT
BRANCH   6   7
ATOM      7  N   UNL     1       1.181  13.910  20.427  0.00  0.00    +0.000 N 
ATOM      8  C   UNL     1       0.870  13.977  18.984  0.00  0.00    +0.000 C 
ATOM      9  C   UNL     1       2.100  13.472  18.207  0.00  0.00    +0.000 C 
ATOM     10  O   UNL     1       3.289  14.218  18.531  0.00  0.00    +0.000 OA
ATOM     11  C   UNL     1       3.547  14.188  19.948  0.00  0.00    +0.000 C 
ATOM     12  C   UNL     1       2.354  14.756  20.742  0.00  0.00    +0.000 C 
ENDBRANCH   6   7
BRANCH   1  15
ATOM     13  C   UNL     1       0.620  10.366  21.212  0.00  0.00    +0.000 C 
ATOM     14  O   UNL     1       0.921  10.291  22.400  0.00  0.00    +0.000 OA
ATOM     15  N   UNL     1      -0.165  11.381  20.675  0.00  0.00    +0.000 N 
ATOM     16  H   UNL     1      -0.085  11.600  19.693  0.00  0.00    +0.000 HD
BRANCH  13  20
ATOM     17  C   UNL     1       2.205   7.316  18.616  0.00  0.00    +0.000 A 
ATOM     18  C   UNL     1       2.079   7.111  19.987  0.00  0.00    +0.000 A 
ATOM     19  C   UNL     1       1.567   8.120  20.803  0.00  0.00    +0.000 A 
ATOM     20  C   UNL     1       1.185   9.359  20.265  0.00  0.00    +0.000 A 
ATOM     21  C   UNL     1       1.351   9.579  18.893  0.00  0.00    +0.000 A 
ATOM     22  C   UNL     1       1.861   8.560  18.082  0.00  0.00    +0.000 A 
BRANCH  17  23
ATOM     23  O   UNL     1       2.650   6.398  17.710  0.00  0.00    +0.000 OA
BRANCH  23  25
ATOM     24  C   UNL     1       3.990   4.436  17.505  0.00  0.00    +0.000 C 
ATOM     25  C   UNL     1       4.001   5.929  17.822  0.00  0.00    +0.000 C 
ATOM     26  C   UNL     1       4.881   6.682  16.830  0.00  0.00    +0.000 C 
ENDBRANCH  23  25
ENDBRANCH  17  23
ENDBRANCH  13  20
ENDBRANCH   1  15
BRANCH   3  27
ATOM     27  S   UNL     1      -3.609  13.212  23.984  0.00  0.00    +0.000 S 
ATOM     28  O   UNL     1      -3.868  11.793  24.115  0.00  0.00    +0.000 OA
ATOM     29  O   UNL     1      -3.502  14.044  25.167  0.00  0.00    +0.000 OA
BRANCH  27  30
ATOM     30  N   UNL     1      -4.787  13.881  23.002  0.00  0.00    +0.000 NA
ATOM     31  C   UNL     1      -6.162  14.079  23.513  0.00  0.00    +0.000 C 
ATOM     32  C   UNL     1      -7.040  12.883  23.163  0.00  0.00    +0.000 C 
ATOM     33  O   UNL     1      -7.053  12.640  21.749  0.00  0.00    +0.000 OA
ATOM     34  C   UNL     1      -5.732  12.445  21.211  0.00  0.00    +0.000 C 
ATOM     35  C   UNL     1      -4.791  13.612  21.541  0.00  0.00    +0.000 C 
ENDBRANCH  27  30
ENDBRANCH   3  27
TORSDOF 7
ENDMDL
MODEL 3
REMARK VINA RESULT:      -6.9      1.270      1.809
REMARK  Name = 
REMARK  9 active torsions:
REMARK  status: ('A' for Active; 'I' for Inactive)
REMARK    1  A    between atoms: C_1  and  C_2
REMARK    2  A    between atoms: C_2  and  C_3
REMARK    3  A    between atoms: C_2  and  O_4
REMARK    4  A    between atoms: O_4  and  C_5
REMARK    5  A    between atoms: C_8  and  C_9
REMARK    6  A    between atoms: N_11  and  C_12
REMARK    7  A    between atoms: C_14  and  S_15
REMARK    8  A    between atoms: S_15  and  N_18
REMARK    9  A    between atoms: C_26  and  N_27
REMARK                            x       y       z     vdW  Elec       q    Type
REMARK                         _______ _______ _______ _____ _____    ______ ____
ROOT
ATOM      1  C   UNL     1      -0.839  12.260  21.125  0.00  0.00    +0.000 A 
ATOM      2  C   UNL     1      -2.033  12.114  21.851  0.00  0.00    +0.000 A 
ATOM      3  C   UNL     1      -2.557  13.181  22.557  0.00  0.00    +0.000 A 
ATOM      4  C   UNL     1      -1.894  14.406  22.550  0.00  0.00    +0.000 A 
ATOM      5  C   UNL     1      -0.705  14.550  21.812  0.00  0.00    +0.000 A 
ATOM      6  C   UNL     1      -0.159  13.501  21.055  0.00  0.00    +0.000 A 
ENDROOT
BRANCH   6   7
ATOM      7  N   UNL     1       0.958  13.683  20.232  0.00  0.00    +0.000 N 
ATOM      8  C   UNL     1       0.846  13.520  18.767  0.00  0.00    +0.000 C 
ATOM      9  C   UNL     1       2.216  13.059  18.233  0.00  0.00    +0.000 C 
ATOM     10  O   UNL     1       3.270  13.973  18.588  0.00  0.00    +0.000 OA
ATOM     11  C   UNL     1       3.330  14.163  20.015  0.00  0.00    +0.000 C 
ATOM     12  C   UNL     1       1.988  14.693  20.561  0.00  0.00    +0.000 C 
ENDBRANCH   6   7
BRANCH   1  15
ATOM     13  C   UNL     1       0.509  10.261  20.981  0.00  0.00    +0.000 C 
ATOM     14  O   UNL     1       0.840  10.308  22.163  0.00  0.00    +0.000 OA
ATOM     15  N   UNL     1      -0.388  11.147  20.392  0.00  0.00    +0.000 N 
ATOM     16  H   UNL     1      -0.350  11.297  19.395  0.00  0.00    +0.000 HD
BRANCH  13  20
ATOM     17  C   UNL     1       2.341   7.200  18.568  0.00  0.00    +0.000 A 
ATOM     18  C   UNL     1       2.192   7.050  19.944  0.00  0.00    +0.000 A 
ATOM     19  C   UNL     1       1.599   8.061  20.699  0.00  0.00    +0.000 A 
ATOM     20  C   UNL     1       1.159   9.249  20.096  0.00  0.00    +0.000 A 
ATOM     21  C   UNL     1       1.348   9.417  18.720  0.00  0.00    +0.000 A 
ATOM     22  C   UNL     1       1.939   8.395  17.969  0.00  0.00    +0.000 A 
BRANCH  17  23
ATOM     23  O   UNL     1       2.865   6.271  17.716  0.00  0.00    +0.000 OA
BRANCH  23  25
ATOM     24  C   UNL     1       4.469   4.507  17.761  0.00  0.00    +0.000 C 
ATOM     25  C   UNL     1       4.277   6.020  17.763  0.00  0.00    +0.000 C 
ATOM     26  C   UNL     1       4.942   6.649  16.543  0.00  0.00    +0.000 C 
ENDBRANCH  23  25
ENDBRANCH  17  23
ENDBRANCH  13  20
ENDBRANCH   1  15
BRANCH   3  27
ATOM     27  S   UNL     1      -4.197  13.022  23.245  0.00  0.00    +0.000 S 
ATOM     28  O   UNL     1      -4.163  11.895  24.154  0.00  0.00    +0.000 OA
ATOM     29  O   UNL     1      -4.559  14.339  23.732  0.00  0.00    +0.000 OA
BRANCH  27  30
ATOM     30  N   UNL     1      -5.225  12.654  21.977  0.00  0.00    +0.000 NA
ATOM     31  C   UNL     1      -4.983  13.218  20.630  0.00  0.00    +0.000 C 
ATOM     32  C   UNL     1      -5.774  14.508  20.442  0.00  0.00    +0.000 C 
ATOM     33  O   UNL     1      -7.177  14.297  20.660  0.00  0.00    +0.000 OA
ATOM     34  C   UNL     1      -7.455  13.744  21.960  0.00  0.00    +0.000 C 
ATOM     35  C   UNL     1      -6.676  12.448  22.220  0.00  0.00    +0.000 C 
ENDBRANCH  27  30
ENDBRANCH   3  27
TORSDOF 7
ENDMDL
MODEL 4
REMARK VINA RESULT:      -6.9      1.119      1.270
REMARK  Name = 
REMARK  9 active torsions:
REMARK  status: ('A' for Active; 'I' for Inactive)
REMARK    1  A    between atoms: C_1  and  C_2
REMARK    2  A    between atoms: C_2  and  C_3
REMARK    3  A    between atoms: C_2  and  O_4
REMARK    4  A    between atoms: O_4  and  C_5
REMARK    5  A    between atoms: C_8  and  C_9
REMARK    6  A    between atoms: N_11  and  C_12
REMARK    7  A    between atoms: C_14  and  S_15
REMARK    8  A    between atoms: S_15  and  N_18
REMARK    9  A    between atoms: C_26  and  N_27
REMARK                            x       y       z     vdW  Elec       q    Type
REMARK                         _______ _______ _______ _____ _____    ______ ____
ROOT
ATOM      1  C   UNL     1      -0.223  12.594  21.064  0.00  0.00    +0.000 A 
ATOM      2  C   UNL     1      -1.534  12.341  21.504  0.00  0.00    +0.000 A 
ATOM      3  C   UNL     1      -2.402  13.387  21.751  0.00  0.00    +0.000 A 
ATOM      4  C   UNL     1      -1.974  14.699  21.566  0.00  0.00    +0.000 A 
ATOM      5  C   UNL     1      -0.665  14.947  21.113  0.00  0.00    +0.000 A 
ATOM      6  C   UNL     1       0.236  13.911  20.819  0.00  0.00    +0.000 A 
ENDROOT
BRANCH   6   7
ATOM      7  N   UNL     1       1.495  14.160  20.260  0.00  0.00    +0.000 N 
ATOM      8  C   UNL     1       1.653  14.300  18.797  0.00  0.00    +0.000 C 
ATOM      9  C   UNL     1       3.076  13.843  18.425  0.00  0.00    +0.000 C 
ATOM     10  O   UNL     1       4.085  14.577  19.142  0.00  0.00    +0.000 OA
ATOM     11  C   UNL     1       3.885  14.475  20.565  0.00  0.00    +0.000 C 
ATOM     12  C   UNL     1       2.490  14.995  20.968  0.00  0.00    +0.000 C 
ENDBRANCH   6   7
BRANCH   1  15
ATOM     13  C   UNL     1       0.451  10.819  19.572  0.00  0.00    +0.000 C 
ATOM     14  O   UNL     1      -0.253  11.224  18.651  0.00  0.00    +0.000 OA
ATOM     15  N   UNL     1       0.592  11.481  20.787  0.00  0.00    +0.000 N 
ATOM     16  H   UNL     1       0.867  10.958  21.605  0.00  0.00    +0.000 HD
BRANCH  13  20
ATOM     17  C   UNL     1       2.539   7.099  18.976  0.00  0.00    +0.000 A 
ATOM     18  C   UNL     1       2.388   8.022  17.945  0.00  0.00    +0.000 A 
ATOM     19  C   UNL     1       1.702   9.216  18.168  0.00  0.00    +0.000 A 
ATOM     20  C   UNL     1       1.140   9.503  19.421  0.00  0.00    +0.000 A 
ATOM     21  C   UNL     1       1.254   8.555  20.444  0.00  0.00    +0.000 A 
ATOM     22  C   UNL     1       1.948   7.362  20.214  0.00  0.00    +0.000 A 
BRANCH  17  23
ATOM     23  O   UNL     1       3.220   5.919  18.898  0.00  0.00    +0.000 OA
BRANCH  23  25
ATOM     24  C   UNL     1       4.133   4.055  17.725  0.00  0.00    +0.000 C 
ATOM     25  C   UNL     1       3.004   5.081  17.753  0.00  0.00    +0.000 C 
ATOM     26  C   UNL     1       1.651   4.389  17.882  0.00  0.00    +0.000 C 
ENDBRANCH  23  25
ENDBRANCH  17  23
ENDBRANCH  13  20
ENDBRANCH   1  15
BRANCH   3  27
ATOM     27  S   UNL     1      -4.121  13.011  22.056  0.00  0.00    +0.000 S 
ATOM     28  O   UNL     1      -4.653  12.455  20.829  0.00  0.00    +0.000 OA
ATOM     29  O   UNL     1      -4.152  12.233  23.280  0.00  0.00    +0.000 OA
BRANCH  27  30
ATOM     30  N   UNL     1      -4.893  14.464  22.362  0.00  0.00    +0.000 NA
ATOM     31  C   UNL     1      -5.407  14.766  23.717  0.00  0.00    +0.000 C 
ATOM     32  C   UNL     1      -6.873  14.360  23.834  0.00  0.00    +0.000 C 
ATOM     33  O   UNL     1      -7.674  15.001  22.831  0.00  0.00    +0.000 OA
ATOM     34  C   UNL     1      -7.203  14.735  21.496  0.00  0.00    +0.000 C 
ATOM     35  C   UNL     1      -5.727  15.109  21.315  0.00  0.00    +0.000 C 
ENDBRANCH  27  30
ENDBRANCH   3  27
TORSDOF 7
ENDMDL
MODEL 5
REMARK VINA RESULT:      -6.8      1.857      2.075
REMARK  Name = 
REMARK  9 active torsions:
REMARK  status: ('A' for Active; 'I' for Inactive)
REMARK    1  A    between atoms: C_1  and  C_2
REMARK    2  A    between atoms: C_2  and  C_3
REMARK    3  A    between atoms: C_2  and  O_4
REMARK    4  A    between atoms: O_4  and  C_5
REMARK    5  A    between atoms: C_8  and  C_9
REMARK    6  A    between atoms: N_11  and  C_12
REMARK    7  A    between atoms: C_14  and  S_15
REMARK    8  A    between atoms: S_15  and  N_18
REMARK    9  A    between atoms: C_26  and  N_27
REMARK                            x       y       z     vdW  Elec       q    Type
REMARK                         _______ _______ _______ _____ _____    ______ ____
ROOT
ATOM      1  C   UNL     1      -0.830  12.839  20.868  0.00  0.00    +0.000 A 
ATOM      2  C   UNL     1      -2.211  12.609  20.997  0.00  0.00    +0.000 A 
ATOM      3  C   UNL     1      -3.091  13.671  21.085  0.00  0.00    +0.000 A 
ATOM      4  C   UNL     1      -2.605  14.976  21.048  0.00  0.00    +0.000 A 
ATOM      5  C   UNL     1      -1.224  15.201  20.907  0.00  0.00    +0.000 A 
ATOM      6  C   UNL     1      -0.301  14.150  20.781  0.00  0.00    +0.000 A 
ENDROOT
BRANCH   6   7
ATOM      7  N   UNL     1       1.055  14.381  20.525  0.00  0.00    +0.000 N 
ATOM      8  C   UNL     1       1.491  14.940  19.228  0.00  0.00    +0.000 C 
ATOM      9  C   UNL     1       2.914  14.425  18.940  0.00  0.00    +0.000 C 
ATOM     10  O   UNL     1       3.833  14.756  19.998  0.00  0.00    +0.000 OA
ATOM     11  C   UNL     1       3.367  14.251  21.264  0.00  0.00    +0.000 C 
ATOM     12  C   UNL     1       1.971  14.811  21.605  0.00  0.00    +0.000 C 
ENDBRANCH   6   7
BRANCH   1  15
ATOM     13  C   UNL     1       0.233  11.179  19.473  0.00  0.00    +0.000 C 
ATOM     14  O   UNL     1      -0.137  11.710  18.430  0.00  0.00    +0.000 OA
ATOM     15  N   UNL     1       0.004  11.713  20.738  0.00  0.00    +0.000 N 
ATOM     16  H   UNL     1      -0.004  11.099  21.538  0.00  0.00    +0.000 HD
BRANCH  13  20
ATOM     17  C   UNL     1       2.261   7.398  19.096  0.00  0.00    +0.000 A 
ATOM     18  C   UNL     1       2.098   8.248  18.006  0.00  0.00    +0.000 A 
ATOM     19  C   UNL     1       1.433   9.464  18.159  0.00  0.00    +0.000 A 
ATOM     20  C   UNL     1       0.903   9.846  19.401  0.00  0.00    +0.000 A 
ATOM     21  C   UNL     1       1.030   8.972  20.486  0.00  0.00    +0.000 A 
ATOM     22  C   UNL     1       1.704   7.756  20.325  0.00  0.00    +0.000 A 
BRANCH  17  23
ATOM     23  O   UNL     1       2.926   6.206  19.086  0.00  0.00    +0.000 OA
BRANCH  23  25
ATOM     24  C   UNL     1       3.930   4.902  17.360  0.00  0.00    +0.000 C 
ATOM     25  C   UNL     1       2.618   5.261  18.052  0.00  0.00    +0.000 C 
ATOM     26  C   UNL     1       1.981   4.022  18.673  0.00  0.00    +0.000 C 
ENDBRANCH  23  25
ENDBRANCH  17  23
ENDBRANCH  13  20
ENDBRANCH   1  15
BRANCH   3  27
ATOM     27  S   UNL     1      -4.842  13.333  20.986  0.00  0.00    +0.000 S 
ATOM     28  O   UNL     1      -5.073  12.103  21.715  0.00  0.00    +0.000 OA
ATOM     29  O   UNL     1      -5.510  14.555  21.390  0.00  0.00    +0.000 OA
BRANCH  27  30
ATOM     30  N   UNL     1      -5.199  13.072  19.372  0.00  0.00    +0.000 NA
ATOM     31  C   UNL     1      -6.428  13.644  18.777  0.00  0.00    +0.000 C 
ATOM     32  C   UNL     1      -7.569  12.634  18.835  0.00  0.00    +0.000 C 
ATOM     33  O   UNL     1      -7.213  11.405  18.185  0.00  0.00    +0.000 OA
ATOM     34  C   UNL     1      -6.018  10.818  18.733  0.00  0.00    +0.000 C 
ATOM     35  C   UNL     1      -4.832  11.790  18.717  0.00  0.00    +0.000 C 
ENDBRANCH  27  30
ENDBRANCH   3  27
TORSDOF 7
ENDMDL
MODEL 6
REMARK VINA RESULT:      -6.8      1.346      1.560
REMARK  Name = 
REMARK  9 active torsions:
REMARK  status: ('A' for Active; 'I' for Inactive)
REMARK    1  A    between atoms: C_1  and  C_2
REMARK    2  A    between atoms: C_2  and  C_3
REMARK    3  A    between atoms: C_2  and  O_4
REMARK    4  A    between atoms: O_4  and  C_5
REMARK    5  A    between atoms: C_8  and  C_9
REMARK    6  A    between atoms: N_11  and  C_12
REMARK    7  A    between atoms: C_14  and  S_15
REMARK    8  A    between atoms: S_15  and  N_18
REMARK    9  A    between atoms: C_26  and  N_27
REMARK                            x       y       z     vdW  Elec       q    Type
REMARK                         _______ _______ _______ _____ _____    ______ ____
ROOT
ATOM      1  C   UNL     1      -0.945  12.351  20.972  0.00  0.00    +0.000 A 
ATOM      2  C   UNL     1      -2.182  12.247  21.632  0.00  0.00    +0.000 A 
ATOM      3  C   UNL     1      -2.735  13.349  22.256  0.00  0.00    +0.000 A 
ATOM      4  C   UNL     1      -2.061  14.567  22.234  0.00  0.00    +0.000 A 
ATOM      5  C   UNL     1      -0.829  14.669  21.562  0.00  0.00    +0.000 A 
ATOM      6  C   UNL     1      -0.250  13.583  20.887  0.00  0.00    +0.000 A 
ENDROOT
BRANCH   6   7
ATOM      7  N   UNL     1       0.915  13.719  20.123  0.00  0.00    +0.000 N 
ATOM      8  C   UNL     1       0.866  13.606  18.651  0.00  0.00    +0.000 C 
ATOM      9  C   UNL     1       2.229  13.077  18.167  0.00  0.00    +0.000 C 
ATOM     10  O   UNL     1       3.318  13.913  18.601  0.00  0.00    +0.000 OA
ATOM     11  C   UNL     1       3.319  14.057  20.034  0.00  0.00    +0.000 C 
ATOM     12  C   UNL     1       1.987  14.652  20.533  0.00  0.00    +0.000 C 
ENDBRANCH   6   7
BRANCH   1  15
ATOM     13  C   UNL     1       0.381  10.333  21.002  0.00  0.00    +0.000 C 
ATOM     14  O   UNL     1       0.633  10.426  22.200  0.00  0.00    +0.000 OA
ATOM     15  N   UNL     1      -0.463  11.202  20.318  0.00  0.00    +0.000 N 
ATOM     16  H   UNL     1      -0.357  11.309  19.320  0.00  0.00    +0.000 HD
BRANCH  13  20
ATOM     17  C   UNL     1       2.421   7.427  18.563  0.00  0.00    +0.000 A 
ATOM     18  C   UNL     1       1.925   8.611  18.023  0.00  0.00    +0.000 A 
ATOM     19  C   UNL     1       1.265   9.530  18.838  0.00  0.00    +0.000 A 
ATOM     20  C   UNL     1       1.073   9.276  20.205  0.00  0.00    +0.000 A 
ATOM     21  C   UNL     1       1.534   8.067  20.737  0.00  0.00    +0.000 A 
ATOM     22  C   UNL     1       2.200   7.153  19.914  0.00  0.00    +0.000 A 
BRANCH  17  23
ATOM     23  O   UNL     1       3.118   6.471  17.883  0.00  0.00    +0.000 OA
BRANCH  23  25
ATOM     24  C   UNL     1       1.883   4.442  17.677  0.00  0.00    +0.000 C 
ATOM     25  C   UNL     1       3.067   5.119  18.360  0.00  0.00    +0.000 C 
ATOM     26  C   UNL     1       4.370   4.409  18.008  0.00  0.00    +0.000 C 
ENDBRANCH  23  25
ENDBRANCH  17  23
ENDBRANCH  13  20
ENDBRANCH   1  15
BRANCH   3  27
ATOM     27  S   UNL     1      -4.414  13.232  22.853  0.00  0.00    +0.000 S 
ATOM     28  O   UNL     1      -5.100  12.290  21.993  0.00  0.00    +0.000 OA
ATOM     29  O   UNL     1      -4.319  12.982  24.278  0.00  0.00    +0.000 OA
BRANCH  27  30
ATOM     30  N   UNL     1      -5.110  14.741  22.651  0.00  0.00    +0.000 NA
ATOM     31  C   UNL     1      -5.759  15.423  23.793  0.00  0.00    +0.000 C 
ATOM     32  C   UNL     1      -7.253  15.120  23.817  0.00  0.00    +0.000 C 
ATOM     33  O   UNL     1      -7.881  15.489  22.580  0.00  0.00    +0.000 OA
ATOM     34  C   UNL     1      -7.275  14.849  21.442  0.00  0.00    +0.000 C 
ATOM     35  C   UNL     1      -5.764  15.104  21.367  0.00  0.00    +0.000 C 
ENDBRANCH  27  30
ENDBRANCH   3  27
TORSDOF 7
ENDMDL
MODEL 7
REMARK VINA RESULT:      -6.8      1.414      1.758
REMARK  Name = 
REMARK  9 active torsions:
REMARK  status: ('A' for Active; 'I' for Inactive)
REMARK    1  A    between atoms: C_1  and  C_2
REMARK    2  A    between atoms: C_2  and  C_3
REMARK    3  A    between atoms: C_2  and  O_4
REMARK    4  A    between atoms: O_4  and  C_5
REMARK    5  A    between atoms: C_8  and  C_9
REMARK    6  A    between atoms: N_11  and  C_12
REMARK    7  A    between atoms: C_14  and  S_15
REMARK    8  A    between atoms: S_15  and  N_18
REMARK    9  A    between atoms: C_26  and  N_27
REMARK                            x       y       z     vdW  Elec       q    Type
REMARK                         _______ _______ _______ _____ _____    ______ ____
ROOT
ATOM      1  C   UNL     1      -1.183  12.839  22.137  0.00  0.00    +0.000 A 
ATOM      2  C   UNL     1      -2.421  12.491  22.704  0.00  0.00    +0.000 A 
ATOM      3  C   UNL     1      -3.355  13.468  22.994  0.00  0.00    +0.000 A 
ATOM      4  C   UNL     1      -3.066  14.803  22.724  0.00  0.00    +0.000 A 
ATOM      5  C   UNL     1      -1.830  15.144  22.145  0.00  0.00    +0.000 A 
ATOM      6  C   UNL     1      -0.868  14.179  21.805  0.00  0.00    +0.000 A 
ENDROOT
BRANCH   6   7
ATOM      7  N   UNL     1       0.309  14.512  21.125  0.00  0.00    +0.000 N 
ATOM      8  C   UNL     1       0.269  14.890  19.697  0.00  0.00    +0.000 C 
ATOM      9  C   UNL     1       1.616  14.495  19.062  0.00  0.00    +0.000 C 
ATOM     10  O   UNL     1       2.732  15.099  19.742  0.00  0.00    +0.000 OA
ATOM     11  C   UNL     1       2.725  14.765  21.143  0.00  0.00    +0.000 C 
ATOM     12  C   UNL     1       1.412  15.216  21.814  0.00  0.00    +0.000 C 
ENDBRANCH   6   7
BRANCH   1  15
ATOM     13  C   UNL     1      -0.382  11.175  20.580  0.00  0.00    +0.000 C 
ATOM     14  O   UNL     1      -1.096  11.578  19.666  0.00  0.00    +0.000 OA
ATOM     15  N   UNL     1      -0.298  11.790  21.825  0.00  0.00    +0.000 N 
ATOM     16  H   UNL     1      -0.003  11.248  22.624  0.00  0.00    +0.000 HD
BRANCH  13  20
ATOM     17  C   UNL     1       1.943   7.621  19.864  0.00  0.00    +0.000 A 
ATOM     18  C   UNL     1       1.804   8.607  18.892  0.00  0.00    +0.000 A 
ATOM     19  C   UNL     1       1.040   9.745  19.152  0.00  0.00    +0.000 A 
ATOM     20  C   UNL     1       0.388   9.911  20.383  0.00  0.00    +0.000 A 
ATOM     21  C   UNL     1       0.494   8.899  21.344  0.00  0.00    +0.000 A 
ATOM     22  C   UNL     1       1.266   7.764  21.077  0.00  0.00    +0.000 A 
BRANCH  17  23
ATOM     23  O   UNL     1       2.693   6.487  19.748  0.00  0.00    +0.000 OA
BRANCH  23  25
ATOM     24  C   UNL     1       2.491   4.633  18.262  0.00  0.00    +0.000 C 
ATOM     25  C   UNL     1       2.015   5.234  19.581  0.00  0.00    +0.000 C 
ATOM     26  C   UNL     1       2.361   4.313  20.747  0.00  0.00    +0.000 C 
ENDBRANCH  23  25
ENDBRANCH  17  23
ENDBRANCH  13  20
ENDBRANCH   1  15
BRANCH   3  27
ATOM     27  S   UNL     1      -4.999  12.956  23.468  0.00  0.00    +0.000 S 
ATOM     28  O   UNL     1      -4.844  11.885  24.431  0.00  0.00    +0.000 OA
ATOM     29  O   UNL     1      -5.708  14.167  23.835  0.00  0.00    +0.000 OA
BRANCH  27  30
ATOM     30  N   UNL     1      -5.734  12.338  22.097  0.00  0.00    +0.000 NA
ATOM     31  C   UNL     1      -5.209  12.671  20.754  0.00  0.00    +0.000 C 
ATOM     32  C   UNL     1      -5.940  13.879  20.179  0.00  0.00    +0.000 C 
ATOM     33  O   UNL     1      -7.358  13.658  20.132  0.00  0.00    +0.000 OA
ATOM     34  C   UNL     1      -7.908  13.326  21.420  0.00  0.00    +0.000 C 
ATOM     35  C   UNL     1      -7.203  12.124  22.061  0.00  0.00    +0.000 C 
ENDBRANCH  27  30
ENDBRANCH   3  27
TORSDOF 7
ENDMDL
MODEL 8
REMARK VINA RESULT:      -6.8      1.235      1.785
REMARK  Name = 
REMARK  9 active torsions:
REMARK  status: ('A' for Active; 'I' for Inactive)
REMARK    1  A    between atoms: C_1  and  C_2
REMARK    2  A    between atoms: C_2  and  C_3
REMARK    3  A    between atoms: C_2  and  O_4
REMARK    4  A    between atoms: O_4  and  C_5
REMARK    5  A    between atoms: C_8  and  C_9
REMARK    6  A    between atoms: N_11  and  C_12
REMARK    7  A    between atoms: C_14  and  S_15
REMARK    8  A    between atoms: S_15  and  N_18
REMARK    9  A    between atoms: C_26  and  N_27
REMARK                            x       y       z     vdW  Elec       q    Type
REMARK                         _______ _______ _______ _____ _____    ______ ____
ROOT
ATOM      1  C   UNL     1      -0.943  12.363  21.462  0.00  0.00    +0.000 A 
ATOM      2  C   UNL     1      -2.141  12.186  22.175  0.00  0.00    +0.000 A 
ATOM      3  C   UNL     1      -2.676  13.228  22.909  0.00  0.00    +0.000 A 
ATOM      4  C   UNL     1      -2.022  14.457  22.945  0.00  0.00    +0.000 A 
ATOM      5  C   UNL     1      -0.830  14.632  22.219  0.00  0.00    +0.000 A 
ATOM      6  C   UNL     1      -0.271  13.610  21.434  0.00  0.00    +0.000 A 
ENDROOT
BRANCH   6   7
ATOM      7  N   UNL     1       0.849  13.825  20.624  0.00  0.00    +0.000 N 
ATOM      8  C   UNL     1       2.169  13.282  21.008  0.00  0.00    +0.000 C 
ATOM      9  C   UNL     1       3.253  14.209  20.426  0.00  0.00    +0.000 C 
ATOM     10  O   UNL     1       3.132  14.355  18.999  0.00  0.00    +0.000 OA
ATOM     11  C   UNL     1       1.822  14.833  18.638  0.00  0.00    +0.000 C 
ATOM     12  C   UNL     1       0.723  13.880  19.151  0.00  0.00    +0.000 C 
ENDBRANCH   6   7
BRANCH   1  15
ATOM     13  C   UNL     1       0.317  10.309  21.303  0.00  0.00    +0.000 C 
ATOM     14  O   UNL     1       0.538  10.263  22.510  0.00  0.00    +0.000 OA
ATOM     15  N   UNL     1      -0.479  11.276  20.698  0.00  0.00    +0.000 N 
ATOM     16  H   UNL     1      -0.342  11.487  19.721  0.00  0.00    +0.000 HD
BRANCH  13  20
ATOM     17  C   UNL     1       2.321   7.613  18.606  0.00  0.00    +0.000 A 
ATOM     18  C   UNL     1       1.820   8.838  18.172  0.00  0.00    +0.000 A 
ATOM     19  C   UNL     1       1.172   9.687  19.069  0.00  0.00    +0.000 A 
ATOM     20  C   UNL     1       0.997   9.321  20.413  0.00  0.00    +0.000 A 
ATOM     21  C   UNL     1       1.462   8.072  20.837  0.00  0.00    +0.000 A 
ATOM     22  C   UNL     1       2.116   7.228  19.933  0.00  0.00    +0.000 A 
BRANCH  17  23
ATOM     23  O   UNL     1       3.007   6.716  17.841  0.00  0.00    +0.000 OA
BRANCH  23  25
ATOM     24  C   UNL     1       2.598   4.372  17.697  0.00  0.00    +0.000 C 
ATOM     25  C   UNL     1       3.378   5.460  18.427  0.00  0.00    +0.000 C 
ATOM     26  C   UNL     1       4.879   5.250  18.261  0.00  0.00    +0.000 C 
ENDBRANCH  23  25
ENDBRANCH  17  23
ENDBRANCH  13  20
ENDBRANCH   1  15
BRANCH   3  27
ATOM     27  S   UNL     1      -4.320  13.036  23.581  0.00  0.00    +0.000 S 
ATOM     28  O   UNL     1      -4.287  11.874  24.445  0.00  0.00    +0.000 OA
ATOM     29  O   UNL     1      -4.689  14.331  24.119  0.00  0.00    +0.000 OA
BRANCH  27  30
ATOM     30  N   UNL     1      -5.340  12.715  22.294  0.00  0.00    +0.000 NA
ATOM     31  C   UNL     1      -5.089  13.329  20.971  0.00  0.00    +0.000 C 
ATOM     32  C   UNL     1      -5.879  14.625  20.825  0.00  0.00    +0.000 C 
ATOM     33  O   UNL     1      -7.283  14.406  21.027  0.00  0.00    +0.000 OA
ATOM     34  C   UNL     1      -7.570  13.805  22.303  0.00  0.00    +0.000 C 
ATOM     35  C   UNL     1      -6.793  12.500  22.520  0.00  0.00    +0.000 C 
ENDBRANCH  27  30
ENDBRANCH   3  27
TORSDOF 7
ENDMDL
MODEL 9
REMARK VINA RESULT:      -6.8      1.755      2.377
REMARK  Name = 
REMARK  9 active torsions:
REMARK  status: ('A' for Active; 'I' for Inactive)
REMARK    1  A    between atoms: C_1  and  C_2
REMARK    2  A    between atoms: C_2  and  C_3
REMARK    3  A    between atoms: C_2  and  O_4
REMARK    4  A    between atoms: O_4  and  C_5
REMARK    5  A    between atoms: C_8  and  C_9
REMARK    6  A    between atoms: N_11  and  C_12
REMARK    7  A    between atoms: C_14  and  S_15
REMARK    8  A    between atoms: S_15  and  N_18
REMARK    9  A    between atoms: C_26  and  N_27
REMARK                            x       y       z     vdW  Elec       q    Type
REMARK                         _______ _______ _______ _____ _____    ______ ____
ROOT
ATOM      1  C   UNL     1      -0.899  12.659  20.847  0.00  0.00    +0.000 A 
ATOM      2  C   UNL     1      -2.252  12.379  21.104  0.00  0.00    +0.000 A 
ATOM      3  C   UNL     1      -3.180  13.402  21.153  0.00  0.00    +0.000 A 
ATOM      4  C   UNL     1      -2.770  14.717  20.949  0.00  0.00    +0.000 A 
ATOM      5  C   UNL     1      -1.416  14.991  20.680  0.00  0.00    +0.000 A 
ATOM      6  C   UNL     1      -0.449  13.977  20.588  0.00  0.00    +0.000 A 
ENDROOT
BRANCH   6   7
ATOM      7  N   UNL     1       0.870  14.242  20.206  0.00  0.00    +0.000 N 
ATOM      8  C   UNL     1       1.166  14.822  18.880  0.00  0.00    +0.000 C 
ATOM      9  C   UNL     1       2.567  14.345  18.452  0.00  0.00    +0.000 C 
ATOM     10  O   UNL     1       3.575  14.690  19.421  0.00  0.00    +0.000 OA
ATOM     11  C   UNL     1       3.244  14.164  20.720  0.00  0.00    +0.000 C 
ATOM     12  C   UNL     1       1.874  14.687  21.198  0.00  0.00    +0.000 C 
ENDBRANCH   6   7
BRANCH   1  15
ATOM     13  C   UNL     1       0.175  10.935  19.539  0.00  0.00    +0.000 C 
ATOM     14  O   UNL     1      -0.275  11.356  18.477  0.00  0.00    +0.000 OA
ATOM     15  N   UNL     1      -0.017  11.565  20.765  0.00  0.00    +0.000 N 
ATOM     16  H   UNL     1       0.047  11.022  21.613  0.00  0.00    +0.000 HD
BRANCH  13  20
ATOM     17  C   UNL     1       2.175   7.124  19.709  0.00  0.00    +0.000 A 
ATOM     18  C   UNL     1       1.541   7.664  20.825  0.00  0.00    +0.000 A 
ATOM     19  C   UNL     1       0.906   8.903  20.739  0.00  0.00    +0.000 A 
ATOM     20  C   UNL     1       0.906   9.633  19.542  0.00  0.00    +0.000 A 
ATOM     21  C   UNL     1       1.581   9.110  18.433  0.00  0.00    +0.000 A 
ATOM     22  C   UNL     1       2.211   7.864  18.525  0.00  0.00    +0.000 A 
BRANCH  17  23
ATOM     23  O   UNL     1       2.793   5.909  19.652  0.00  0.00    +0.000 OA
BRANCH  23  25
ATOM     24  C   UNL     1       3.092   3.942  18.339  0.00  0.00    +0.000 C 
ATOM     25  C   UNL     1       2.077   4.804  19.083  0.00  0.00    +0.000 C 
ATOM     26  C   UNL     1       1.409   4.007  20.198  0.00  0.00    +0.000 C 
ENDBRANCH  23  25
ENDBRANCH  17  23
ENDBRANCH  13  20
ENDBRANCH   1  15
BRANCH   3  27
ATOM     27  S   UNL     1      -4.913  12.975  21.225  0.00  0.00    +0.000 S 
ATOM     28  O   UNL     1      -5.126  12.300  22.488  0.00  0.00    +0.000 OA
ATOM     29  O   UNL     1      -5.640  14.191  20.917  0.00  0.00    +0.000 OA
BRANCH  27  30
ATOM     30  N   UNL     1      -5.200  11.888  19.985  0.00  0.00    +0.000 NA
ATOM     31  C   UNL     1      -4.810  12.220  18.596  0.00  0.00    +0.000 C 
ATOM     32  C   UNL     1      -5.980  12.850  17.849  0.00  0.00    +0.000 C 
ATOM     33  O   UNL     1      -7.132  11.994  17.864  0.00  0.00    +0.000 OA
ATOM     34  C   UNL     1      -7.542  11.644  19.199  0.00  0.00    +0.000 C 
ATOM     35  C   UNL     1      -6.402  11.016  20.011  0.00  0.00    +0.000 C 
ENDBRANCH  27  30
ENDBRANCH   3  27
TORSDOF 7
ENDMDL
