MODEL 1
REMARK VINA RESULT:      -5.9      0.000      0.000
REMARK  Name = 
REMARK  3 active torsions:
REMARK  status: ('A' for Active; 'I' for Inactive)
REMARK    1  A    between atoms: C_1  and  C_2
REMARK    2  A    between atoms: N_5  and  C_6
REMARK    3  A    between atoms: C_18  and  C_19
REMARK                            x       y       z     vdW  Elec       q    Type
REMARK                         _______ _______ _______ _____ _____    ______ ____
ROOT
ATOM      1  C   UNL     1       1.395   9.562  17.832  0.00  0.00    +0.000 C 
ATOM      2  C   UNL     1       1.063  10.134  19.174  0.00  0.00    +0.000 C 
ATOM      3  C   UNL     1       0.101  11.016  19.568  0.00  0.00    +0.000 C 
ATOM      4  C   UNL     1       0.346  11.752  20.819  0.00  0.00    +0.000 C 
ATOM      5  N   UNL     1       0.722  13.235  20.536  0.00  0.00    +0.000 N 
ATOM      6  C   UNL     1       2.222  13.354  20.306  0.00  0.00    +0.000 C 
ATOM      7  C   UNL     1       0.406  13.963  21.874  0.00  0.00    +0.000 C 
ATOM      8  C   UNL     1      -0.939  14.653  21.914  0.00  0.00    +0.000 C 
ATOM      9  C   UNL     1      -2.039  13.631  21.737  0.00  0.00    +0.000 A 
ATOM     10  C   UNL     1      -2.575  13.305  20.493  0.00  0.00    +0.000 A 
ATOM     11  N   UNL     1      -3.643  14.265  20.455  0.00  0.00    +0.000 N 
ATOM     12  C   UNL     1      -3.935  14.636  21.808  0.00  0.00    +0.000 A 
ATOM     13  C   UNL     1      -5.029  15.263  22.411  0.00  0.00    +0.000 A 
ATOM     14  C   UNL     1      -5.697  14.473  23.364  0.00  0.00    +0.000 A 
ATOM     15  C   UNL     1      -5.276  13.165  23.624  0.00  0.00    +0.000 A 
ATOM     16  C   UNL     1      -4.025  12.726  23.183  0.00  0.00    +0.000 A 
ATOM     17  C   UNL     1      -3.231  13.648  22.481  0.00  0.00    +0.000 A 
ATOM     18  C   UNL     1      -2.441  11.984  19.669  0.00  0.00    +0.000 C 
ATOM     19  C   UNL     1      -1.104  11.636  18.825  0.00  0.00    +0.000 C 
ATOM     20  C   UNL     1      -0.457  12.847  18.193  0.00  0.00    +0.000 C 
ATOM     21  C   UNL     1       0.044  13.854  19.237  0.00  0.00    +0.000 C 
ATOM     22  H   UNL     1      -4.319  14.328  19.700  0.00  0.00    +0.000 HD
ENDROOT
BRANCH  18  23
ATOM     23  C   UNL     1      -3.613  11.827  18.683  0.00  0.00    +0.000 C 
ATOM     24  O   UNL     1      -4.758  12.006  19.188  0.00  0.00    +0.000 OA
ATOM     25  O   UNL     1      -3.283  11.544  17.497  0.00  0.00    +0.000 OA
ENDBRANCH  18  23
TORSDOF 1
ENDMDL
MODEL 2
REMARK VINA RESULT:      -5.6      8.702     11.881
REMARK  Name = 
REMARK  3 active torsions:
REMARK  status: ('A' for Active; 'I' for Inactive)
REMARK    1  A    between atoms: C_1  and  C_2
REMARK    2  A    between atoms: N_5  and  C_6
REMARK    3  A    between atoms: C_18  and  C_19
REMARK                            x       y       z     vdW  Elec       q    Type
REMARK                         _______ _______ _______ _____ _____    ______ ____
ROOT
ATOM      1  C   UNL     1       4.896  17.632  23.298  0.00  0.00    +0.000 C 
ATOM      2  C   UNL     1       4.984  16.451  22.385  0.00  0.00    +0.000 C 
ATOM      3  C   UNL     1       5.968  16.031  21.541  0.00  0.00    +0.000 C 
ATOM      4  C   UNL     1       5.565  15.149  20.434  0.00  0.00    +0.000 C 
ATOM      5  N   UNL     1       5.574  15.908  19.076  0.00  0.00    +0.000 N 
ATOM      6  C   UNL     1       4.234  16.600  18.862  0.00  0.00    +0.000 C 
ATOM      7  C   UNL     1       5.677  14.776  18.014  0.00  0.00    +0.000 C 
ATOM      8  C   UNL     1       7.076  14.515  17.505  0.00  0.00    +0.000 C 
ATOM      9  C   UNL     1       7.961  14.081  18.652  0.00  0.00    +0.000 A 
ATOM     10  C   UNL     1       8.720  14.977  19.402  0.00  0.00    +0.000 A 
ATOM     11  N   UNL     1       9.930  14.942  18.629  0.00  0.00    +0.000 N 
ATOM     12  C   UNL     1       9.937  13.708  17.898  0.00  0.00    +0.000 A 
ATOM     13  C   UNL     1      10.944  12.990  17.247  0.00  0.00    +0.000 A 
ATOM     14  C   UNL     1      11.178  11.710  17.778  0.00  0.00    +0.000 A 
ATOM     15  C   UNL     1      10.456  11.256  18.886  0.00  0.00    +0.000 A 
ATOM     16  C   UNL     1       9.296  11.922  19.292  0.00  0.00    +0.000 A 
ATOM     17  C   UNL     1       8.904  13.045  18.545  0.00  0.00    +0.000 A 
ATOM     18  C   UNL     1       8.541  15.427  20.887  0.00  0.00    +0.000 C 
ATOM     19  C   UNL     1       7.420  16.513  21.322  0.00  0.00    +0.000 C 
ATOM     20  C   UNL     1       7.207  17.603  20.296  0.00  0.00    +0.000 C 
ATOM     21  C   UNL     1       6.667  17.058  18.967  0.00  0.00    +0.000 C 
ATOM     22  H   UNL     1      10.774  15.447  18.879  0.00  0.00    +0.000 HD
ENDROOT
BRANCH  18  23
ATOM     23  C   UNL     1       9.870  15.940  21.473  0.00  0.00    +0.000 C 
ATOM     24  O   UNL     1      10.198  15.418  22.577  0.00  0.00    +0.000 OA
ATOM     25  O   UNL     1      10.465  16.810  20.777  0.00  0.00    +0.000 OA
ENDBRANCH  18  23
TORSDOF 1
ENDMDL
MODEL 3
REMARK VINA RESULT:      -5.6      2.842      6.065
REMARK  Name = 
REMARK  3 active torsions:
REMARK  status: ('A' for Active; 'I' for Inactive)
REMARK    1  A    between atoms: C_1  and  C_2
REMARK    2  A    between atoms: N_5  and  C_6
REMARK    3  A    between atoms: C_18  and  C_19
REMARK                            x       y       z     vdW  Elec       q    Type
REMARK                         _______ _______ _______ _____ _____    ______ ____
ROOT
ATOM      1  C   UNL     1      -1.115  16.658  26.492  0.00  0.00    +0.000 C 
ATOM      2  C   UNL     1      -1.686  15.440  25.837  0.00  0.00    +0.000 C 
ATOM      3  C   UNL     1      -1.634  14.997  24.549  0.00  0.00    +0.000 C 
ATOM      4  C   UNL     1      -2.690  14.064  24.123  0.00  0.00    +0.000 C 
ATOM      5  N   UNL     1      -3.719  14.765  23.191  0.00  0.00    +0.000 N 
ATOM      6  C   UNL     1      -4.803  15.431  24.027  0.00  0.00    +0.000 C 
ATOM      7  C   UNL     1      -4.391  13.590  22.424  0.00  0.00    +0.000 C 
ATOM      8  C   UNL     1      -3.819  13.325  21.050  0.00  0.00    +0.000 C 
ATOM      9  C   UNL     1      -2.359  12.950  21.172  0.00  0.00    +0.000 A 
ATOM     10  C   UNL     1      -1.330  13.886  21.096  0.00  0.00    +0.000 A 
ATOM     11  N   UNL     1      -1.088  13.833  19.680  0.00  0.00    +0.000 N 
ATOM     12  C   UNL     1      -1.577  12.571  19.209  0.00  0.00    +0.000 A 
ATOM     13  C   UNL     1      -1.355  11.838  18.039  0.00  0.00    +0.000 A 
ATOM     14  C   UNL     1      -0.754  10.584  18.246  0.00  0.00    +0.000 A 
ATOM     15  C   UNL     1      -0.401  10.168  19.533  0.00  0.00    +0.000 A 
ATOM     16  C   UNL     1      -0.904  10.837  20.653  0.00  0.00    +0.000 A 
ATOM     17  C   UNL     1      -1.765  11.922  20.421  0.00  0.00    +0.000 A 
ATOM     18  C   UNL     1      -0.368  14.397  22.215  0.00  0.00    +0.000 C 
ATOM     19  C   UNL     1      -0.841  15.487  23.317  0.00  0.00    +0.000 C 
ATOM     20  C   UNL     1      -1.786  16.529  22.766  0.00  0.00    +0.000 C 
ATOM     21  C   UNL     1      -3.111  15.922  22.285  0.00  0.00    +0.000 C 
ATOM     22  H   UNL     1      -0.358  14.359  19.212  0.00  0.00    +0.000 HD
ENDROOT
BRANCH  18  23
ATOM     23  C   UNL     1       0.938  14.950  21.613  0.00  0.00    +0.000 C 
ATOM     24  O   UNL     1       1.992  14.571  22.198  0.00  0.00    +0.000 OA
ATOM     25  O   UNL     1       0.790  15.705  20.611  0.00  0.00    +0.000 OA
ENDBRANCH  18  23
TORSDOF 1
ENDMDL
MODEL 4
REMARK VINA RESULT:      -5.6      2.413      5.728
REMARK  Name = 
REMARK  3 active torsions:
REMARK  status: ('A' for Active; 'I' for Inactive)
REMARK    1  A    between atoms: C_1  and  C_2
REMARK    2  A    between atoms: N_5  and  C_6
REMARK    3  A    between atoms: C_18  and  C_19
REMARK                            x       y       z     vdW  Elec       q    Type
REMARK                         _______ _______ _______ _____ _____    ______ ____
ROOT
ATOM      1  C   UNL     1      -3.881  16.959  24.932  0.00  0.00    +0.000 C 
ATOM      2  C   UNL     1      -3.752  16.686  23.467  0.00  0.00    +0.000 C 
ATOM      3  C   UNL     1      -3.057  15.734  22.781  0.00  0.00    +0.000 C 
ATOM      4  C   UNL     1      -2.728  16.031  21.378  0.00  0.00    +0.000 C 
ATOM      5  N   UNL     1      -1.220  16.373  21.213  0.00  0.00    +0.000 N 
ATOM      6  C   UNL     1      -0.996  17.858  21.461  0.00  0.00    +0.000 C 
ATOM      7  C   UNL     1      -0.941  16.115  19.704  0.00  0.00    +0.000 C 
ATOM      8  C   UNL     1      -0.333  14.765  19.397  0.00  0.00    +0.000 C 
ATOM      9  C   UNL     1      -1.284  13.671  19.829  0.00  0.00    +0.000 A 
ATOM     10  C   UNL     1      -1.232  13.078  21.089  0.00  0.00    +0.000 A 
ATOM     11  N   UNL     1      -0.335  11.997  20.786  0.00  0.00    +0.000 N 
ATOM     12  C   UNL     1      -0.401  11.768  19.372  0.00  0.00    +0.000 A 
ATOM     13  C   UNL     1      -0.017  10.697  18.560  0.00  0.00    +0.000 A 
ATOM     14  C   UNL     1      -1.076  10.088  17.864  0.00  0.00    +0.000 A 
ATOM     15  C   UNL     1      -2.389  10.538  18.033  0.00  0.00    +0.000 A 
ATOM     16  C   UNL     1      -2.639  11.772  18.641  0.00  0.00    +0.000 A 
ATOM     17  C   UNL     1      -1.526  12.518  19.064  0.00  0.00    +0.000 A 
ATOM     18  C   UNL     1      -2.237  13.187  22.279  0.00  0.00    +0.000 C 
ATOM     19  C   UNL     1      -2.275  14.486  23.248  0.00  0.00    +0.000 C 
ATOM     20  C   UNL     1      -0.912  15.084  23.509  0.00  0.00    +0.000 C 
ATOM     21  C   UNL     1      -0.256  15.623  22.231  0.00  0.00    +0.000 C 
ATOM     22  H   UNL     1      -0.065  11.283  21.455  0.00  0.00    +0.000 HD
ENDROOT
BRANCH  18  23
ATOM     23  C   UNL     1      -2.120  11.970  23.215  0.00  0.00    +0.000 C 
ATOM     24  O   UNL     1      -3.212  11.588  23.725  0.00  0.00    +0.000 OA
ATOM     25  O   UNL     1      -0.953  11.505  23.350  0.00  0.00    +0.000 OA
ENDBRANCH  18  23
TORSDOF 1
ENDMDL
MODEL 5
REMARK VINA RESULT:      -5.6      1.922      2.239
REMARK  Name = 
REMARK  3 active torsions:
REMARK  status: ('A' for Active; 'I' for Inactive)
REMARK    1  A    between atoms: C_1  and  C_2
REMARK    2  A    between atoms: N_5  and  C_6
REMARK    3  A    between atoms: C_18  and  C_19
REMARK                            x       y       z     vdW  Elec       q    Type
REMARK                         _______ _______ _______ _____ _____    ______ ____
ROOT
ATOM      1  C   UNL     1       1.216   9.280  18.332  0.00  0.00    +0.000 C 
ATOM      2  C   UNL     1       0.297   9.669  19.447  0.00  0.00    +0.000 C 
ATOM      3  C   UNL     1      -0.805  10.471  19.473  0.00  0.00    +0.000 C 
ATOM      4  C   UNL     1      -1.178  11.047  20.775  0.00  0.00    +0.000 C 
ATOM      5  N   UNL     1      -0.832  12.562  20.840  0.00  0.00    +0.000 N 
ATOM      6  C   UNL     1       0.608  12.744  21.301  0.00  0.00    +0.000 C 
ATOM      7  C   UNL     1      -1.746  13.106  21.975  0.00  0.00    +0.000 C 
ATOM      8  C   UNL     1      -3.026  13.753  21.498  0.00  0.00    +0.000 C 
ATOM      9  C   UNL     1      -3.862  12.737  20.753  0.00  0.00    +0.000 A 
ATOM     10  C   UNL     1      -3.785  12.559  19.374  0.00  0.00    +0.000 A 
ATOM     11  N   UNL     1      -4.803  13.491  18.975  0.00  0.00    +0.000 N 
ATOM     12  C   UNL     1      -5.676  13.680  20.097  0.00  0.00    +0.000 A 
ATOM     13  C   UNL     1      -6.967  14.198  20.225  0.00  0.00    +0.000 A 
ATOM     14  C   UNL     1      -7.917  13.279  20.704  0.00  0.00    +0.000 A 
ATOM     15  C   UNL     1      -7.550  11.959  20.983  0.00  0.00    +0.000 A 
ATOM     16  C   UNL     1      -6.201  11.609  21.087  0.00  0.00    +0.000 A 
ATOM     17  C   UNL     1      -5.255  12.630  20.901  0.00  0.00    +0.000 A 
ATOM     18  C   UNL     1      -3.210  11.358  18.558  0.00  0.00    +0.000 C 
ATOM     19  C   UNL     1      -1.617  11.151  18.348  0.00  0.00    +0.000 C 
ATOM     20  C   UNL     1      -0.856  12.448  18.192  0.00  0.00    +0.000 C 
ATOM     21  C   UNL     1      -0.931  13.325  19.449  0.00  0.00    +0.000 C 
ATOM     22  H   UNL     1      -5.092  13.634  18.013  0.00  0.00    +0.000 HD
ENDROOT
BRANCH  18  23
ATOM     23  C   UNL     1      -3.829  11.300  17.149  0.00  0.00    +0.000 C 
ATOM     24  O   UNL     1      -3.010  11.045  16.221  0.00  0.00    +0.000 OA
ATOM     25  O   UNL     1      -5.074  11.508  17.100  0.00  0.00    +0.000 OA
ENDBRANCH  18  23
TORSDOF 1
ENDMDL
MODEL 6
REMARK VINA RESULT:      -5.5      2.352      5.579
REMARK  Name = 
REMARK  3 active torsions:
REMARK  status: ('A' for Active; 'I' for Inactive)
REMARK    1  A    between atoms: C_1  and  C_2
REMARK    2  A    between atoms: N_5  and  C_6
REMARK    3  A    between atoms: C_18  and  C_19
REMARK                            x       y       z     vdW  Elec       q    Type
REMARK                         _______ _______ _______ _____ _____    ______ ____
ROOT
ATOM      1  C   UNL     1      -5.894  18.020  20.390  0.00  0.00    +0.000 C 
ATOM      2  C   UNL     1      -4.504  17.492  20.544  0.00  0.00    +0.000 C 
ATOM      3  C   UNL     1      -4.032  16.324  21.066  0.00  0.00    +0.000 C 
ATOM      4  C   UNL     1      -2.635  16.318  21.530  0.00  0.00    +0.000 C 
ATOM      5  N   UNL     1      -2.558  16.328  23.083  0.00  0.00    +0.000 N 
ATOM      6  C   UNL     1      -2.601  17.761  23.594  0.00  0.00    +0.000 C 
ATOM      7  C   UNL     1      -1.135  15.777  23.390  0.00  0.00    +0.000 C 
ATOM      8  C   UNL     1      -1.088  14.304  23.723  0.00  0.00    +0.000 C 
ATOM      9  C   UNL     1      -1.590  13.501  22.544  0.00  0.00    +0.000 A 
ATOM     10  C   UNL     1      -2.923  13.123  22.399  0.00  0.00    +0.000 A 
ATOM     11  N   UNL     1      -2.867  11.854  23.069  0.00  0.00    +0.000 N 
ATOM     12  C   UNL     1      -1.502  11.414  23.040  0.00  0.00    +0.000 A 
ATOM     13  C   UNL     1      -0.896  10.171  23.241  0.00  0.00    +0.000 A 
ATOM     14  C   UNL     1      -0.206   9.674  22.121  0.00  0.00    +0.000 A 
ATOM     15  C   UNL     1      -0.187  10.393  20.922  0.00  0.00    +0.000 A 
ATOM     16  C   UNL     1      -0.581  11.734  20.897  0.00  0.00    +0.000 A 
ATOM     17  C   UNL     1      -0.986  12.308  22.113  0.00  0.00    +0.000 A 
ATOM     18  C   UNL     1      -3.990  13.619  21.371  0.00  0.00    +0.000 C 
ATOM     19  C   UNL     1      -4.747  15.041  21.545  0.00  0.00    +0.000 C 
ATOM     20  C   UNL     1      -5.038  15.397  22.984  0.00  0.00    +0.000 C 
ATOM     21  C   UNL     1      -3.758  15.581  23.811  0.00  0.00    +0.000 C 
ATOM     22  H   UNL     1      -3.656  11.220  23.147  0.00  0.00    +0.000 HD
ENDROOT
BRANCH  18  23
ATOM     23  C   UNL     1      -5.102  12.572  21.179  0.00  0.00    +0.000 C 
ATOM     24  O   UNL     1      -5.633  12.162  22.250  0.00  0.00    +0.000 OA
ATOM     25  O   UNL     1      -5.346  12.260  19.979  0.00  0.00    +0.000 OA
ENDBRANCH  18  23
TORSDOF 1
ENDMDL
MODEL 7
REMARK VINA RESULT:      -5.5      2.731      5.402
REMARK  Name = 
REMARK  3 active torsions:
REMARK  status: ('A' for Active; 'I' for Inactive)
REMARK    1  A    between atoms: C_1  and  C_2
REMARK    2  A    between atoms: N_5  and  C_6
REMARK    3  A    between atoms: C_18  and  C_19
REMARK                            x       y       z     vdW  Elec       q    Type
REMARK                         _______ _______ _______ _____ _____    ______ ____
ROOT
ATOM      1  C   UNL     1      -1.314  17.230  24.330  0.00  0.00    +0.000 C 
ATOM      2  C   UNL     1      -1.647  16.901  22.910  0.00  0.00    +0.000 C 
ATOM      3  C   UNL     1      -1.422  15.782  22.165  0.00  0.00    +0.000 C 
ATOM      4  C   UNL     1      -1.407  15.947  20.702  0.00  0.00    +0.000 C 
ATOM      5  N   UNL     1       0.041  15.866  20.140  0.00  0.00    +0.000 N 
ATOM      6  C   UNL     1       0.692  17.241  20.189  0.00  0.00    +0.000 C 
ATOM      7  C   UNL     1      -0.159  15.508  18.639  0.00  0.00    +0.000 C 
ATOM      8  C   UNL     1      -0.018  14.039  18.317  0.00  0.00    +0.000 C 
ATOM      9  C   UNL     1      -1.068  13.251  19.068  0.00  0.00    +0.000 A 
ATOM     10  C   UNL     1      -0.841  12.694  20.325  0.00  0.00    +0.000 A 
ATOM     11  N   UNL     1      -0.360  11.405  19.911  0.00  0.00    +0.000 N 
ATOM     12  C   UNL     1      -0.849  11.170  18.584  0.00  0.00    +0.000 A 
ATOM     13  C   UNL     1      -0.977  10.018  17.804  0.00  0.00    +0.000 A 
ATOM     14  C   UNL     1      -2.300   9.702  17.449  0.00  0.00    +0.000 A 
ATOM     15  C   UNL     1      -3.364  10.493  17.893  0.00  0.00    +0.000 A 
ATOM     16  C   UNL     1      -3.124  11.761  18.429  0.00  0.00    +0.000 A 
ATOM     17  C   UNL     1      -1.788  12.189  18.495  0.00  0.00    +0.000 A 
ATOM     18  C   UNL     1      -1.437  13.097  21.711  0.00  0.00    +0.000 C 
ATOM     19  C   UNL     1      -0.890  14.379  22.536  0.00  0.00    +0.000 C 
ATOM     20  C   UNL     1       0.600  14.594  22.398  0.00  0.00    +0.000 C 
ATOM     21  C   UNL     1       1.014  14.907  20.954  0.00  0.00    +0.000 C 
ATOM     22  H   UNL     1      -0.116  10.660  20.555  0.00  0.00    +0.000 HD
ENDROOT
BRANCH  18  23
ATOM     23  C   UNL     1      -1.394  11.915  22.697  0.00  0.00    +0.000 C 
ATOM     24  O   UNL     1      -2.474  11.705  23.320  0.00  0.00    +0.000 OA
ATOM     25  O   UNL     1      -0.290  11.302  22.754  0.00  0.00    +0.000 OA
ENDBRANCH  18  23
TORSDOF 1
ENDMDL
MODEL 8
REMARK VINA RESULT:      -5.4      2.329      5.532
REMARK  Name = 
REMARK  3 active torsions:
REMARK  status: ('A' for Active; 'I' for Inactive)
REMARK    1  A    between atoms: C_1  and  C_2
REMARK    2  A    between atoms: N_5  and  C_6
REMARK    3  A    between atoms: C_18  and  C_19
REMARK                            x       y       z     vdW  Elec       q    Type
REMARK                         _______ _______ _______ _____ _____    ______ ____
ROOT
ATOM      1  C   UNL     1      -2.948  17.739  23.780  0.00  0.00    +0.000 C 
ATOM      2  C   UNL     1      -2.723  17.301  22.368  0.00  0.00    +0.000 C 
ATOM      3  C   UNL     1      -2.287  16.119  21.846  0.00  0.00    +0.000 C 
ATOM      4  C   UNL     1      -1.700  16.164  20.496  0.00  0.00    +0.000 C 
ATOM      5  N   UNL     1      -0.154  16.003  20.550  0.00  0.00    +0.000 N 
ATOM      6  C   UNL     1       0.501  17.362  20.756  0.00  0.00    +0.000 C 
ATOM      7  C   UNL     1       0.223  15.527  19.117  0.00  0.00    +0.000 C 
ATOM      8  C   UNL     1       0.399  14.033  18.974  0.00  0.00    +0.000 C 
ATOM      9  C   UNL     1      -0.900  13.334  19.307  0.00  0.00    +0.000 A 
ATOM     10  C   UNL     1      -1.206  12.878  20.588  0.00  0.00    +0.000 A 
ATOM     11  N   UNL     1      -0.673  11.549  20.481  0.00  0.00    +0.000 N 
ATOM     12  C   UNL     1      -0.623  11.217  19.087  0.00  0.00    +0.000 A 
ATOM     13  C   UNL     1      -0.501  10.007  18.398  0.00  0.00    +0.000 A 
ATOM     14  C   UNL     1      -1.599   9.694  17.578  0.00  0.00    +0.000 A 
ATOM     15  C   UNL     1      -2.708  10.543  17.519  0.00  0.00    +0.000 A 
ATOM     16  C   UNL     1      -2.626  11.845  18.020  0.00  0.00    +0.000 A 
ATOM     17  C   UNL     1      -1.398  12.246  18.572  0.00  0.00    +0.000 A 
ATOM     18  C   UNL     1      -2.270  13.408  21.602  0.00  0.00    +0.000 C 
ATOM     19  C   UNL     1      -2.016  14.740  22.488  0.00  0.00    +0.000 C 
ATOM     20  C   UNL     1      -0.580  14.908  22.926  0.00  0.00    +0.000 C 
ATOM     21  C   UNL     1       0.377  15.092  21.740  0.00  0.00    +0.000 C 
ATOM     22  H   UNL     1      -0.736  10.854  21.218  0.00  0.00    +0.000 HD
ENDROOT
BRANCH  18  23
ATOM     23  C   UNL     1      -2.674  12.310  22.604  0.00  0.00    +0.000 C 
ATOM     24  O   UNL     1      -1.710  11.642  23.075  0.00  0.00    +0.000 OA
ATOM     25  O   UNL     1      -3.914  12.219  22.830  0.00  0.00    +0.000 OA
ENDBRANCH  18  23
TORSDOF 1
ENDMDL
MODEL 9
REMARK VINA RESULT:      -5.4      7.884     10.581
REMARK  Name = 
REMARK  3 active torsions:
REMARK  status: ('A' for Active; 'I' for Inactive)
REMARK    1  A    between atoms: C_1  and  C_2
REMARK    2  A    between atoms: N_5  and  C_6
REMARK    3  A    between atoms: C_18  and  C_19
REMARK                            x       y       z     vdW  Elec       q    Type
REMARK                         _______ _______ _______ _____ _____    ______ ____
ROOT
ATOM      1  C   UNL     1      11.854  13.370  16.415  0.00  0.00    +0.000 C 
ATOM      2  C   UNL     1      10.665  12.955  17.220  0.00  0.00    +0.000 C 
ATOM      3  C   UNL     1       9.873  13.647  18.088  0.00  0.00    +0.000 C 
ATOM      4  C   UNL     1       9.124  12.859  19.080  0.00  0.00    +0.000 C 
ATOM      5  N   UNL     1       9.747  13.000  20.498  0.00  0.00    +0.000 N 
ATOM      6  C   UNL     1      10.853  11.970  20.683  0.00  0.00    +0.000 C 
ATOM      7  C   UNL     1       8.588  12.603  21.457  0.00  0.00    +0.000 C 
ATOM      8  C   UNL     1       7.819  13.768  22.035  0.00  0.00    +0.000 C 
ATOM      9  C   UNL     1       7.171  14.554  20.916  0.00  0.00    +0.000 A 
ATOM     10  C   UNL     1       7.786  15.644  20.304  0.00  0.00    +0.000 A 
ATOM     11  N   UNL     1       7.278  16.687  21.151  0.00  0.00    +0.000 N 
ATOM     12  C   UNL     1       6.080  16.196  21.766  0.00  0.00    +0.000 A 
ATOM     13  C   UNL     1       5.014  16.824  22.416  0.00  0.00    +0.000 A 
ATOM     14  C   UNL     1       3.768  16.649  21.788  0.00  0.00    +0.000 A 
ATOM     15  C   UNL     1       3.667  15.924  20.597  0.00  0.00    +0.000 A 
ATOM     16  C   UNL     1       4.724  15.112  20.175  0.00  0.00    +0.000 A 
ATOM     17  C   UNL     1       5.865  15.064  20.992  0.00  0.00    +0.000 A 
ATOM     18  C   UNL     1       8.360  15.776  18.857  0.00  0.00    +0.000 C 
ATOM     19  C   UNL     1       9.797  15.148  18.448  0.00  0.00    +0.000 C 
ATOM     20  C   UNL     1      10.826  15.229  19.551  0.00  0.00    +0.000 C 
ATOM     21  C   UNL     1      10.427  14.409  20.785  0.00  0.00    +0.000 C 
ATOM     22  H   UNL     1       7.467  17.674  21.006  0.00  0.00    +0.000 HD
ENDROOT
BRANCH  18  23
ATOM     23  C   UNL     1       8.405  17.249  18.412  0.00  0.00    +0.000 C 
ATOM     24  O   UNL     1       7.321  17.881  18.563  0.00  0.00    +0.000 OA
ATOM     25  O   UNL     1       9.517  17.640  17.958  0.00  0.00    +0.000 OA
ENDBRANCH  18  23
TORSDOF 1
ENDMDL
