MODEL 1
REMARK VINA RESULT:      -6.8      0.000      0.000
REMARK  Name = 
REMARK  7 active torsions:
REMARK  status: ('A' for Active; 'I' for Inactive)
REMARK    1  A    between atoms: C_2  and  C_3
REMARK    2  A    between atoms: C_3  and  O_4
REMARK    3  A    between atoms: O_4  and  C_5
REMARK    4  A    between atoms: C_8  and  C_9
REMARK    5  A    between atoms: C_9  and  N_10
REMARK    6  A    between atoms: N_13  and  C_14
REMARK    7  A    between atoms: C_14  and  C_15
REMARK                            x       y       z     vdW  Elec       q    Type
REMARK                         _______ _______ _______ _____ _____    ______ ____
ROOT
ATOM      1  N   UNL     1       0.892  10.196  19.738  0.00  0.00    +0.000 NA
ATOM      2  C   UNL     1       0.966  11.666  19.610  0.00  0.00    +0.000 C 
ATOM      3  C   UNL     1      -0.146  12.350  18.765  0.00  0.00    +0.000 C 
ATOM      4  N   UNL     1      -1.523  11.830  18.895  0.00  0.00    +0.000 NA
ATOM      5  C   UNL     1      -1.525  10.364  19.018  0.00  0.00    +0.000 C 
ATOM      6  C   UNL     1      -0.508   9.827  20.046  0.00  0.00    +0.000 C 
ENDROOT
BRANCH   1   7
ATOM      7  C   UNL     1       1.326   9.496  18.510  0.00  0.00    +0.000 C 
BRANCH   7  11
ATOM      8  C   UNL     1       3.530   5.797  18.737  0.00  0.00    +0.000 A 
ATOM      9  C   UNL     1       2.707   6.180  19.798  0.00  0.00    +0.000 A 
ATOM     10  C   UNL     1       2.058   7.423  19.774  0.00  0.00    +0.000 A 
ATOM     11  C   UNL     1       2.227   8.295  18.696  0.00  0.00    +0.000 A 
ATOM     12  C   UNL     1       3.101   7.932  17.669  0.00  0.00    +0.000 A 
ATOM     13  C   UNL     1       3.760   6.700  17.697  0.00  0.00    +0.000 A 
BRANCH   8  14
ATOM     14  O   UNL     1       4.136   4.571  18.606  0.00  0.00    +0.000 OA
BRANCH  14  15
ATOM     15  C   UNL     1       3.751   3.817  17.453  0.00  0.00    +0.000 C 
BRANCH  15  17
ATOM     16  F   UNL     1       1.442   4.134  17.220  0.00  0.00    +0.000 F 
ATOM     17  C   UNL     1       2.366   3.225  17.639  0.00  0.00    +0.000 C 
ENDBRANCH  15  17
ENDBRANCH  14  15
ENDBRANCH   8  14
ENDBRANCH   7  11
ENDBRANCH   1   7
BRANCH   4  18
ATOM     18  C   UNL     1      -2.256  12.468  19.994  0.00  0.00    +0.000 C 
BRANCH  18  19
ATOM     19  C   UNL     1      -3.767  12.467  19.810  0.00  0.00    +0.000 A 
ATOM     20  C   UNL     1      -4.329  12.021  18.588  0.00  0.00    +0.000 A 
ATOM     21  C   UNL     1      -5.677  11.660  18.504  0.00  0.00    +0.000 A 
ATOM     22  C   UNL     1      -6.412  11.712  19.666  0.00  0.00    +0.000 A 
ATOM     23  C   UNL     1      -5.898  12.236  20.832  0.00  0.00    +0.000 A 
ATOM     24  C   UNL     1      -4.600  12.670  20.925  0.00  0.00    +0.000 A 
ATOM     25  O   UNL     1      -6.757  12.090  21.882  0.00  0.00    +0.000 OA
ATOM     26  C   UNL     1      -7.621  11.088  21.312  0.00  0.00    +0.000 C 
ATOM     27  O   UNL     1      -7.637  11.146  19.869  0.00  0.00    +0.000 OA
ENDBRANCH  18  19
ENDBRANCH   4  18
TORSDOF 7
ENDMDL
MODEL 2
REMARK VINA RESULT:      -6.8      2.862      3.683
REMARK  Name = 
REMARK  7 active torsions:
REMARK  status: ('A' for Active; 'I' for Inactive)
REMARK    1  A    between atoms: C_2  and  C_3
REMARK    2  A    between atoms: C_3  and  O_4
REMARK    3  A    between atoms: O_4  and  C_5
REMARK    4  A    between atoms: C_8  and  C_9
REMARK    5  A    between atoms: C_9  and  N_10
REMARK    6  A    between atoms: N_13  and  C_14
REMARK    7  A    between atoms: C_14  and  C_15
REMARK                            x       y       z     vdW  Elec       q    Type
REMARK                         _______ _______ _______ _____ _____    ______ ____
ROOT
ATOM      1  N   UNL     1       1.663   8.779  21.009  0.00  0.00    +0.000 NA
ATOM      2  C   UNL     1       0.951   9.651  20.051  0.00  0.00    +0.000 C 
ATOM      3  C   UNL     1      -0.483  10.100  20.449  0.00  0.00    +0.000 C 
ATOM      4  N   UNL     1      -0.725  10.446  21.866  0.00  0.00    +0.000 NA
ATOM      5  C   UNL     1       0.010   9.542  22.764  0.00  0.00    +0.000 C 
ATOM      6  C   UNL     1       1.488   9.341  22.367  0.00  0.00    +0.000 C 
ENDROOT
BRANCH   1   7
ATOM      7  C   UNL     1       1.167   7.387  20.985  0.00  0.00    +0.000 C 
BRANCH   7  11
ATOM      8  C   UNL     1       3.788   4.710  18.850  0.00  0.00    +0.000 A 
ATOM      9  C   UNL     1       3.534   5.984  18.341  0.00  0.00    +0.000 A 
ATOM     10  C   UNL     1       2.613   6.829  18.978  0.00  0.00    +0.000 A 
ATOM     11  C   UNL     1       1.935   6.408  20.125  0.00  0.00    +0.000 A 
ATOM     12  C   UNL     1       2.148   5.110  20.592  0.00  0.00    +0.000 A 
ATOM     13  C   UNL     1       3.055   4.261  19.952  0.00  0.00    +0.000 A 
BRANCH   8  14
ATOM     14  O   UNL     1       4.735   3.838  18.370  0.00  0.00    +0.000 OA
BRANCH  14  15
ATOM     15  C   UNL     1       5.824   4.442  17.667  0.00  0.00    +0.000 C 
BRANCH  15  17
ATOM     16  F   UNL     1       4.885   4.701  15.537  0.00  0.00    +0.000 F 
ATOM     17  C   UNL     1       5.835   4.000  16.216  0.00  0.00    +0.000 C 
ENDBRANCH  15  17
ENDBRANCH  14  15
ENDBRANCH   8  14
ENDBRANCH   7  11
ENDBRANCH   1   7
BRANCH   4  18
ATOM     18  C   UNL     1      -0.430  11.853  22.154  0.00  0.00    +0.000 C 
BRANCH  18  19
ATOM     19  C   UNL     1      -1.462  12.532  23.042  0.00  0.00    +0.000 A 
ATOM     20  C   UNL     1      -1.257  13.870  23.465  0.00  0.00    +0.000 A 
ATOM     21  C   UNL     1      -2.317  14.640  23.955  0.00  0.00    +0.000 A 
ATOM     22  C   UNL     1      -3.563  14.058  23.962  0.00  0.00    +0.000 A 
ATOM     23  C   UNL     1      -3.751  12.731  23.644  0.00  0.00    +0.000 A 
ATOM     24  C   UNL     1      -2.717  11.928  23.232  0.00  0.00    +0.000 A 
ATOM     25  O   UNL     1      -5.072  12.393  23.610  0.00  0.00    +0.000 OA
ATOM     26  C   UNL     1      -5.628  13.720  23.536  0.00  0.00    +0.000 C 
ATOM     27  O   UNL     1      -4.753  14.707  24.125  0.00  0.00    +0.000 OA
ENDBRANCH  18  19
ENDBRANCH   4  18
TORSDOF 7
ENDMDL
MODEL 3
REMARK VINA RESULT:      -6.7      4.471      6.486
REMARK  Name = 
REMARK  7 active torsions:
REMARK  status: ('A' for Active; 'I' for Inactive)
REMARK    1  A    between atoms: C_2  and  C_3
REMARK    2  A    between atoms: C_3  and  O_4
REMARK    3  A    between atoms: O_4  and  C_5
REMARK    4  A    between atoms: C_8  and  C_9
REMARK    5  A    between atoms: C_9  and  N_10
REMARK    6  A    between atoms: N_13  and  C_14
REMARK    7  A    between atoms: C_14  and  C_15
REMARK                            x       y       z     vdW  Elec       q    Type
REMARK                         _______ _______ _______ _____ _____    ______ ____
ROOT
ATOM      1  N   UNL     1       2.555   3.684  18.890  0.00  0.00    +0.000 NA
ATOM      2  C   UNL     1       1.915   3.575  20.218  0.00  0.00    +0.000 C 
ATOM      3  C   UNL     1       2.219   4.711  21.235  0.00  0.00    +0.000 C 
ATOM      4  N   UNL     1       2.289   6.094  20.718  0.00  0.00    +0.000 NA
ATOM      5  C   UNL     1       2.935   6.131  19.397  0.00  0.00    +0.000 C 
ATOM      6  C   UNL     1       2.394   5.075  18.411  0.00  0.00    +0.000 C 
ENDROOT
BRANCH   1   7
ATOM      7  C   UNL     1       3.992   3.338  18.923  0.00  0.00    +0.000 C 
BRANCH   7  11
ATOM      8  C   UNL     1       6.759   4.879  15.997  0.00  0.00    +0.000 A 
ATOM      9  C   UNL     1       7.048   5.001  17.357  0.00  0.00    +0.000 A 
ATOM     10  C   UNL     1       6.114   4.586  18.318  0.00  0.00    +0.000 A 
ATOM     11  C   UNL     1       4.884   4.051  17.931  0.00  0.00    +0.000 A 
ATOM     12  C   UNL     1       4.576   3.990  16.570  0.00  0.00    +0.000 A 
ATOM     13  C   UNL     1       5.499   4.415  15.611  0.00  0.00    +0.000 A 
BRANCH   8  14
ATOM     14  O   UNL     1       7.630   5.159  14.972  0.00  0.00    +0.000 OA
BRANCH  14  15
ATOM     15  C   UNL     1       7.091   5.025  13.655  0.00  0.00    +0.000 C 
BRANCH  15  17
ATOM     16  F   UNL     1       9.003   6.210  13.000  0.00  0.00    +0.000 F 
ATOM     17  C   UNL     1       8.180   5.197  12.611  0.00  0.00    +0.000 C 
ENDBRANCH  15  17
ENDBRANCH  14  15
ENDBRANCH   8  14
ENDBRANCH   7  11
ENDBRANCH   1   7
BRANCH   4  18
ATOM     18  C   UNL     1       0.976   6.747  20.697  0.00  0.00    +0.000 C 
BRANCH  18  19
ATOM     19  C   UNL     1       1.025   8.242  20.978  0.00  0.00    +0.000 A 
ATOM     20  C   UNL     1       1.212   9.154  19.909  0.00  0.00    +0.000 A 
ATOM     21  C   UNL     1       0.902  10.510  20.056  0.00  0.00    +0.000 A 
ATOM     22  C   UNL     1       0.365  10.901  21.261  0.00  0.00    +0.000 A 
ATOM     23  C   UNL     1       0.272  10.040  22.333  0.00  0.00    +0.000 A 
ATOM     24  C   UNL     1       0.640   8.722  22.242  0.00  0.00    +0.000 A 
ATOM     25  O   UNL     1      -0.386  10.603  23.387  0.00  0.00    +0.000 OA
ATOM     26  C   UNL     1      -1.009  11.698  22.688  0.00  0.00    +0.000 C 
ATOM     27  O   UNL     1      -0.260  12.087  21.516  0.00  0.00    +0.000 OA
ENDBRANCH  18  19
ENDBRANCH   4  18
TORSDOF 7
ENDMDL
MODEL 4
REMARK VINA RESULT:      -6.7      3.592      4.591
REMARK  Name = 
REMARK  7 active torsions:
REMARK  status: ('A' for Active; 'I' for Inactive)
REMARK    1  A    between atoms: C_2  and  C_3
REMARK    2  A    between atoms: C_3  and  O_4
REMARK    3  A    between atoms: O_4  and  C_5
REMARK    4  A    between atoms: C_8  and  C_9
REMARK    5  A    between atoms: C_9  and  N_10
REMARK    6  A    between atoms: N_13  and  C_14
REMARK    7  A    between atoms: C_14  and  C_15
REMARK                            x       y       z     vdW  Elec       q    Type
REMARK                         _______ _______ _______ _____ _____    ______ ____
ROOT
ATOM      1  N   UNL     1      -0.104   8.791  21.048  0.00  0.00    +0.000 NA
ATOM      2  C   UNL     1      -0.641   8.855  22.424  0.00  0.00    +0.000 C 
ATOM      3  C   UNL     1      -0.424  10.187  23.196  0.00  0.00    +0.000 C 
ATOM      4  N   UNL     1      -0.565  11.449  22.439  0.00  0.00    +0.000 NA
ATOM      5  C   UNL     1      -0.012  11.317  21.083  0.00  0.00    +0.000 C 
ATOM      6  C   UNL     1      -0.472  10.041  20.347  0.00  0.00    +0.000 C 
ENDROOT
BRANCH   1   7
ATOM      7  C   UNL     1       1.364   8.625  21.020  0.00  0.00    +0.000 C 
BRANCH   7  11
ATOM      8  C   UNL     1       2.404   5.290  18.491  0.00  0.00    +0.000 A 
ATOM      9  C   UNL     1       1.989   5.062  19.805  0.00  0.00    +0.000 A 
ATOM     10  C   UNL     1       1.736   6.142  20.663  0.00  0.00    +0.000 A 
ATOM     11  C   UNL     1       1.900   7.457  20.221  0.00  0.00    +0.000 A 
ATOM     12  C   UNL     1       2.375   7.676  18.926  0.00  0.00    +0.000 A 
ATOM     13  C   UNL     1       2.640   6.602  18.073  0.00  0.00    +0.000 A 
BRANCH   8  14
ATOM     14  O   UNL     1       2.585   4.319  17.537  0.00  0.00    +0.000 OA
BRANCH  14  15
ATOM     15  C   UNL     1       2.126   3.013  17.896  0.00  0.00    +0.000 C 
BRANCH  15  17
ATOM     16  F   UNL     1       4.379   2.748  18.481  0.00  0.00    +0.000 F 
ATOM     17  C   UNL     1       3.295   2.055  18.033  0.00  0.00    +0.000 C 
ENDBRANCH  15  17
ENDBRANCH  14  15
ENDBRANCH   8  14
ENDBRANCH   7  11
ENDBRANCH   1   7
BRANCH   4  18
ATOM     18  C   UNL     1      -1.950  11.931  22.415  0.00  0.00    +0.000 C 
BRANCH  18  19
ATOM     19  C   UNL     1      -2.134  13.312  23.029  0.00  0.00    +0.000 A 
ATOM     20  C   UNL     1      -3.435  13.765  23.365  0.00  0.00    +0.000 A 
ATOM     21  C   UNL     1      -3.618  14.837  24.246  0.00  0.00    +0.000 A 
ATOM     22  C   UNL     1      -2.488  15.391  24.800  0.00  0.00    +0.000 A 
ATOM     23  C   UNL     1      -1.222  15.019  24.404  0.00  0.00    +0.000 A 
ATOM     24  C   UNL     1      -1.010  14.022  23.485  0.00  0.00    +0.000 A 
ATOM     25  O   UNL     1      -0.253  15.614  25.157  0.00  0.00    +0.000 OA
ATOM     26  C   UNL     1      -1.072  16.033  26.265  0.00  0.00    +0.000 C 
ATOM     27  O   UNL     1      -2.449  16.233  25.874  0.00  0.00    +0.000 OA
ENDBRANCH  18  19
ENDBRANCH   4  18
TORSDOF 7
ENDMDL
MODEL 5
REMARK VINA RESULT:      -6.6      2.989      3.890
REMARK  Name = 
REMARK  7 active torsions:
REMARK  status: ('A' for Active; 'I' for Inactive)
REMARK    1  A    between atoms: C_2  and  C_3
REMARK    2  A    between atoms: C_3  and  O_4
REMARK    3  A    between atoms: O_4  and  C_5
REMARK    4  A    between atoms: C_8  and  C_9
REMARK    5  A    between atoms: C_9  and  N_10
REMARK    6  A    between atoms: N_13  and  C_14
REMARK    7  A    between atoms: C_14  and  C_15
REMARK                            x       y       z     vdW  Elec       q    Type
REMARK                         _______ _______ _______ _____ _____    ______ ____
ROOT
ATOM      1  N   UNL     1       0.134   8.692  20.773  0.00  0.00    +0.000 NA
ATOM      2  C   UNL     1      -0.683   8.942  21.979  0.00  0.00    +0.000 C 
ATOM      3  C   UNL     1      -0.349  10.223  22.795  0.00  0.00    +0.000 C 
ATOM      4  N   UNL     1      -0.006  11.447  22.039  0.00  0.00    +0.000 NA
ATOM      5  C   UNL     1       0.806  11.127  20.855  0.00  0.00    +0.000 C 
ATOM      6  C   UNL     1       0.246   9.958  20.017  0.00  0.00    +0.000 C 
ENDROOT
BRANCH   1   7
ATOM      7  C   UNL     1       1.486   8.191  21.098  0.00  0.00    +0.000 C 
BRANCH   7  11
ATOM      8  C   UNL     1       2.461   4.905  18.482  0.00  0.00    +0.000 A 
ATOM      9  C   UNL     1       1.954   4.649  19.757  0.00  0.00    +0.000 A 
ATOM     10  C   UNL     1       1.719   5.707  20.649  0.00  0.00    +0.000 A 
ATOM     11  C   UNL     1       1.993   7.025  20.279  0.00  0.00    +0.000 A 
ATOM     12  C   UNL     1       2.559   7.267  19.025  0.00  0.00    +0.000 A 
ATOM     13  C   UNL     1       2.806   6.215  18.140  0.00  0.00    +0.000 A 
BRANCH   8  14
ATOM     14  O   UNL     1       2.637   3.965  17.495  0.00  0.00    +0.000 OA
BRANCH  14  15
ATOM     15  C   UNL     1       3.779   3.119  17.651  0.00  0.00    +0.000 C 
BRANCH  15  17
ATOM     16  F   UNL     1       4.191   1.352  19.132  0.00  0.00    +0.000 F 
ATOM     17  C   UNL     1       3.362   1.739  18.123  0.00  0.00    +0.000 C 
ENDBRANCH  15  17
ENDBRANCH  14  15
ENDBRANCH   8  14
ENDBRANCH   7  11
ENDBRANCH   1   7
BRANCH   4  18
ATOM     18  C   UNL     1      -1.193  12.233  21.687  0.00  0.00    +0.000 C 
BRANCH  18  19
ATOM     19  C   UNL     1      -1.806  12.986  22.859  0.00  0.00    +0.000 A 
ATOM     20  C   UNL     1      -1.038  13.954  23.554  0.00  0.00    +0.000 A 
ATOM     21  C   UNL     1      -1.652  14.909  24.371  0.00  0.00    +0.000 A 
ATOM     22  C   UNL     1      -3.026  14.893  24.427  0.00  0.00    +0.000 A 
ATOM     23  C   UNL     1      -3.770  13.898  23.832  0.00  0.00    +0.000 A 
ATOM     24  C   UNL     1      -3.190  12.903  23.087  0.00  0.00    +0.000 A 
ATOM     25  O   UNL     1      -5.110  14.137  23.920  0.00  0.00    +0.000 OA
ATOM     26  C   UNL     1      -5.055  15.538  24.253  0.00  0.00    +0.000 C 
ATOM     27  O   UNL     1      -3.822  15.886  24.921  0.00  0.00    +0.000 OA
ENDBRANCH  18  19
ENDBRANCH   4  18
TORSDOF 7
ENDMDL
MODEL 6
REMARK VINA RESULT:      -6.6      4.122     10.403
REMARK  Name = 
REMARK  7 active torsions:
REMARK  status: ('A' for Active; 'I' for Inactive)
REMARK    1  A    between atoms: C_2  and  C_3
REMARK    2  A    between atoms: C_3  and  O_4
REMARK    3  A    between atoms: O_4  and  C_5
REMARK    4  A    between atoms: C_8  and  C_9
REMARK    5  A    between atoms: C_9  and  N_10
REMARK    6  A    between atoms: N_13  and  C_14
REMARK    7  A    between atoms: C_14  and  C_15
REMARK                            x       y       z     vdW  Elec       q    Type
REMARK                         _______ _______ _______ _____ _____    ______ ____
ROOT
ATOM      1  N   UNL     1       1.854   6.126  20.714  0.00  0.00    +0.000 NA
ATOM      2  C   UNL     1       1.434   4.710  20.647  0.00  0.00    +0.000 C 
ATOM      3  C   UNL     1       1.362   4.069  19.233  0.00  0.00    +0.000 C 
ATOM      4  N   UNL     1       2.420   4.426  18.264  0.00  0.00    +0.000 NA
ATOM      5  C   UNL     1       2.790   5.844  18.382  0.00  0.00    +0.000 C 
ATOM      6  C   UNL     1       3.032   6.302  19.836  0.00  0.00    +0.000 C 
ENDROOT
BRANCH   1   7
ATOM      7  C   UNL     1       0.784   7.055  20.294  0.00  0.00    +0.000 C 
BRANCH   7  11
ATOM      8  C   UNL     1      -0.097  10.753  22.330  0.00  0.00    +0.000 A 
ATOM      9  C   UNL     1       0.670  10.769  21.163  0.00  0.00    +0.000 A 
ATOM     10  C   UNL     1       1.038   9.566  20.544  0.00  0.00    +0.000 A 
ATOM     11  C   UNL     1       0.651   8.338  21.085  0.00  0.00    +0.000 A 
ATOM     12  C   UNL     1      -0.061   8.328  22.286  0.00  0.00    +0.000 A 
ATOM     13  C   UNL     1      -0.419   9.524  22.913  0.00  0.00    +0.000 A 
BRANCH   8  14
ATOM     14  O   UNL     1      -0.597  11.863  22.966  0.00  0.00    +0.000 OA
BRANCH  14  15
ATOM     15  C   UNL     1      -2.020  11.906  23.097  0.00  0.00    +0.000 C 
BRANCH  15  17
ATOM     16  F   UNL     1      -3.973  12.695  22.073  0.00  0.00    +0.000 F 
ATOM     17  C   UNL     1      -2.659  12.436  21.827  0.00  0.00    +0.000 C 
ENDBRANCH  15  17
ENDBRANCH  14  15
ENDBRANCH   8  14
ENDBRANCH   7  11
ENDBRANCH   1   7
BRANCH   4  18
ATOM     18  C   UNL     1       3.591   3.549  18.372  0.00  0.00    +0.000 C 
BRANCH  18  19
ATOM     19  C   UNL     1       4.853   4.125  17.746  0.00  0.00    +0.000 A 
ATOM     20  C   UNL     1       4.879   4.424  16.360  0.00  0.00    +0.000 A 
ATOM     21  C   UNL     1       5.853   5.274  15.826  0.00  0.00    +0.000 A 
ATOM     22  C   UNL     1       6.745   5.837  16.709  0.00  0.00    +0.000 A 
ATOM     23  C   UNL     1       6.785   5.474  18.038  0.00  0.00    +0.000 A 
ATOM     24  C   UNL     1       5.890   4.585  18.576  0.00  0.00    +0.000 A 
ATOM     25  O   UNL     1       7.668   6.232  18.749  0.00  0.00    +0.000 OA
ATOM     26  C   UNL     1       7.827   7.312  17.810  0.00  0.00    +0.000 C 
ATOM     27  O   UNL     1       7.576   6.889  16.452  0.00  0.00    +0.000 OA
ENDBRANCH  18  19
ENDBRANCH   4  18
TORSDOF 7
ENDMDL
MODEL 7
REMARK VINA RESULT:      -6.6      3.377      4.289
REMARK  Name = 
REMARK  7 active torsions:
REMARK  status: ('A' for Active; 'I' for Inactive)
REMARK    1  A    between atoms: C_2  and  C_3
REMARK    2  A    between atoms: C_3  and  O_4
REMARK    3  A    between atoms: O_4  and  C_5
REMARK    4  A    between atoms: C_8  and  C_9
REMARK    5  A    between atoms: C_9  and  N_10
REMARK    6  A    between atoms: N_13  and  C_14
REMARK    7  A    between atoms: C_14  and  C_15
REMARK                            x       y       z     vdW  Elec       q    Type
REMARK                         _______ _______ _______ _____ _____    ______ ____
ROOT
ATOM      1  N   UNL     1       1.619   8.571  20.889  0.00  0.00    +0.000 NA
ATOM      2  C   UNL     1       0.995   9.443  19.872  0.00  0.00    +0.000 C 
ATOM      3  C   UNL     1      -0.387  10.057  20.231  0.00  0.00    +0.000 C 
ATOM      4  N   UNL     1      -0.592  10.519  21.620  0.00  0.00    +0.000 NA
ATOM      5  C   UNL     1       0.052   9.609  22.580  0.00  0.00    +0.000 C 
ATOM      6  C   UNL     1       1.502   9.237  22.205  0.00  0.00    +0.000 C 
ENDROOT
BRANCH   1   7
ATOM      7  C   UNL     1       0.988   7.236  20.956  0.00  0.00    +0.000 C 
BRANCH   7  11
ATOM      8  C   UNL     1       3.585   3.998  19.787  0.00  0.00    +0.000 A 
ATOM      9  C   UNL     1       3.749   5.260  19.213  0.00  0.00    +0.000 A 
ATOM     10  C   UNL     1       2.853   6.295  19.518  0.00  0.00    +0.000 A 
ATOM     11  C   UNL     1       1.785   6.080  20.392  0.00  0.00    +0.000 A 
ATOM     12  C   UNL     1       1.591   4.799  20.913  0.00  0.00    +0.000 A 
ATOM     13  C   UNL     1       2.474   3.762  20.601  0.00  0.00    +0.000 A 
BRANCH   8  14
ATOM     14  O   UNL     1       4.450   2.941  19.641  0.00  0.00    +0.000 OA
BRANCH  14  15
ATOM     15  C   UNL     1       3.860   1.724  19.176  0.00  0.00    +0.000 C 
BRANCH  15  17
ATOM     16  F   UNL     1       2.156   2.031  17.598  0.00  0.00    +0.000 F 
ATOM     17  C   UNL     1       3.499   1.832  17.706  0.00  0.00    +0.000 C 
ENDBRANCH  15  17
ENDBRANCH  14  15
ENDBRANCH   8  14
ENDBRANCH   7  11
ENDBRANCH   1   7
BRANCH   4  18
ATOM     18  C   UNL     1      -0.159  11.906  21.815  0.00  0.00    +0.000 C 
BRANCH  18  19
ATOM     19  C   UNL     1      -1.199  12.791  22.486  0.00  0.00    +0.000 A 
ATOM     20  C   UNL     1      -2.454  12.245  22.856  0.00  0.00    +0.000 A 
ATOM     21  C   UNL     1      -3.277  12.895  23.781  0.00  0.00    +0.000 A 
ATOM     22  C   UNL     1      -2.793  14.053  24.344  0.00  0.00    +0.000 A 
ATOM     23  C   UNL     1      -1.620  14.638  23.917  0.00  0.00    +0.000 A 
ATOM     24  C   UNL     1      -0.828  14.062  22.956  0.00  0.00    +0.000 A 
ATOM     25  O   UNL     1      -1.275  15.713  24.682  0.00  0.00    +0.000 OA
ATOM     26  C   UNL     1      -2.123  15.448  25.816  0.00  0.00    +0.000 C 
ATOM     27  O   UNL     1      -3.290  14.680  25.450  0.00  0.00    +0.000 OA
ENDBRANCH  18  19
ENDBRANCH   4  18
TORSDOF 7
ENDMDL
MODEL 8
REMARK VINA RESULT:      -6.6      2.364      2.785
REMARK  Name = 
REMARK  7 active torsions:
REMARK  status: ('A' for Active; 'I' for Inactive)
REMARK    1  A    between atoms: C_2  and  C_3
REMARK    2  A    between atoms: C_3  and  O_4
REMARK    3  A    between atoms: O_4  and  C_5
REMARK    4  A    between atoms: C_8  and  C_9
REMARK    5  A    between atoms: C_9  and  N_10
REMARK    6  A    between atoms: N_13  and  C_14
REMARK    7  A    between atoms: C_14  and  C_15
REMARK                            x       y       z     vdW  Elec       q    Type
REMARK                         _______ _______ _______ _____ _____    ______ ____
ROOT
ATOM      1  N   UNL     1       1.113  10.981  20.121  0.00  0.00    +0.000 NA
ATOM      2  C   UNL     1       0.346  12.201  19.791  0.00  0.00    +0.000 C 
ATOM      3  C   UNL     1      -1.116  12.269  20.314  0.00  0.00    +0.000 C 
ATOM      4  N   UNL     1      -1.385  11.743  21.669  0.00  0.00    +0.000 NA
ATOM      5  C   UNL     1      -0.592  10.532  21.932  0.00  0.00    +0.000 C 
ATOM      6  C   UNL     1       0.897  10.671  21.551  0.00  0.00    +0.000 C 
ENDROOT
BRANCH   1   7
ATOM      7  C   UNL     1       0.713   9.820  19.299  0.00  0.00    +0.000 C 
BRANCH   7  11
ATOM      8  C   UNL     1       3.188   6.343  18.681  0.00  0.00    +0.000 A 
ATOM      9  C   UNL     1       2.513   6.508  19.893  0.00  0.00    +0.000 A 
ATOM     10  C   UNL     1       1.779   7.678  20.138  0.00  0.00    +0.000 A 
ATOM     11  C   UNL     1       1.716   8.694  19.182  0.00  0.00    +0.000 A 
ATOM     12  C   UNL     1       2.445   8.550  18.000  0.00  0.00    +0.000 A 
ATOM     13  C   UNL     1       3.187   7.391  17.757  0.00  0.00    +0.000 A 
BRANCH   8  14
ATOM     14  O   UNL     1       3.853   5.206  18.293  0.00  0.00    +0.000 OA
BRANCH  14  15
ATOM     15  C   UNL     1       3.165   4.387  17.343  0.00  0.00    +0.000 C 
BRANCH  15  17
ATOM     16  F   UNL     1       0.974   4.020  18.085  0.00  0.00    +0.000 F 
ATOM     17  C   UNL     1       2.207   3.443  18.045  0.00  0.00    +0.000 C 
ENDBRANCH  15  17
ENDBRANCH  14  15
ENDBRANCH   8  14
ENDBRANCH   7  11
ENDBRANCH   1   7
BRANCH   4  18
ATOM     18  C   UNL     1      -1.186  12.757  22.709  0.00  0.00    +0.000 C 
BRANCH  18  19
ATOM     19  C   UNL     1      -2.480  13.285  23.312  0.00  0.00    +0.000 A 
ATOM     20  C   UNL     1      -2.915  14.599  23.005  0.00  0.00    +0.000 A 
ATOM     21  C   UNL     1      -4.241  14.988  23.226  0.00  0.00    +0.000 A 
ATOM     22  C   UNL     1      -5.103  14.029  23.704  0.00  0.00    +0.000 A 
ATOM     23  C   UNL     1      -4.665  12.782  24.095  0.00  0.00    +0.000 A 
ATOM     24  C   UNL     1      -3.354  12.397  23.961  0.00  0.00    +0.000 A 
ATOM     25  O   UNL     1      -5.698  11.958  24.433  0.00  0.00    +0.000 OA
ATOM     26  C   UNL     1      -6.770  12.700  23.821  0.00  0.00    +0.000 C 
ATOM     27  O   UNL     1      -6.465  14.108  23.721  0.00  0.00    +0.000 OA
ENDBRANCH  18  19
ENDBRANCH   4  18
TORSDOF 7
ENDMDL
MODEL 9
REMARK VINA RESULT:      -6.5      8.150     10.289
REMARK  Name = 
REMARK  7 active torsions:
REMARK  status: ('A' for Active; 'I' for Inactive)
REMARK    1  A    between atoms: C_2  and  C_3
REMARK    2  A    between atoms: C_3  and  O_4
REMARK    3  A    between atoms: O_4  and  C_5
REMARK    4  A    between atoms: C_8  and  C_9
REMARK    5  A    between atoms: C_9  and  N_10
REMARK    6  A    between atoms: N_13  and  C_14
REMARK    7  A    between atoms: C_14  and  C_15
REMARK                            x       y       z     vdW  Elec       q    Type
REMARK                         _______ _______ _______ _____ _____    ______ ____
ROOT
ATOM      1  N   UNL     1       6.879   7.333  16.853  0.00  0.00    +0.000 NA
ATOM      2  C   UNL     1       7.221   6.225  15.937  0.00  0.00    +0.000 C 
ATOM      3  C   UNL     1       7.039   4.783  16.488  0.00  0.00    +0.000 C 
ATOM      4  N   UNL     1       5.856   4.516  17.334  0.00  0.00    +0.000 NA
ATOM      5  C   UNL     1       5.572   5.656  18.220  0.00  0.00    +0.000 C 
ATOM      6  C   UNL     1       5.585   7.020  17.498  0.00  0.00    +0.000 C 
ENDROOT
BRANCH   1   7
ATOM      7  C   UNL     1       7.908   7.548  17.892  0.00  0.00    +0.000 C 
BRANCH   7  11
ATOM      8  C   UNL     1       9.248  11.600  18.511  0.00  0.00    +0.000 A 
ATOM      9  C   UNL     1       9.624  10.600  19.410  0.00  0.00    +0.000 A 
ATOM     10  C   UNL     1       9.120   9.298  19.269  0.00  0.00    +0.000 A 
ATOM     11  C   UNL     1       8.234   8.985  18.236  0.00  0.00    +0.000 A 
ATOM     12  C   UNL     1       7.814  10.004  17.379  0.00  0.00    +0.000 A 
ATOM     13  C   UNL     1       8.304  11.304  17.524  0.00  0.00    +0.000 A 
BRANCH   8  14
ATOM     14  O   UNL     1       9.751  12.878  18.491  0.00  0.00    +0.000 OA
BRANCH  14  15
ATOM     15  C   UNL     1       8.779  13.917  18.346  0.00  0.00    +0.000 C 
BRANCH  15  17
ATOM     16  F   UNL     1       8.366  15.719  19.784  0.00  0.00    +0.000 F 
ATOM     17  C   UNL     1       8.266  14.363  19.702  0.00  0.00    +0.000 C 
ENDBRANCH  15  17
ENDBRANCH  14  15
ENDBRANCH   8  14
ENDBRANCH   7  11
ENDBRANCH   1   7
BRANCH   4  18
ATOM     18  C   UNL     1       4.681   4.138  16.543  0.00  0.00    +0.000 C 
BRANCH  18  19
ATOM     19  C   UNL     1       3.579   3.471  17.354  0.00  0.00    +0.000 A 
ATOM     20  C   UNL     1       3.717   2.117  17.750  0.00  0.00    +0.000 A 
ATOM     21  C   UNL     1       2.933   1.584  18.779  0.00  0.00    +0.000 A 
ATOM     22  C   UNL     1       2.066   2.443  19.414  0.00  0.00    +0.000 A 
ATOM     23  C   UNL     1       1.859   3.731  18.970  0.00  0.00    +0.000 A 
ATOM     24  C   UNL     1       2.558   4.259  17.914  0.00  0.00    +0.000 A 
ATOM     25  O   UNL     1       1.044   4.437  19.807  0.00  0.00    +0.000 OA
ATOM     26  C   UNL     1       1.133   3.581  20.962  0.00  0.00    +0.000 C 
ATOM     27  O   UNL     1       1.431   2.214  20.600  0.00  0.00    +0.000 OA
ENDBRANCH  18  19
ENDBRANCH   4  18
TORSDOF 7
ENDMDL
