MODEL 1
REMARK VINA RESULT:      -6.9      0.000      0.000
REMARK  Name = 
REMARK  8 active torsions:
REMARK  status: ('A' for Active; 'I' for Inactive)
REMARK    1  A    between atoms: C_1  and  C_2
REMARK    2  A    between atoms: C_2  and  C_3
REMARK    3  A    between atoms: C_3  and  C_5
REMARK    4  A    between atoms: C_9  and  S_10
REMARK    5  A    between atoms: S_10  and  N_13
REMARK    6  A    between atoms: N_13  and  C_14
REMARK    7  A    between atoms: C_14  and  C_15
REMARK    8  A    between atoms: C_14  and  C_16
REMARK                            x       y       z     vdW  Elec       q    Type
REMARK                         _______ _______ _______ _____ _____    ______ ____
ROOT
ATOM      1  C   UNL     1       5.785   5.045  15.464  0.00  0.00    +0.000 A 
ATOM      2  C   UNL     1       5.424   6.373  15.730  0.00  0.00    +0.000 A 
ATOM      3  C   UNL     1       4.638   6.688  16.841  0.00  0.00    +0.000 A 
ATOM      4  C   UNL     1       4.206   5.680  17.699  0.00  0.00    +0.000 A 
ATOM      5  C   UNL     1       4.550   4.354  17.431  0.00  0.00    +0.000 A 
ATOM      6  C   UNL     1       5.322   4.027  16.305  0.00  0.00    +0.000 A 
ENDROOT
BRANCH   5   7
ATOM      7  S   UNL     1       3.993   3.071  18.529  0.00  0.00    +0.000 S 
ATOM      8  O   UNL     1       3.675   1.924  17.712  0.00  0.00    +0.000 OA
ATOM      9  O   UNL     1       4.911   2.982  19.643  0.00  0.00    +0.000 OA
BRANCH   7  10
ATOM     10  N   UNL     1       2.517   3.646  19.131  0.00  0.00    +0.000 NA
ATOM     11  H   UNL     1       1.786   2.969  18.897  0.00  0.00    +0.000 HD
BRANCH  10  12
ATOM     12  C   UNL     1       2.495   4.101  20.539  0.00  0.00    +0.000 C 
ATOM     13  C   UNL     1       1.742   5.427  20.701  0.00  0.00    +0.000 C 
BRANCH  12  14
ATOM     14  C   UNL     1       1.843   3.139  21.518  0.00  0.00    +0.000 C 
ATOM     15  N   UNL     1       1.303   2.341  22.331  0.00  0.00    +0.000 NA
ENDBRANCH  12  14
ENDBRANCH  10  12
ENDBRANCH   7  10
ENDBRANCH   5   7
BRANCH   1  16
ATOM     16  C   UNL     1       6.689   4.771  14.308  0.00  0.00    +0.000 C 
ATOM     17  O   UNL     1       7.659   5.505  14.125  0.00  0.00    +0.000 OA
BRANCH  16  19
ATOM     18  C   UNL     1       5.112   3.777  12.627  0.00  0.00    +0.000 C 
ATOM     19  C   UNL     1       6.392   3.578  13.418  0.00  0.00    +0.000 C 
ENDBRANCH  16  19
ENDBRANCH   1  16
TORSDOF 6
ENDMDL
MODEL 2
REMARK VINA RESULT:      -6.8      3.354      6.018
REMARK  Name = 
REMARK  8 active torsions:
REMARK  status: ('A' for Active; 'I' for Inactive)
REMARK    1  A    between atoms: C_1  and  C_2
REMARK    2  A    between atoms: C_2  and  C_3
REMARK    3  A    between atoms: C_3  and  C_5
REMARK    4  A    between atoms: C_9  and  S_10
REMARK    5  A    between atoms: S_10  and  N_13
REMARK    6  A    between atoms: N_13  and  C_14
REMARK    7  A    between atoms: C_14  and  C_15
REMARK    8  A    between atoms: C_14  and  C_16
REMARK                            x       y       z     vdW  Elec       q    Type
REMARK                         _______ _______ _______ _____ _____    ______ ____
ROOT
ATOM      1  C   UNL     1       2.974   4.045  18.447  0.00  0.00    +0.000 A 
ATOM      2  C   UNL     1       2.408   5.305  18.682  0.00  0.00    +0.000 A 
ATOM      3  C   UNL     1       2.940   6.449  18.082  0.00  0.00    +0.000 A 
ATOM      4  C   UNL     1       4.043   6.345  17.240  0.00  0.00    +0.000 A 
ATOM      5  C   UNL     1       4.621   5.095  17.013  0.00  0.00    +0.000 A 
ATOM      6  C   UNL     1       4.105   3.944  17.628  0.00  0.00    +0.000 A 
ENDROOT
BRANCH   5   7
ATOM      7  S   UNL     1       6.032   4.970  15.937  0.00  0.00    +0.000 S 
ATOM      8  O   UNL     1       6.103   3.598  15.491  0.00  0.00    +0.000 OA
ATOM      9  O   UNL     1       6.004   6.075  15.004  0.00  0.00    +0.000 OA
BRANCH   7  10
ATOM     10  N   UNL     1       7.362   5.203  16.961  0.00  0.00    +0.000 NA
ATOM     11  H   UNL     1       8.184   5.399  16.384  0.00  0.00    +0.000 HD
BRANCH  10  12
ATOM     12  C   UNL     1       7.182   6.131  18.098  0.00  0.00    +0.000 C 
ATOM     13  C   UNL     1       7.917   5.648  19.355  0.00  0.00    +0.000 C 
BRANCH  12  14
ATOM     14  C   UNL     1       7.673   7.549  17.858  0.00  0.00    +0.000 C 
ATOM     15  N   UNL     1       8.080   8.726  17.658  0.00  0.00    +0.000 NA
ENDBRANCH  12  14
ENDBRANCH  10  12
ENDBRANCH   7  10
ENDBRANCH   5   7
BRANCH   1  16
ATOM     16  C   UNL     1       2.320   2.846  19.050  0.00  0.00    +0.000 C 
ATOM     17  O   UNL     1       2.787   1.733  18.816  0.00  0.00    +0.000 OA
BRANCH  16  19
ATOM     18  C   UNL     1       1.442   2.714  21.398  0.00  0.00    +0.000 C 
ATOM     19  C   UNL     1       1.118   3.051  19.955  0.00  0.00    +0.000 C 
ENDBRANCH  16  19
ENDBRANCH   1  16
TORSDOF 6
ENDMDL
MODEL 3
REMARK VINA RESULT:      -6.7      1.969      2.312
REMARK  Name = 
REMARK  8 active torsions:
REMARK  status: ('A' for Active; 'I' for Inactive)
REMARK    1  A    between atoms: C_1  and  C_2
REMARK    2  A    between atoms: C_2  and  C_3
REMARK    3  A    between atoms: C_3  and  C_5
REMARK    4  A    between atoms: C_9  and  S_10
REMARK    5  A    between atoms: S_10  and  N_13
REMARK    6  A    between atoms: N_13  and  C_14
REMARK    7  A    between atoms: C_14  and  C_15
REMARK    8  A    between atoms: C_14  and  C_16
REMARK                            x       y       z     vdW  Elec       q    Type
REMARK                         _______ _______ _______ _____ _____    ______ ____
ROOT
ATOM      1  C   UNL     1       6.423   5.056  16.172  0.00  0.00    +0.000 A 
ATOM      2  C   UNL     1       7.462   5.083  17.112  0.00  0.00    +0.000 A 
ATOM      3  C   UNL     1       7.189   5.247  18.472  0.00  0.00    +0.000 A 
ATOM      4  C   UNL     1       5.874   5.384  18.908  0.00  0.00    +0.000 A 
ATOM      5  C   UNL     1       4.835   5.372  17.975  0.00  0.00    +0.000 A 
ATOM      6  C   UNL     1       5.103   5.229  16.605  0.00  0.00    +0.000 A 
ENDROOT
BRANCH   5   7
ATOM      7  S   UNL     1       3.157   5.549  18.538  0.00  0.00    +0.000 S 
ATOM      8  O   UNL     1       2.957   6.948  18.834  0.00  0.00    +0.000 OA
ATOM      9  O   UNL     1       2.286   4.829  17.637  0.00  0.00    +0.000 OA
BRANCH   7  10
ATOM     10  N   UNL     1       3.128   4.743  20.028  0.00  0.00    +0.000 NA
ATOM     11  H   UNL     1       2.600   5.312  20.694  0.00  0.00    +0.000 HD
BRANCH  10  12
ATOM     12  C   UNL     1       2.745   3.314  20.012  0.00  0.00    +0.000 C 
ATOM     13  C   UNL     1       3.965   2.395  19.873  0.00  0.00    +0.000 C 
BRANCH  12  14
ATOM     14  C   UNL     1       2.008   2.829  21.250  0.00  0.00    +0.000 C 
ATOM     15  N   UNL     1       1.396   2.428  22.277  0.00  0.00    +0.000 NA
ENDBRANCH  12  14
ENDBRANCH  10  12
ENDBRANCH   7  10
ENDBRANCH   5   7
BRANCH   1  16
ATOM     16  C   UNL     1       6.763   4.801  14.741  0.00  0.00    +0.000 C 
ATOM     17  O   UNL     1       7.715   5.398  14.241  0.00  0.00    +0.000 OA
BRANCH  16  19
ATOM     18  C   UNL     1       6.416   3.662  12.531  0.00  0.00    +0.000 C 
ATOM     19  C   UNL     1       5.937   3.791  13.965  0.00  0.00    +0.000 C 
ENDBRANCH  16  19
ENDBRANCH   1  16
TORSDOF 6
ENDMDL
MODEL 4
REMARK VINA RESULT:      -6.6      2.070      3.130
REMARK  Name = 
REMARK  8 active torsions:
REMARK  status: ('A' for Active; 'I' for Inactive)
REMARK    1  A    between atoms: C_1  and  C_2
REMARK    2  A    between atoms: C_2  and  C_3
REMARK    3  A    between atoms: C_3  and  C_5
REMARK    4  A    between atoms: C_9  and  S_10
REMARK    5  A    between atoms: S_10  and  N_13
REMARK    6  A    between atoms: N_13  and  C_14
REMARK    7  A    between atoms: C_14  and  C_15
REMARK    8  A    between atoms: C_14  and  C_16
REMARK                            x       y       z     vdW  Elec       q    Type
REMARK                         _______ _______ _______ _____ _____    ______ ____
ROOT
ATOM      1  C   UNL     1       6.569   5.765  17.529  0.00  0.00    +0.000 A 
ATOM      2  C   UNL     1       6.261   5.870  16.166  0.00  0.00    +0.000 A 
ATOM      3  C   UNL     1       5.294   5.043  15.589  0.00  0.00    +0.000 A 
ATOM      4  C   UNL     1       4.623   4.105  16.368  0.00  0.00    +0.000 A 
ATOM      5  C   UNL     1       4.936   3.986  17.723  0.00  0.00    +0.000 A 
ATOM      6  C   UNL     1       5.921   4.798  18.306  0.00  0.00    +0.000 A 
ENDROOT
BRANCH   5   7
ATOM      7  S   UNL     1       4.076   2.784  18.713  0.00  0.00    +0.000 S 
ATOM      8  O   UNL     1       3.698   1.704  17.832  0.00  0.00    +0.000 OA
ATOM      9  O   UNL     1       4.833   2.552  19.923  0.00  0.00    +0.000 OA
BRANCH   7  10
ATOM     10  N   UNL     1       2.635   3.558  19.155  0.00  0.00    +0.000 NA
ATOM     11  H   UNL     1       1.850   2.954  18.896  0.00  0.00    +0.000 HD
BRANCH  10  12
ATOM     12  C   UNL     1       2.557   4.101  20.529  0.00  0.00    +0.000 C 
ATOM     13  C   UNL     1       1.782   5.424  20.579  0.00  0.00    +0.000 C 
BRANCH  12  14
ATOM     14  C   UNL     1       1.882   3.194  21.544  0.00  0.00    +0.000 C 
ATOM     15  N   UNL     1       1.321   2.442  22.387  0.00  0.00    +0.000 NA
ENDBRANCH  12  14
ENDBRANCH  10  12
ENDBRANCH   7  10
ENDBRANCH   5   7
BRANCH   1  16
ATOM     16  C   UNL     1       7.555   6.724  18.112  0.00  0.00    +0.000 C 
ATOM     17  O   UNL     1       8.196   6.386  19.106  0.00  0.00    +0.000 OA
BRANCH  16  19
ATOM     18  C   UNL     1       8.485   9.044  18.336  0.00  0.00    +0.000 C 
ATOM     19  C   UNL     1       7.748   8.069  17.437  0.00  0.00    +0.000 C 
ENDBRANCH  16  19
ENDBRANCH   1  16
TORSDOF 6
ENDMDL
MODEL 5
REMARK VINA RESULT:      -6.6      3.061      6.665
REMARK  Name = 
REMARK  8 active torsions:
REMARK  status: ('A' for Active; 'I' for Inactive)
REMARK    1  A    between atoms: C_1  and  C_2
REMARK    2  A    between atoms: C_2  and  C_3
REMARK    3  A    between atoms: C_3  and  C_5
REMARK    4  A    between atoms: C_9  and  S_10
REMARK    5  A    between atoms: S_10  and  N_13
REMARK    6  A    between atoms: N_13  and  C_14
REMARK    7  A    between atoms: C_14  and  C_15
REMARK    8  A    between atoms: C_14  and  C_16
REMARK                            x       y       z     vdW  Elec       q    Type
REMARK                         _______ _______ _______ _____ _____    ______ ____
ROOT
ATOM      1  C   UNL     1       2.641   4.183  18.422  0.00  0.00    +0.000 A 
ATOM      2  C   UNL     1       2.025   5.407  18.713  0.00  0.00    +0.000 A 
ATOM      3  C   UNL     1       2.598   6.611  18.295  0.00  0.00    +0.000 A 
ATOM      4  C   UNL     1       3.792   6.603  17.580  0.00  0.00    +0.000 A 
ATOM      5  C   UNL     1       4.418   5.388  17.299  0.00  0.00    +0.000 A 
ATOM      6  C   UNL     1       3.860   4.176  17.733  0.00  0.00    +0.000 A 
ENDROOT
BRANCH   5   7
ATOM      7  S   UNL     1       5.945   5.386  16.386  0.00  0.00    +0.000 S 
ATOM      8  O   UNL     1       6.385   6.758  16.297  0.00  0.00    +0.000 OA
ATOM      9  O   UNL     1       6.798   4.343  16.911  0.00  0.00    +0.000 OA
BRANCH   7  10
ATOM     10  N   UNL     1       5.494   4.932  14.817  0.00  0.00    +0.000 NA
ATOM     11  H   UNL     1       5.074   5.742  14.354  0.00  0.00    +0.000 HD
BRANCH  10  12
ATOM     12  C   UNL     1       6.508   4.225  14.003  0.00  0.00    +0.000 C 
ATOM     13  C   UNL     1       5.897   3.601  12.742  0.00  0.00    +0.000 C 
BRANCH  12  14
ATOM     14  C   UNL     1       7.660   5.088  13.515  0.00  0.00    +0.000 C 
ATOM     15  N   UNL     1       8.615   5.804  13.109  0.00  0.00    +0.000 NA
ENDBRANCH  12  14
ENDBRANCH  10  12
ENDBRANCH   7  10
ENDBRANCH   5   7
BRANCH   1  16
ATOM     16  C   UNL     1       1.948   2.923  18.824  0.00  0.00    +0.000 C 
ATOM     17  O   UNL     1       1.939   1.974  18.042  0.00  0.00    +0.000 OA
BRANCH  16  19
ATOM     18  C   UNL     1       2.335   2.971  21.304  0.00  0.00    +0.000 C 
ATOM     19  C   UNL     1       1.304   2.853  20.197  0.00  0.00    +0.000 C 
ENDBRANCH  16  19
ENDBRANCH   1  16
TORSDOF 6
ENDMDL
MODEL 6
REMARK VINA RESULT:      -6.6      2.318      2.740
REMARK  Name = 
REMARK  8 active torsions:
REMARK  status: ('A' for Active; 'I' for Inactive)
REMARK    1  A    between atoms: C_1  and  C_2
REMARK    2  A    between atoms: C_2  and  C_3
REMARK    3  A    between atoms: C_3  and  C_5
REMARK    4  A    between atoms: C_9  and  S_10
REMARK    5  A    between atoms: S_10  and  N_13
REMARK    6  A    between atoms: N_13  and  C_14
REMARK    7  A    between atoms: C_14  and  C_15
REMARK    8  A    between atoms: C_14  and  C_16
REMARK                            x       y       z     vdW  Elec       q    Type
REMARK                         _______ _______ _______ _____ _____    ______ ____
ROOT
ATOM      1  C   UNL     1       6.374   5.055  16.348  0.00  0.00    +0.000 A 
ATOM      2  C   UNL     1       7.388   5.010  17.315  0.00  0.00    +0.000 A 
ATOM      3  C   UNL     1       7.087   5.159  18.671  0.00  0.00    +0.000 A 
ATOM      4  C   UNL     1       5.769   5.354  19.075  0.00  0.00    +0.000 A 
ATOM      5  C   UNL     1       4.757   5.415  18.116  0.00  0.00    +0.000 A 
ATOM      6  C   UNL     1       5.054   5.286  16.750  0.00  0.00    +0.000 A 
ENDROOT
BRANCH   5   7
ATOM      7  S   UNL     1       3.076   5.666  18.639  0.00  0.00    +0.000 S 
ATOM      8  O   UNL     1       3.053   5.514  20.075  0.00  0.00    +0.000 OA
ATOM      9  O   UNL     1       2.559   6.849  17.990  0.00  0.00    +0.000 OA
BRANCH   7  10
ATOM     10  N   UNL     1       2.237   4.334  18.011  0.00  0.00    +0.000 NA
ATOM     11  H   UNL     1       2.614   4.122  17.083  0.00  0.00    +0.000 HD
BRANCH  10  12
ATOM     12  C   UNL     1       2.091   3.154  18.891  0.00  0.00    +0.000 C 
ATOM     13  C   UNL     1       0.697   2.525  18.780  0.00  0.00    +0.000 C 
BRANCH  12  14
ATOM     14  C   UNL     1       3.071   2.024  18.624  0.00  0.00    +0.000 C 
ATOM     15  N   UNL     1       3.885   1.086  18.401  0.00  0.00    +0.000 NA
ENDBRANCH  12  14
ENDBRANCH  10  12
ENDBRANCH   7  10
ENDBRANCH   5   7
BRANCH   1  16
ATOM     16  C   UNL     1       6.740   4.813  14.921  0.00  0.00    +0.000 C 
ATOM     17  O   UNL     1       7.710   5.403  14.447  0.00  0.00    +0.000 OA
BRANCH  16  19
ATOM     18  C   UNL     1       6.395   3.736  12.679  0.00  0.00    +0.000 C 
ATOM     19  C   UNL     1       5.915   3.825  14.116  0.00  0.00    +0.000 C 
ENDBRANCH  16  19
ENDBRANCH   1  16
TORSDOF 6
ENDMDL
MODEL 7
REMARK VINA RESULT:      -6.5      3.593      6.210
REMARK  Name = 
REMARK  8 active torsions:
REMARK  status: ('A' for Active; 'I' for Inactive)
REMARK    1  A    between atoms: C_1  and  C_2
REMARK    2  A    between atoms: C_2  and  C_3
REMARK    3  A    between atoms: C_3  and  C_5
REMARK    4  A    between atoms: C_9  and  S_10
REMARK    5  A    between atoms: S_10  and  N_13
REMARK    6  A    between atoms: N_13  and  C_14
REMARK    7  A    between atoms: C_14  and  C_15
REMARK    8  A    between atoms: C_14  and  C_16
REMARK                            x       y       z     vdW  Elec       q    Type
REMARK                         _______ _______ _______ _____ _____    ______ ____
ROOT
ATOM      1  C   UNL     1       4.162   4.061  18.840  0.00  0.00    +0.000 A 
ATOM      2  C   UNL     1       3.216   5.090  18.739  0.00  0.00    +0.000 A 
ATOM      3  C   UNL     1       3.392   6.132  17.825  0.00  0.00    +0.000 A 
ATOM      4  C   UNL     1       4.514   6.155  17.001  0.00  0.00    +0.000 A 
ATOM      5  C   UNL     1       5.466   5.140  17.107  0.00  0.00    +0.000 A 
ATOM      6  C   UNL     1       5.308   4.101  18.037  0.00  0.00    +0.000 A 
ENDROOT
BRANCH   5   7
ATOM      7  S   UNL     1       6.898   5.177  16.052  0.00  0.00    +0.000 S 
ATOM      8  O   UNL     1       7.797   4.149  16.524  0.00  0.00    +0.000 OA
ATOM      9  O   UNL     1       6.461   5.234  14.676  0.00  0.00    +0.000 OA
BRANCH   7  10
ATOM     10  N   UNL     1       7.645   6.656  16.411  0.00  0.00    +0.000 NA
ATOM     11  H   UNL     1       7.435   7.315  15.657  0.00  0.00    +0.000 HD
BRANCH  10  12
ATOM     12  C   UNL     1       7.441   7.201  17.771  0.00  0.00    +0.000 C 
ATOM     13  C   UNL     1       8.070   6.307  18.847  0.00  0.00    +0.000 C 
BRANCH  12  14
ATOM     14  C   UNL     1       8.018   8.587  18.003  0.00  0.00    +0.000 C 
ATOM     15  N   UNL     1       8.496   9.738  18.196  0.00  0.00    +0.000 NA
ENDBRANCH  12  14
ENDBRANCH  10  12
ENDBRANCH   7  10
ENDBRANCH   5   7
BRANCH   1  16
ATOM     16  C   UNL     1       3.888   2.931  19.778  0.00  0.00    +0.000 C 
ATOM     17  O   UNL     1       4.835   2.283  20.220  0.00  0.00    +0.000 OA
BRANCH  16  19
ATOM     18  C   UNL     1       2.169   3.066  21.603  0.00  0.00    +0.000 C 
ATOM     19  C   UNL     1       2.450   2.645  20.172  0.00  0.00    +0.000 C 
ENDBRANCH  16  19
ENDBRANCH   1  16
TORSDOF 6
ENDMDL
MODEL 8
REMARK VINA RESULT:      -6.5      2.568      3.692
REMARK  Name = 
REMARK  8 active torsions:
REMARK  status: ('A' for Active; 'I' for Inactive)
REMARK    1  A    between atoms: C_1  and  C_2
REMARK    2  A    between atoms: C_2  and  C_3
REMARK    3  A    between atoms: C_3  and  C_5
REMARK    4  A    between atoms: C_9  and  S_10
REMARK    5  A    between atoms: S_10  and  N_13
REMARK    6  A    between atoms: N_13  and  C_14
REMARK    7  A    between atoms: C_14  and  C_15
REMARK    8  A    between atoms: C_14  and  C_16
REMARK                            x       y       z     vdW  Elec       q    Type
REMARK                         _______ _______ _______ _____ _____    ______ ____
ROOT
ATOM      1  C   UNL     1       6.640   5.999  17.372  0.00  0.00    +0.000 A 
ATOM      2  C   UNL     1       7.039   5.319  16.214  0.00  0.00    +0.000 A 
ATOM      3  C   UNL     1       6.155   4.464  15.550  0.00  0.00    +0.000 A 
ATOM      4  C   UNL     1       4.864   4.283  16.036  0.00  0.00    +0.000 A 
ATOM      5  C   UNL     1       4.465   4.946  17.197  0.00  0.00    +0.000 A 
ATOM      6  C   UNL     1       5.353   5.790  17.882  0.00  0.00    +0.000 A 
ENDROOT
BRANCH   5   7
ATOM      7  S   UNL     1       2.814   4.707  17.814  0.00  0.00    +0.000 S 
ATOM      8  O   UNL     1       2.154   5.991  17.761  0.00  0.00    +0.000 OA
ATOM      9  O   UNL     1       2.249   3.533  17.187  0.00  0.00    +0.000 OA
BRANCH   7  10
ATOM     10  N   UNL     1       3.027   4.354  19.457  0.00  0.00    +0.000 NA
ATOM     11  H   UNL     1       2.430   4.980  20.003  0.00  0.00    +0.000 HD
BRANCH  10  12
ATOM     12  C   UNL     1       2.943   2.932  19.856  0.00  0.00    +0.000 C 
ATOM     13  C   UNL     1       4.330   2.303  20.035  0.00  0.00    +0.000 C 
BRANCH  12  14
ATOM     14  C   UNL     1       2.205   2.670  21.159  0.00  0.00    +0.000 C 
ATOM     15  N   UNL     1       1.594   2.453  22.241  0.00  0.00    +0.000 NA
ENDBRANCH  12  14
ENDBRANCH  10  12
ENDBRANCH   7  10
ENDBRANCH   5   7
BRANCH   1  16
ATOM     16  C   UNL     1       7.597   6.960  17.999  0.00  0.00    +0.000 C 
ATOM     17  O   UNL     1       8.278   6.584  18.951  0.00  0.00    +0.000 OA
BRANCH  16  19
ATOM     18  C   UNL     1       8.528   9.270  18.314  0.00  0.00    +0.000 C 
ATOM     19  C   UNL     1       7.711   8.357  17.417  0.00  0.00    +0.000 C 
ENDBRANCH  16  19
ENDBRANCH   1  16
TORSDOF 6
ENDMDL
MODEL 9
REMARK VINA RESULT:      -6.5      2.892      4.247
REMARK  Name = 
REMARK  8 active torsions:
REMARK  status: ('A' for Active; 'I' for Inactive)
REMARK    1  A    between atoms: C_1  and  C_2
REMARK    2  A    between atoms: C_2  and  C_3
REMARK    3  A    between atoms: C_3  and  C_5
REMARK    4  A    between atoms: C_9  and  S_10
REMARK    5  A    between atoms: S_10  and  N_13
REMARK    6  A    between atoms: N_13  and  C_14
REMARK    7  A    between atoms: C_14  and  C_15
REMARK    8  A    between atoms: C_14  and  C_16
REMARK                            x       y       z     vdW  Elec       q    Type
REMARK                         _______ _______ _______ _____ _____    ______ ____
ROOT
ATOM      1  C   UNL     1       6.028   3.659  12.452  0.00  0.00    +0.000 A 
ATOM      2  C   UNL     1       7.024   4.360  11.760  0.00  0.00    +0.000 A 
ATOM      3  C   UNL     1       7.904   5.206  12.441  0.00  0.00    +0.000 A 
ATOM      4  C   UNL     1       7.797   5.357  13.821  0.00  0.00    +0.000 A 
ATOM      5  C   UNL     1       6.797   4.672  14.513  0.00  0.00    +0.000 A 
ATOM      6  C   UNL     1       5.897   3.837  13.834  0.00  0.00    +0.000 A 
ENDROOT
BRANCH   5   7
ATOM      7  S   UNL     1       6.666   4.872  16.276  0.00  0.00    +0.000 S 
ATOM      8  O   UNL     1       7.895   4.377  16.850  0.00  0.00    +0.000 OA
ATOM      9  O   UNL     1       6.174   6.202  16.557  0.00  0.00    +0.000 OA
BRANCH   7  10
ATOM     10  N   UNL     1       5.456   3.776  16.733  0.00  0.00    +0.000 NA
ATOM     11  H   UNL     1       5.855   3.116  17.405  0.00  0.00    +0.000 HD
BRANCH  10  12
ATOM     12  C   UNL     1       4.152   4.344  17.138  0.00  0.00    +0.000 C 
ATOM     13  C   UNL     1       3.027   3.303  17.067  0.00  0.00    +0.000 C 
BRANCH  12  14
ATOM     14  C   UNL     1       4.102   4.903  18.550  0.00  0.00    +0.000 C 
ATOM     15  N   UNL     1       4.061   5.368  19.721  0.00  0.00    +0.000 NA
ENDBRANCH  12  14
ENDBRANCH  10  12
ENDBRANCH   7  10
ENDBRANCH   5   7
BRANCH   1  16
ATOM     16  C   UNL     1       5.164   2.709  11.688  0.00  0.00    +0.000 C 
ATOM     17  O   UNL     1       5.640   1.636  11.322  0.00  0.00    +0.000 OA
BRANCH  16  19
ATOM     18  C   UNL     1       3.579   3.821  10.090  0.00  0.00    +0.000 C 
ATOM     19  C   UNL     1       3.722   3.096  11.416  0.00  0.00    +0.000 C 
ENDBRANCH  16  19
ENDBRANCH   1  16
TORSDOF 6
ENDMDL
