MODEL 1
REMARK VINA RESULT:      -7.2      0.000      0.000
REMARK  Name = 
REMARK  4 active torsions:
REMARK  status: ('A' for Active; 'I' for Inactive)
REMARK    1  A    between atoms: N_2  and  C_4
REMARK    2  A    between atoms: C_8  and  C_9
REMARK    3  A    between atoms: N_10  and  N_11
REMARK    4  A    between atoms: N_11  and  C_12
REMARK                            x       y       z     vdW  Elec       q    Type
REMARK                         _______ _______ _______ _____ _____    ______ ____
ROOT
ATOM      1  C   UNL     1       6.158   4.390  16.158  0.00  0.00    +0.000 C 
ATOM      2  N   UNL     1       5.132   3.763  16.632  0.00  0.00    +0.000 NA
ENDROOT
BRANCH   1   7
ATOM      3  C   UNL     1       5.991   3.487  12.509  0.00  0.00    +0.000 A 
ATOM      4  C   UNL     1       7.042   4.255  11.988  0.00  0.00    +0.000 A 
ATOM      5  C   UNL     1       7.771   5.094  12.835  0.00  0.00    +0.000 A 
ATOM      6  C   UNL     1       7.453   5.167  14.194  0.00  0.00    +0.000 A 
ATOM      7  C   UNL     1       6.412   4.385  14.705  0.00  0.00    +0.000 A 
ATOM      8  C   UNL     1       5.672   3.544  13.867  0.00  0.00    +0.000 A 
BRANCH   3  10
ATOM      9  O   UNL     1       5.728   1.519  11.306  0.00  0.00    +0.000 OA
ATOM     10  N   UNL     1       5.219   2.607  11.618  0.00  0.00    +0.000 N 
ATOM     11  O   UNL     1       4.115   3.003  11.234  0.00  0.00    +0.000 OA
ENDBRANCH   3  10
ENDBRANCH   1   7
BRANCH   2  12
ATOM     12  N   UNL     1       5.048   3.713  17.983  0.00  0.00    +0.000 N 
ATOM     13  H   UNL     1       5.652   4.361  18.495  0.00  0.00    +0.000 HD
BRANCH  12  14
ATOM     14  C   UNL     1       3.726   3.709  18.524  0.00  0.00    +0.000 A 
ATOM     15  C   UNL     1       2.965   4.872  18.762  0.00  0.00    +0.000 A 
ATOM     16 CL   UNL     1       3.478   6.481  18.383  0.00  0.00    +0.000 Cl
ATOM     17  C   UNL     1       1.682   4.736  19.290  0.00  0.00    +0.000 A 
ATOM     18  N   UNL     1       1.086   3.554  19.570  0.00  0.00    +0.000 NA
ATOM     19  C   UNL     1       1.809   2.448  19.292  0.00  0.00    +0.000 A 
ATOM     20  C   UNL     1       3.098   2.473  18.772  0.00  0.00    +0.000 A 
ATOM     21 CL   UNL     1       3.902   0.975  18.461  0.00  0.00    +0.000 Cl
ENDBRANCH  12  14
ENDBRANCH   2  12
TORSDOF 4
ENDMDL
MODEL 2
REMARK VINA RESULT:      -7.1      0.938      1.176
REMARK  Name = 
REMARK  4 active torsions:
REMARK  status: ('A' for Active; 'I' for Inactive)
REMARK    1  A    between atoms: N_2  and  C_4
REMARK    2  A    between atoms: C_8  and  C_9
REMARK    3  A    between atoms: N_10  and  N_11
REMARK    4  A    between atoms: N_11  and  C_12
REMARK                            x       y       z     vdW  Elec       q    Type
REMARK                         _______ _______ _______ _____ _____    ______ ____
ROOT
ATOM      1  C   UNL     1       6.539   4.571  16.047  0.00  0.00    +0.000 C 
ATOM      2  N   UNL     1       5.519   4.024  16.623  0.00  0.00    +0.000 NA
ENDROOT
BRANCH   1   7
ATOM      3  C   UNL     1       6.064   3.544  12.458  0.00  0.00    +0.000 A 
ATOM      4  C   UNL     1       7.058   4.302  11.822  0.00  0.00    +0.000 A 
ATOM      5  C   UNL     1       7.849   5.175  12.575  0.00  0.00    +0.000 A 
ATOM      6  C   UNL     1       7.650   5.291  13.953  0.00  0.00    +0.000 A 
ATOM      7  C   UNL     1       6.666   4.518  14.579  0.00  0.00    +0.000 A 
ATOM      8  C   UNL     1       5.864   3.644  13.836  0.00  0.00    +0.000 A 
BRANCH   3  10
ATOM      9  O   UNL     1       4.120   3.043  11.294  0.00  0.00    +0.000 OA
ATOM     10  N   UNL     1       5.228   2.629  11.667  0.00  0.00    +0.000 N 
ATOM     11  O   UNL     1       5.677   1.505  11.422  0.00  0.00    +0.000 OA
ENDBRANCH   3  10
ENDBRANCH   1   7
BRANCH   2  12
ATOM     12  N   UNL     1       5.549   4.007  17.976  0.00  0.00    +0.000 N 
ATOM     13  H   UNL     1       6.371   4.434  18.413  0.00  0.00    +0.000 HD
BRANCH  12  14
ATOM     14  C   UNL     1       4.349   4.422  18.630  0.00  0.00    +0.000 A 
ATOM     15  C   UNL     1       3.768   5.698  18.483  0.00  0.00    +0.000 A 
ATOM     16 CL   UNL     1       4.374   6.943  17.444  0.00  0.00    +0.000 Cl
ATOM     17  C   UNL     1       2.590   5.982  19.172  0.00  0.00    +0.000 A 
ATOM     18  N   UNL     1       1.930   5.103  19.962  0.00  0.00    +0.000 NA
ATOM     19  C   UNL     1       2.473   3.870  20.056  0.00  0.00    +0.000 A 
ATOM     20  C   UNL     1       3.647   3.488  19.417  0.00  0.00    +0.000 A 
ATOM     21 CL   UNL     1       4.222   1.871  19.624  0.00  0.00    +0.000 Cl
ENDBRANCH  12  14
ENDBRANCH   2  12
TORSDOF 4
ENDMDL
MODEL 3
REMARK VINA RESULT:      -7.0      0.167      2.041
REMARK  Name = 
REMARK  4 active torsions:
REMARK  status: ('A' for Active; 'I' for Inactive)
REMARK    1  A    between atoms: N_2  and  C_4
REMARK    2  A    between atoms: C_8  and  C_9
REMARK    3  A    between atoms: N_10  and  N_11
REMARK    4  A    between atoms: N_11  and  C_12
REMARK                            x       y       z     vdW  Elec       q    Type
REMARK                         _______ _______ _______ _____ _____    ______ ____
ROOT
ATOM      1  C   UNL     1       6.195   4.364  16.202  0.00  0.00    +0.000 C 
ATOM      2  N   UNL     1       5.045   3.987  16.656  0.00  0.00    +0.000 NA
ENDROOT
BRANCH   1   7
ATOM      3  C   UNL     1       6.005   3.503  12.544  0.00  0.00    +0.000 A 
ATOM      4  C   UNL     1       7.055   4.273  12.026  0.00  0.00    +0.000 A 
ATOM      5  C   UNL     1       7.792   5.101  12.879  0.00  0.00    +0.000 A 
ATOM      6  C   UNL     1       7.482   5.159  14.240  0.00  0.00    +0.000 A 
ATOM      7  C   UNL     1       6.441   4.374  14.748  0.00  0.00    +0.000 A 
ATOM      8  C   UNL     1       5.694   3.545  13.905  0.00  0.00    +0.000 A 
BRANCH   3  10
ATOM      9  O   UNL     1       5.716   1.539  11.342  0.00  0.00    +0.000 OA
ATOM     10  N   UNL     1       5.225   2.636  11.648  0.00  0.00    +0.000 N 
ATOM     11  O   UNL     1       4.132   3.052  11.253  0.00  0.00    +0.000 OA
ENDBRANCH   3  10
ENDBRANCH   1   7
BRANCH   2  12
ATOM     12  N   UNL     1       4.951   3.886  18.003  0.00  0.00    +0.000 N 
ATOM     13  H   UNL     1       5.430   4.612  18.543  0.00  0.00    +0.000 HD
BRANCH  12  14
ATOM     14  C   UNL     1       3.640   3.646  18.518  0.00  0.00    +0.000 A 
ATOM     15  C   UNL     1       3.092   2.364  18.723  0.00  0.00    +0.000 A 
ATOM     16 CL   UNL     1       3.933   0.877  18.446  0.00  0.00    +0.000 Cl
ATOM     17  C   UNL     1       1.800   2.262  19.238  0.00  0.00    +0.000 A 
ATOM     18  N   UNL     1       1.027   3.315  19.591  0.00  0.00    +0.000 NA
ATOM     19  C   UNL     1       1.584   4.535  19.434  0.00  0.00    +0.000 A 
ATOM     20  C   UNL     1       2.860   4.747  18.923  0.00  0.00    +0.000 A 
ATOM     21 CL   UNL     1       3.444   6.367  18.783  0.00  0.00    +0.000 Cl
ENDBRANCH  12  14
ENDBRANCH   2  12
TORSDOF 4
ENDMDL
MODEL 4
REMARK VINA RESULT:      -6.9      1.015      2.176
REMARK  Name = 
REMARK  4 active torsions:
REMARK  status: ('A' for Active; 'I' for Inactive)
REMARK    1  A    between atoms: N_2  and  C_4
REMARK    2  A    between atoms: C_8  and  C_9
REMARK    3  A    between atoms: N_10  and  N_11
REMARK    4  A    between atoms: N_11  and  C_12
REMARK                            x       y       z     vdW  Elec       q    Type
REMARK                         _______ _______ _______ _____ _____    ______ ____
ROOT
ATOM      1  C   UNL     1       6.700   4.437  16.023  0.00  0.00    +0.000 C 
ATOM      2  N   UNL     1       5.563   4.292  16.619  0.00  0.00    +0.000 NA
ENDROOT
BRANCH   1   7
ATOM      3  C   UNL     1       6.098   3.516  12.424  0.00  0.00    +0.000 A 
ATOM      4  C   UNL     1       7.030   4.335  11.772  0.00  0.00    +0.000 A 
ATOM      5  C   UNL     1       7.821   5.214  12.519  0.00  0.00    +0.000 A 
ATOM      6  C   UNL     1       7.683   5.274  13.908  0.00  0.00    +0.000 A 
ATOM      7  C   UNL     1       6.760   4.440  14.549  0.00  0.00    +0.000 A 
ATOM      8  C   UNL     1       5.959   3.560  13.813  0.00  0.00    +0.000 A 
BRANCH   3  10
ATOM      9  O   UNL     1       5.737   1.484  11.363  0.00  0.00    +0.000 OA
ATOM     10  N   UNL     1       5.261   2.595  11.640  0.00  0.00    +0.000 N 
ATOM     11  O   UNL     1       4.138   2.983  11.304  0.00  0.00    +0.000 OA
ENDBRANCH   3  10
ENDBRANCH   1   7
BRANCH   2  12
ATOM     12  N   UNL     1       5.618   4.171  17.967  0.00  0.00    +0.000 N 
ATOM     13  H   UNL     1       6.398   4.647  18.429  0.00  0.00    +0.000 HD
BRANCH  12  14
ATOM     14  C   UNL     1       4.392   4.404  18.662  0.00  0.00    +0.000 A 
ATOM     15  C   UNL     1       3.813   3.494  19.570  0.00  0.00    +0.000 A 
ATOM     16 CL   UNL     1       4.516   1.983  20.036  0.00  0.00    +0.000 Cl
ATOM     17  C   UNL     1       2.613   3.840  20.191  0.00  0.00    +0.000 A 
ATOM     18  N   UNL     1       1.964   5.014  20.011  0.00  0.00    +0.000 NA
ATOM     19  C   UNL     1       2.556   5.894  19.175  0.00  0.00    +0.000 A 
ATOM     20  C   UNL     1       3.747   5.645  18.501  0.00  0.00    +0.000 A 
ATOM     21 CL   UNL     1       4.391   6.869  17.466  0.00  0.00    +0.000 Cl
ENDBRANCH  12  14
ENDBRANCH   2  12
TORSDOF 4
ENDMDL
MODEL 5
REMARK VINA RESULT:      -6.9      5.189      7.960
REMARK  Name = 
REMARK  4 active torsions:
REMARK  status: ('A' for Active; 'I' for Inactive)
REMARK    1  A    between atoms: N_2  and  C_4
REMARK    2  A    between atoms: C_8  and  C_9
REMARK    3  A    between atoms: N_10  and  N_11
REMARK    4  A    between atoms: N_11  and  C_12
REMARK                            x       y       z     vdW  Elec       q    Type
REMARK                         _______ _______ _______ _____ _____    ______ ____
ROOT
ATOM      1  C   UNL     1       3.201   6.175  18.748  0.00  0.00    +0.000 C 
ATOM      2  N   UNL     1       3.904   5.665  19.705  0.00  0.00    +0.000 NA
ENDROOT
BRANCH   1   7
ATOM      3  C   UNL     1       1.118   8.825  20.422  0.00  0.00    +0.000 A 
ATOM      4  C   UNL     1       0.847   9.682  19.345  0.00  0.00    +0.000 A 
ATOM      5  C   UNL     1       1.386   9.401  18.086  0.00  0.00    +0.000 A 
ATOM      6  C   UNL     1       2.190   8.273  17.902  0.00  0.00    +0.000 A 
ATOM      7  C   UNL     1       2.441   7.418  18.980  0.00  0.00    +0.000 A 
ATOM      8  C   UNL     1       1.912   7.690  20.246  0.00  0.00    +0.000 A 
BRANCH   3  10
ATOM      9  O   UNL     1      -0.571   8.675  22.006  0.00  0.00    +0.000 OA
ATOM     10  N   UNL     1       0.556   9.122  21.748  0.00  0.00    +0.000 N 
ATOM     11  O   UNL     1       1.240   9.797  22.524  0.00  0.00    +0.000 OA
ENDBRANCH   3  10
ENDBRANCH   1   7
BRANCH   2  12
ATOM     12  N   UNL     1       4.463   4.460  19.443  0.00  0.00    +0.000 N 
ATOM     13  H   UNL     1       3.859   3.645  19.579  0.00  0.00    +0.000 HD
BRANCH  12  14
ATOM     14  C   UNL     1       5.184   4.362  18.214  0.00  0.00    +0.000 A 
ATOM     15  C   UNL     1       4.645   3.840  17.020  0.00  0.00    +0.000 A 
ATOM     16 CL   UNL     1       3.015   3.291  16.831  0.00  0.00    +0.000 Cl
ATOM     17  C   UNL     1       5.450   3.803  15.882  0.00  0.00    +0.000 A 
ATOM     18  N   UNL     1       6.721   4.266  15.823  0.00  0.00    +0.000 NA
ATOM     19  C   UNL     1       7.206   4.806  16.961  0.00  0.00    +0.000 A 
ATOM     20  C   UNL     1       6.490   4.885  18.151  0.00  0.00    +0.000 A 
ATOM     21 CL   UNL     1       7.239   5.610  19.529  0.00  0.00    +0.000 Cl
ENDBRANCH  12  14
ENDBRANCH   2  12
TORSDOF 4
ENDMDL
MODEL 6
REMARK VINA RESULT:      -6.8      5.424      8.149
REMARK  Name = 
REMARK  4 active torsions:
REMARK  status: ('A' for Active; 'I' for Inactive)
REMARK    1  A    between atoms: N_2  and  C_4
REMARK    2  A    between atoms: C_8  and  C_9
REMARK    3  A    between atoms: N_10  and  N_11
REMARK    4  A    between atoms: N_11  and  C_12
REMARK                            x       y       z     vdW  Elec       q    Type
REMARK                         _______ _______ _______ _____ _____    ______ ____
ROOT
ATOM      1  C   UNL     1       2.774   6.315  18.972  0.00  0.00    +0.000 C 
ATOM      2  N   UNL     1       3.968   6.096  19.415  0.00  0.00    +0.000 NA
ENDROOT
BRANCH   1   7
ATOM      3  C   UNL     1       1.012   9.160  20.693  0.00  0.00    +0.000 A 
ATOM      4  C   UNL     1       0.747  10.013  19.612  0.00  0.00    +0.000 A 
ATOM      5  C   UNL     1       1.186   9.663  18.331  0.00  0.00    +0.000 A 
ATOM      6  C   UNL     1       1.885   8.469  18.131  0.00  0.00    +0.000 A 
ATOM      7  C   UNL     1       2.131   7.619  19.215  0.00  0.00    +0.000 A 
ATOM      8  C   UNL     1       1.701   7.960  20.502  0.00  0.00    +0.000 A 
BRANCH   3  10
ATOM      9  O   UNL     1       1.393   9.505  22.956  0.00  0.00    +0.000 OA
ATOM     10  N   UNL     1       0.556   9.529  22.041  0.00  0.00    +0.000 N 
ATOM     11  O   UNL     1      -0.631   9.840  22.181  0.00  0.00    +0.000 OA
ENDBRANCH   3  10
ENDBRANCH   1   7
BRANCH   2  12
ATOM     12  N   UNL     1       4.429   4.832  19.259  0.00  0.00    +0.000 N 
ATOM     13  H   UNL     1       3.730   4.087  19.328  0.00  0.00    +0.000 HD
BRANCH  12  14
ATOM     14  C   UNL     1       5.293   4.618  18.142  0.00  0.00    +0.000 A 
ATOM     15  C   UNL     1       6.660   4.964  18.123  0.00  0.00    +0.000 A 
ATOM     16 CL   UNL     1       7.525   5.642  19.459  0.00  0.00    +0.000 Cl
ATOM     17  C   UNL     1       7.401   4.699  16.972  0.00  0.00    +0.000 A 
ATOM     18  N   UNL     1       6.911   4.098  15.862  0.00  0.00    +0.000 NA
ATOM     19  C   UNL     1       5.613   3.730  15.914  0.00  0.00    +0.000 A 
ATOM     20  C   UNL     1       4.786   3.954  17.009  0.00  0.00    +0.000 A 
ATOM     21 CL   UNL     1       3.143   3.422  16.936  0.00  0.00    +0.000 Cl
ENDBRANCH  12  14
ENDBRANCH   2  12
TORSDOF 4
ENDMDL
MODEL 7
REMARK VINA RESULT:      -6.7      1.104      2.129
REMARK  Name = 
REMARK  4 active torsions:
REMARK  status: ('A' for Active; 'I' for Inactive)
REMARK    1  A    between atoms: N_2  and  C_4
REMARK    2  A    between atoms: C_8  and  C_9
REMARK    3  A    between atoms: N_10  and  N_11
REMARK    4  A    between atoms: N_11  and  C_12
REMARK                            x       y       z     vdW  Elec       q    Type
REMARK                         _______ _______ _______ _____ _____    ______ ____
ROOT
ATOM      1  C   UNL     1       6.162   4.198  16.060  0.00  0.00    +0.000 C 
ATOM      2  N   UNL     1       5.241   3.422  16.528  0.00  0.00    +0.000 NA
ENDROOT
BRANCH   1   7
ATOM      3  C   UNL     1       6.013   3.399  12.385  0.00  0.00    +0.000 A 
ATOM      4  C   UNL     1       7.027   4.226  11.883  0.00  0.00    +0.000 A 
ATOM      5  C   UNL     1       7.725   5.071  12.753  0.00  0.00    +0.000 A 
ATOM      6  C   UNL     1       7.412   5.088  14.115  0.00  0.00    +0.000 A 
ATOM      7  C   UNL     1       6.408   4.247  14.606  0.00  0.00    +0.000 A 
ATOM      8  C   UNL     1       5.700   3.401  13.746  0.00  0.00    +0.000 A 
BRANCH   3  10
ATOM      9  O   UNL     1       4.162   2.896  11.078  0.00  0.00    +0.000 OA
ATOM     10  N   UNL     1       5.275   2.514  11.471  0.00  0.00    +0.000 N 
ATOM     11  O   UNL     1       5.805   1.446  11.152  0.00  0.00    +0.000 OA
ENDBRANCH   3  10
ENDBRANCH   1   7
BRANCH   2  12
ATOM     12  N   UNL     1       5.171   3.344  17.879  0.00  0.00    +0.000 N 
ATOM     13  H   UNL     1       6.046   3.511  18.384  0.00  0.00    +0.000 HD
BRANCH  12  14
ATOM     14  C   UNL     1       4.087   4.047  18.487  0.00  0.00    +0.000 A 
ATOM     15  C   UNL     1       2.747   3.610  18.463  0.00  0.00    +0.000 A 
ATOM     16 CL   UNL     1       2.206   2.129  17.750  0.00  0.00    +0.000 Cl
ATOM     17  C   UNL     1       1.778   4.384  19.100  0.00  0.00    +0.000 A 
ATOM     18  N   UNL     1       2.031   5.528  19.778  0.00  0.00    +0.000 NA
ATOM     19  C   UNL     1       3.325   5.908  19.833  0.00  0.00    +0.000 A 
ATOM     20  C   UNL     1       4.365   5.213  19.227  0.00  0.00    +0.000 A 
ATOM     21 CL   UNL     1       5.977   5.816  19.386  0.00  0.00    +0.000 Cl
ENDBRANCH  12  14
ENDBRANCH   2  12
TORSDOF 4
ENDMDL
MODEL 8
REMARK VINA RESULT:      -6.7      5.112      7.514
REMARK  Name = 
REMARK  4 active torsions:
REMARK  status: ('A' for Active; 'I' for Inactive)
REMARK    1  A    between atoms: N_2  and  C_4
REMARK    2  A    between atoms: C_8  and  C_9
REMARK    3  A    between atoms: N_10  and  N_11
REMARK    4  A    between atoms: N_11  and  C_12
REMARK                            x       y       z     vdW  Elec       q    Type
REMARK                         _______ _______ _______ _____ _____    ______ ____
ROOT
ATOM      1  C   UNL     1       2.339   6.601  20.214  0.00  0.00    +0.000 C 
ATOM      2  N   UNL     1       1.420   7.256  20.843  0.00  0.00    +0.000 NA
ENDROOT
BRANCH   1   7
ATOM      3  C   UNL     1       2.788   3.157  18.764  0.00  0.00    +0.000 A 
ATOM      4  C   UNL     1       1.679   2.487  19.300  0.00  0.00    +0.000 A 
ATOM      5  C   UNL     1       0.815   3.164  20.166  0.00  0.00    +0.000 A 
ATOM      6  C   UNL     1       1.056   4.500  20.495  0.00  0.00    +0.000 A 
ATOM      7  C   UNL     1       2.158   5.162  19.943  0.00  0.00    +0.000 A 
ATOM      8  C   UNL     1       3.032   4.495  19.079  0.00  0.00    +0.000 A 
BRANCH   3  10
ATOM      9  O   UNL     1       4.369   3.128  17.065  0.00  0.00    +0.000 OA
ATOM     10  N   UNL     1       3.701   2.445  17.857  0.00  0.00    +0.000 N 
ATOM     11  O   UNL     1       3.748   1.214  17.938  0.00  0.00    +0.000 OA
ENDBRANCH   3  10
ENDBRANCH   1   7
BRANCH   2  12
ATOM     12  N   UNL     1       1.727   8.537  21.160  0.00  0.00    +0.000 N 
ATOM     13  H   UNL     1       2.695   8.822  20.992  0.00  0.00    +0.000 HD
BRANCH  12  14
ATOM     14  C   UNL     1       0.813   9.529  20.691  0.00  0.00    +0.000 A 
ATOM     15  C   UNL     1       0.710   9.938  19.346  0.00  0.00    +0.000 A 
ATOM     16 CL   UNL     1       1.625   9.267  18.039  0.00  0.00    +0.000 Cl
ATOM     17  C   UNL     1      -0.227  10.915  19.012  0.00  0.00    +0.000 A 
ATOM     18  N   UNL     1      -1.083  11.491  19.888  0.00  0.00    +0.000 NA
ATOM     19  C   UNL     1      -1.006  11.055  21.163  0.00  0.00    +0.000 A 
ATOM     20  C   UNL     1      -0.103  10.092  21.601  0.00  0.00    +0.000 A 
ATOM     21 CL   UNL     1      -0.122   9.626  23.266  0.00  0.00    +0.000 Cl
ENDBRANCH  12  14
ENDBRANCH   2  12
TORSDOF 4
ENDMDL
MODEL 9
REMARK VINA RESULT:      -6.6      5.723      7.727
REMARK  Name = 
REMARK  4 active torsions:
REMARK  status: ('A' for Active; 'I' for Inactive)
REMARK    1  A    between atoms: N_2  and  C_4
REMARK    2  A    between atoms: C_8  and  C_9
REMARK    3  A    between atoms: N_10  and  N_11
REMARK    4  A    between atoms: N_11  and  C_12
REMARK                            x       y       z     vdW  Elec       q    Type
REMARK                         _______ _______ _______ _____ _____    ______ ____
ROOT
ATOM      1  C   UNL     1       2.342   6.373  20.132  0.00  0.00    +0.000 C 
ATOM      2  N   UNL     1       1.534   7.111  20.821  0.00  0.00    +0.000 NA
ENDROOT
BRANCH   1   7
ATOM      3  C   UNL     1       2.985   2.691  19.699  0.00  0.00    +0.000 A 
ATOM      4  C   UNL     1       1.685   2.174  19.787  0.00  0.00    +0.000 A 
ATOM      5  C   UNL     1       0.612   3.037  20.029  0.00  0.00    +0.000 A 
ATOM      6  C   UNL     1       0.835   4.408  20.181  0.00  0.00    +0.000 A 
ATOM      7  C   UNL     1       2.135   4.914  20.077  0.00  0.00    +0.000 A 
ATOM      8  C   UNL     1       3.217   4.061  19.840  0.00  0.00    +0.000 A 
BRANCH   3  10
ATOM      9  O   UNL     1       4.012   0.986  18.506  0.00  0.00    +0.000 OA
ATOM     10  N   UNL     1       4.115   1.784  19.450  0.00  0.00    +0.000 N 
ATOM     11  O   UNL     1       5.096   1.870  20.195  0.00  0.00    +0.000 OA
ENDBRANCH   3  10
ENDBRANCH   1   7
BRANCH   2  12
ATOM     12  N   UNL     1       1.875   8.418  20.921  0.00  0.00    +0.000 N 
ATOM     13  H   UNL     1       2.786   8.676  20.532  0.00  0.00    +0.000 HD
BRANCH  12  14
ATOM     14  C   UNL     1       0.869   9.353  20.531  0.00  0.00    +0.000 A 
ATOM     15  C   UNL     1      -0.049   9.947  21.422  0.00  0.00    +0.000 A 
ATOM     16 CL   UNL     1      -0.069   9.688  23.133  0.00  0.00    +0.000 Cl
ATOM     17  C   UNL     1      -0.982  10.851  20.918  0.00  0.00    +0.000 A 
ATOM     18  N   UNL     1      -1.060  11.236  19.623  0.00  0.00    +0.000 NA
ATOM     19  C   UNL     1      -0.144  10.696  18.790  0.00  0.00    +0.000 A 
ATOM     20  C   UNL     1       0.823   9.780  19.190  0.00  0.00    +0.000 A 
ATOM     21 CL   UNL     1       1.936   9.176  18.013  0.00  0.00    +0.000 Cl
ENDBRANCH  12  14
ENDBRANCH   2  12
TORSDOF 4
ENDMDL
