MODEL 1
REMARK VINA RESULT:      -7.3      0.000      0.000
REMARK  Name = 
REMARK  7 active torsions:
REMARK  status: ('A' for Active; 'I' for Inactive)
REMARK    1  A    between atoms: C_2  and  C_3
REMARK    2  A    between atoms: C_6  and  C_7
REMARK    3  A    between atoms: C_10  and  C_11
REMARK    4  A    between atoms: N_13  and  C_14
REMARK    5  A    between atoms: N_13  and  C_21
REMARK    6  A    between atoms: C_14  and  C_15
REMARK    7  A    between atoms: C_24  and  N_25
REMARK                            x       y       z     vdW  Elec       q    Type
REMARK                         _______ _______ _______ _____ _____    ______ ____
ROOT
ATOM      1  C   UNL     1       4.997   4.712  17.457  0.00  0.00    +0.000 C 
ATOM      2  O   UNL     1       4.676   3.546  17.201  0.00  0.00    +0.000 OA
ATOM      3  N   UNL     1       6.144   5.264  16.851  0.00  0.00    +0.000 N 
ENDROOT
BRANCH   3   4
ATOM      4  C   UNL     1       6.783   6.416  17.368  0.00  0.00    +0.000 A 
ATOM      5  C   UNL     1       6.494   7.695  16.887  0.00  0.00    +0.000 A 
ATOM      6  C   UNL     1       7.197   8.802  17.378  0.00  0.00    +0.000 A 
ATOM      7  C   UNL     1       8.187   8.667  18.360  0.00  0.00    +0.000 A 
ATOM      8  C   UNL     1       8.432   7.365  18.838  0.00  0.00    +0.000 A 
ATOM      9  C   UNL     1       7.731   6.254  18.368  0.00  0.00    +0.000 A 
BRANCH   7  10
ATOM     10  N   UNL     1       8.894   9.745  18.839  0.00  0.00    +0.000 N 
ATOM     11  C   UNL     1       9.485  10.754  17.950  0.00  0.00    +0.000 C 
ATOM     12  C   UNL     1       8.938  12.149  18.309  0.00  0.00    +0.000 C 
ATOM     13  N   UNL     1       9.186  12.511  19.719  0.00  0.00    +0.000 NA
ATOM     14  C   UNL     1       8.634  11.462  20.600  0.00  0.00    +0.000 C 
ATOM     15  C   UNL     1       9.088  10.015  20.272  0.00  0.00    +0.000 C 
ATOM     16  H   UNL     1       8.714  13.392  19.921  0.00  0.00    +0.000 HD
ENDBRANCH   7  10
ENDBRANCH   3   4
BRANCH   1  20
ATOM     17  C   UNL     1       2.799   7.114  19.100  0.00  0.00    +0.000 A 
ATOM     18  C   UNL     1       3.089   6.315  20.188  0.00  0.00    +0.000 A 
ATOM     19  C   UNL     1       3.985   5.318  19.742  0.00  0.00    +0.000 A 
ATOM     20  C   UNL     1       4.175   5.508  18.383  0.00  0.00    +0.000 A 
ATOM     21  O   UNL     1       3.423   6.597  17.989  0.00  0.00    +0.000 OA
BRANCH  17  25
ATOM     22  C   UNL     1       0.690  10.869  18.809  0.00  0.00    +0.000 A 
ATOM     23  C   UNL     1       0.556  10.064  19.937  0.00  0.00    +0.000 A 
ATOM     24  C   UNL     1       1.207   8.817  19.997  0.00  0.00    +0.000 A 
ATOM     25  C   UNL     1       2.033   8.360  18.953  0.00  0.00    +0.000 A 
ATOM     26  C   UNL     1       2.134   9.168  17.814  0.00  0.00    +0.000 A 
ATOM     27  C   UNL     1       1.455  10.398  17.738  0.00  0.00    +0.000 A 
BRANCH  22  29
ATOM     28  N   UNL     1      -0.405  13.228  18.708  0.00  0.00    +0.000 NA
ATOM     29  C   UNL     1       0.088  12.180  18.760  0.00  0.00    +0.000 C 
ENDBRANCH  22  29
ENDBRANCH  17  25
ENDBRANCH   1  20
BRANCH   3  30
ATOM     30  C   UNL     1       7.020   4.388  16.040  0.00  0.00    +0.000 C 
BRANCH  30  31
ATOM     31  C   UNL     1       6.943   4.514  14.524  0.00  0.00    +0.000 A 
ATOM     32  C   UNL     1       6.144   3.655  13.769  0.00  0.00    +0.000 A 
ATOM     33  C   UNL     1       6.278   3.662  12.375  0.00  0.00    +0.000 A 
ATOM     34  C   UNL     1       7.191   4.518  11.772  0.00  0.00    +0.000 A 
ATOM     35  C   UNL     1       7.924   5.355  12.588  0.00  0.00    +0.000 A 
ATOM     36  N   UNL     1       7.819   5.375  13.938  0.00  0.00    +0.000 NA
ENDBRANCH  30  31
ENDBRANCH   3  30
TORSDOF 7
ENDMDL
MODEL 2
REMARK VINA RESULT:      -7.3      5.088     10.967
REMARK  Name = 
REMARK  7 active torsions:
REMARK  status: ('A' for Active; 'I' for Inactive)
REMARK    1  A    between atoms: C_2  and  C_3
REMARK    2  A    between atoms: C_6  and  C_7
REMARK    3  A    between atoms: C_10  and  C_11
REMARK    4  A    between atoms: N_13  and  C_14
REMARK    5  A    between atoms: N_13  and  C_21
REMARK    6  A    between atoms: C_14  and  C_15
REMARK    7  A    between atoms: C_24  and  N_25
REMARK                            x       y       z     vdW  Elec       q    Type
REMARK                         _______ _______ _______ _____ _____    ______ ____
ROOT
ATOM      1  C   UNL     1       1.130  12.363  20.815  0.00  0.00    +0.000 C 
ATOM      2  O   UNL     1       2.117  12.850  21.377  0.00  0.00    +0.000 OA
ATOM      3  N   UNL     1       0.272  13.199  20.072  0.00  0.00    +0.000 N 
ENDROOT
BRANCH   3   4
ATOM      4  C   UNL     1      -1.046  12.810  19.734  0.00  0.00    +0.000 A 
ATOM      5  C   UNL     1      -1.329  12.127  18.549  0.00  0.00    +0.000 A 
ATOM      6  C   UNL     1      -2.655  11.818  18.220  0.00  0.00    +0.000 A 
ATOM      7  C   UNL     1      -3.720  12.167  19.060  0.00  0.00    +0.000 A 
ATOM      8  C   UNL     1      -3.392  12.833  20.257  0.00  0.00    +0.000 A 
ATOM      9  C   UNL     1      -2.075  13.135  20.605  0.00  0.00    +0.000 A 
BRANCH   7  10
ATOM     10  N   UNL     1      -5.027  11.883  18.740  0.00  0.00    +0.000 N 
ATOM     11  C   UNL     1      -5.450  10.558  18.269  0.00  0.00    +0.000 C 
ATOM     12  C   UNL     1      -6.543   9.997  19.199  0.00  0.00    +0.000 C 
ATOM     13  N   UNL     1      -7.712  10.893  19.305  0.00  0.00    +0.000 NA
ATOM     14  C   UNL     1      -7.267  12.236  19.726  0.00  0.00    +0.000 C 
ATOM     15  C   UNL     1      -6.124  12.853  18.877  0.00  0.00    +0.000 C 
ATOM     16  H   UNL     1      -8.351  10.521  20.008  0.00  0.00    +0.000 HD
ENDBRANCH   7  10
ENDBRANCH   3   4
BRANCH   1  20
ATOM     17  C   UNL     1       1.128   8.721  20.620  0.00  0.00    +0.000 A 
ATOM     18  C   UNL     1       0.036   8.889  21.448  0.00  0.00    +0.000 A 
ATOM     19  C   UNL     1      -0.147  10.280  21.614  0.00  0.00    +0.000 A 
ATOM     20  C   UNL     1       0.869  10.918  20.923  0.00  0.00    +0.000 A 
ATOM     21  O   UNL     1       1.665   9.955  20.335  0.00  0.00    +0.000 OA
BRANCH  17  25
ATOM     22  C   UNL     1       2.708   5.172  18.739  0.00  0.00    +0.000 A 
ATOM     23  C   UNL     1       2.123   5.108  20.001  0.00  0.00    +0.000 A 
ATOM     24  C   UNL     1       1.660   6.281  20.626  0.00  0.00    +0.000 A 
ATOM     25  C   UNL     1       1.735   7.537  19.996  0.00  0.00    +0.000 A 
ATOM     26  C   UNL     1       2.353   7.588  18.740  0.00  0.00    +0.000 A 
ATOM     27  C   UNL     1       2.849   6.422  18.130  0.00  0.00    +0.000 A 
BRANCH  22  29
ATOM     28  N   UNL     1       3.463   3.015  17.493  0.00  0.00    +0.000 NA
ATOM     29  C   UNL     1       3.124   3.971  18.055  0.00  0.00    +0.000 C 
ENDBRANCH  22  29
ENDBRANCH  17  25
ENDBRANCH   1  20
BRANCH   3  30
ATOM     30  C   UNL     1       0.490  14.664  20.106  0.00  0.00    +0.000 C 
BRANCH  30  31
ATOM     31  C   UNL     1       1.327  15.283  18.995  0.00  0.00    +0.000 A 
ATOM     32  C   UNL     1       2.448  14.626  18.486  0.00  0.00    +0.000 A 
ATOM     33  C   UNL     1       3.309  15.326  17.633  0.00  0.00    +0.000 A 
ATOM     34  C   UNL     1       3.036  16.648  17.306  0.00  0.00    +0.000 A 
ATOM     35  C   UNL     1       1.893  17.217  17.831  0.00  0.00    +0.000 A 
ATOM     36  N   UNL     1       1.039  16.569  18.656  0.00  0.00    +0.000 NA
ENDBRANCH  30  31
ENDBRANCH   3  30
TORSDOF 7
ENDMDL
MODEL 3
REMARK VINA RESULT:      -7.1      5.218     11.613
REMARK  Name = 
REMARK  7 active torsions:
REMARK  status: ('A' for Active; 'I' for Inactive)
REMARK    1  A    between atoms: C_2  and  C_3
REMARK    2  A    between atoms: C_6  and  C_7
REMARK    3  A    between atoms: C_10  and  C_11
REMARK    4  A    between atoms: N_13  and  C_14
REMARK    5  A    between atoms: N_13  and  C_21
REMARK    6  A    between atoms: C_14  and  C_15
REMARK    7  A    between atoms: C_24  and  N_25
REMARK                            x       y       z     vdW  Elec       q    Type
REMARK                         _______ _______ _______ _____ _____    ______ ____
ROOT
ATOM      1  C   UNL     1       0.634  13.056  21.140  0.00  0.00    +0.000 C 
ATOM      2  O   UNL     1       1.645  13.554  21.650  0.00  0.00    +0.000 OA
ATOM      3  N   UNL     1      -0.324  13.895  20.537  0.00  0.00    +0.000 N 
ENDROOT
BRANCH   3   4
ATOM      4  C   UNL     1      -1.647  13.462  20.286  0.00  0.00    +0.000 A 
ATOM      5  C   UNL     1      -2.703  13.793  21.139  0.00  0.00    +0.000 A 
ATOM      6  C   UNL     1      -3.986  13.289  20.893  0.00  0.00    +0.000 A 
ATOM      7  C   UNL     1      -4.250  12.461  19.794  0.00  0.00    +0.000 A 
ATOM      8  C   UNL     1      -3.166  12.170  18.944  0.00  0.00    +0.000 A 
ATOM      9  C   UNL     1      -1.885  12.675  19.169  0.00  0.00    +0.000 A 
BRANCH   7  10
ATOM     10  N   UNL     1      -5.503  11.947  19.550  0.00  0.00    +0.000 N 
ATOM     11  C   UNL     1      -5.742  10.906  18.543  0.00  0.00    +0.000 C 
ATOM     12  C   UNL     1      -6.399   9.679  19.207  0.00  0.00    +0.000 C 
ATOM     13  N   UNL     1      -7.660  10.015  19.896  0.00  0.00    +0.000 NA
ATOM     14  C   UNL     1      -7.416  11.101  20.867  0.00  0.00    +0.000 C 
ATOM     15  C   UNL     1      -6.704  12.354  20.295  0.00  0.00    +0.000 C 
ATOM     16  H   UNL     1      -7.991   9.192  20.399  0.00  0.00    +0.000 HD
ENDBRANCH   7  10
ENDBRANCH   3   4
BRANCH   1  20
ATOM     17  C   UNL     1       0.821   9.437  20.728  0.00  0.00    +0.000 A 
ATOM     18  C   UNL     1      -0.270   9.497  21.573  0.00  0.00    +0.000 A 
ATOM     19  C   UNL     1      -0.524  10.864  21.823  0.00  0.00    +0.000 A 
ATOM     20  C   UNL     1       0.450  11.595  21.164  0.00  0.00    +0.000 A 
ATOM     21  O   UNL     1       1.289  10.712  20.514  0.00  0.00    +0.000 OA
BRANCH  17  25
ATOM     22  C   UNL     1       2.567   6.077  18.657  0.00  0.00    +0.000 A 
ATOM     23  C   UNL     1       2.152   5.958  19.981  0.00  0.00    +0.000 A 
ATOM     24  C   UNL     1       1.634   7.076  20.662  0.00  0.00    +0.000 A 
ATOM     25  C   UNL     1       1.482   8.325  20.031  0.00  0.00    +0.000 A 
ATOM     26  C   UNL     1       1.931   8.434  18.709  0.00  0.00    +0.000 A 
ATOM     27  C   UNL     1       2.483   7.327  18.039  0.00  0.00    +0.000 A 
BRANCH  22  29
ATOM     28  N   UNL     1       3.398   4.002  17.322  0.00  0.00    +0.000 NA
ATOM     29  C   UNL     1       3.034   4.925  17.922  0.00  0.00    +0.000 C 
ENDBRANCH  22  29
ENDBRANCH  17  25
ENDBRANCH   1  20
BRANCH   3  30
ATOM     30  C   UNL     1      -0.171  15.363  20.660  0.00  0.00    +0.000 C 
BRANCH  30  31
ATOM     31  C   UNL     1       0.197  16.146  19.406  0.00  0.00    +0.000 A 
ATOM     32  C   UNL     1       1.530  16.388  19.072  0.00  0.00    +0.000 A 
ATOM     33  C   UNL     1       1.813  17.294  18.045  0.00  0.00    +0.000 A 
ATOM     34  C   UNL     1       0.774  17.931  17.378  0.00  0.00    +0.000 A 
ATOM     35  C   UNL     1      -0.517  17.617  17.750  0.00  0.00    +0.000 A 
ATOM     36  N   UNL     1      -0.826  16.745  18.737  0.00  0.00    +0.000 NA
ENDBRANCH  30  31
ENDBRANCH   3  30
TORSDOF 7
ENDMDL
MODEL 4
REMARK VINA RESULT:      -7.0      4.992     11.007
REMARK  Name = 
REMARK  7 active torsions:
REMARK  status: ('A' for Active; 'I' for Inactive)
REMARK    1  A    between atoms: C_2  and  C_3
REMARK    2  A    between atoms: C_6  and  C_7
REMARK    3  A    between atoms: C_10  and  C_11
REMARK    4  A    between atoms: N_13  and  C_14
REMARK    5  A    between atoms: N_13  and  C_21
REMARK    6  A    between atoms: C_14  and  C_15
REMARK    7  A    between atoms: C_24  and  N_25
REMARK                            x       y       z     vdW  Elec       q    Type
REMARK                         _______ _______ _______ _____ _____    ______ ____
ROOT
ATOM      1  C   UNL     1       1.285  12.507  20.857  0.00  0.00    +0.000 C 
ATOM      2  O   UNL     1       2.317  12.938  21.385  0.00  0.00    +0.000 OA
ATOM      3  N   UNL     1       0.444  13.393  20.154  0.00  0.00    +0.000 N 
ENDROOT
BRANCH   3   4
ATOM      4  C   UNL     1      -0.904  13.075  19.864  0.00  0.00    +0.000 A 
ATOM      5  C   UNL     1      -1.946  13.442  20.719  0.00  0.00    +0.000 A 
ATOM      6  C   UNL     1      -3.259  13.050  20.430  0.00  0.00    +0.000 A 
ATOM      7  C   UNL     1      -3.566  12.299  19.288  0.00  0.00    +0.000 A 
ATOM      8  C   UNL     1      -2.493  11.969  18.439  0.00  0.00    +0.000 A 
ATOM      9  C   UNL     1      -1.181  12.364  18.706  0.00  0.00    +0.000 A 
BRANCH   7  10
ATOM     10  N   UNL     1      -4.850  11.896  19.002  0.00  0.00    +0.000 N 
ATOM     11  C   UNL     1      -5.877  11.753  20.041  0.00  0.00    +0.000 C 
ATOM     12  C   UNL     1      -7.088  12.645  19.704  0.00  0.00    +0.000 C 
ATOM     13  N   UNL     1      -7.664  12.342  18.378  0.00  0.00    +0.000 NA
ATOM     14  C   UNL     1      -6.608  12.436  17.350  0.00  0.00    +0.000 C 
ATOM     15  C   UNL     1      -5.325  11.613  17.640  0.00  0.00    +0.000 C 
ATOM     16  H   UNL     1      -8.390  13.027  18.169  0.00  0.00    +0.000 HD
ENDBRANCH   7  10
ENDBRANCH   3   4
BRANCH   1  20
ATOM     17  C   UNL     1       1.094   8.871  20.640  0.00  0.00    +0.000 A 
ATOM     18  C   UNL     1       0.035   9.087  21.499  0.00  0.00    +0.000 A 
ATOM     19  C   UNL     1      -0.074  10.485  21.678  0.00  0.00    +0.000 A 
ATOM     20  C   UNL     1       0.955  11.076  20.964  0.00  0.00    +0.000 A 
ATOM     21  O   UNL     1       1.685  10.079  20.349  0.00  0.00    +0.000 OA
BRANCH  17  25
ATOM     22  C   UNL     1       2.851   5.393  18.785  0.00  0.00    +0.000 A 
ATOM     23  C   UNL     1       2.861   6.625  18.137  0.00  0.00    +0.000 A 
ATOM     24  C   UNL     1       2.237   7.740  18.729  0.00  0.00    +0.000 A 
ATOM     25  C   UNL     1       1.624   7.662  19.993  0.00  0.00    +0.000 A 
ATOM     26  C   UNL     1       1.597   6.409  20.618  0.00  0.00    +0.000 A 
ATOM     27  C   UNL     1       2.188   5.286  20.010  0.00  0.00    +0.000 A 
BRANCH  22  29
ATOM     28  N   UNL     1       4.093   3.336  17.782  0.00  0.00    +0.000 NA
ATOM     29  C   UNL     1       3.546   4.258  18.225  0.00  0.00    +0.000 C 
ENDBRANCH  22  29
ENDBRANCH  17  25
ENDBRANCH   1  20
BRANCH   3  30
ATOM     30  C   UNL     1       0.738  14.844  20.192  0.00  0.00    +0.000 C 
BRANCH  30  31
ATOM     31  C   UNL     1       1.458  15.453  18.996  0.00  0.00    +0.000 A 
ATOM     32  C   UNL     1       2.581  14.838  18.440  0.00  0.00    +0.000 A 
ATOM     33  C   UNL     1       3.337  15.542  17.496  0.00  0.00    +0.000 A 
ATOM     34  C   UNL     1       2.961  16.828  17.128  0.00  0.00    +0.000 A 
ATOM     35  C   UNL     1       1.823  17.355  17.704  0.00  0.00    +0.000 A 
ATOM     36  N   UNL     1       1.068  16.702  18.618  0.00  0.00    +0.000 NA
ENDBRANCH  30  31
ENDBRANCH   3  30
TORSDOF 7
ENDMDL
MODEL 5
REMARK VINA RESULT:      -7.0      4.756     11.122
REMARK  Name = 
REMARK  7 active torsions:
REMARK  status: ('A' for Active; 'I' for Inactive)
REMARK    1  A    between atoms: C_2  and  C_3
REMARK    2  A    between atoms: C_6  and  C_7
REMARK    3  A    between atoms: C_10  and  C_11
REMARK    4  A    between atoms: N_13  and  C_14
REMARK    5  A    between atoms: N_13  and  C_21
REMARK    6  A    between atoms: C_14  and  C_15
REMARK    7  A    between atoms: C_24  and  N_25
REMARK                            x       y       z     vdW  Elec       q    Type
REMARK                         _______ _______ _______ _____ _____    ______ ____
ROOT
ATOM      1  C   UNL     1       1.709  13.249  18.811  0.00  0.00    +0.000 C 
ATOM      2  O   UNL     1       2.823  13.585  18.391  0.00  0.00    +0.000 OA
ATOM      3  N   UNL     1       0.879  14.212  19.419  0.00  0.00    +0.000 N 
ENDROOT
BRANCH   3   4
ATOM      4  C   UNL     1      -0.208  13.846  20.250  0.00  0.00    +0.000 A 
ATOM      5  C   UNL     1      -0.010  13.286  21.514  0.00  0.00    +0.000 A 
ATOM      6  C   UNL     1      -1.111  12.876  22.276  0.00  0.00    +0.000 A 
ATOM      7  C   UNL     1      -2.424  13.024  21.810  0.00  0.00    +0.000 A 
ATOM      8  C   UNL     1      -2.583  13.616  20.542  0.00  0.00    +0.000 A 
ATOM      9  C   UNL     1      -1.496  14.041  19.776  0.00  0.00    +0.000 A 
BRANCH   7  10
ATOM     10  N   UNL     1      -3.511  12.612  22.543  0.00  0.00    +0.000 N 
ATOM     11  C   UNL     1      -3.379  12.040  23.889  0.00  0.00    +0.000 C 
ATOM     12  C   UNL     1      -4.203  12.870  24.893  0.00  0.00    +0.000 C 
ATOM     13  N   UNL     1      -5.629  12.959  24.519  0.00  0.00    +0.000 NA
ATOM     14  C   UNL     1      -5.745  13.484  23.144  0.00  0.00    +0.000 C 
ATOM     15  C   UNL     1      -4.900  12.741  22.076  0.00  0.00    +0.000 C 
ATOM     16  H   UNL     1      -6.098  13.601  25.158  0.00  0.00    +0.000 HD
ENDBRANCH   7  10
ENDBRANCH   3   4
BRANCH   1  20
ATOM     17  C   UNL     1       1.359   9.622  18.666  0.00  0.00    +0.000 A 
ATOM     18  C   UNL     1       0.068   9.972  18.324  0.00  0.00    +0.000 A 
ATOM     19  C   UNL     1       0.017  11.384  18.292  0.00  0.00    +0.000 A 
ATOM     20  C   UNL     1       1.266  11.853  18.665  0.00  0.00    +0.000 A 
ATOM     21  O   UNL     1       2.079  10.766  18.919  0.00  0.00    +0.000 OA
BRANCH  17  25
ATOM     22  C   UNL     1       3.584   5.934  18.945  0.00  0.00    +0.000 A 
ATOM     23  C   UNL     1       3.673   6.734  17.809  0.00  0.00    +0.000 A 
ATOM     24  C   UNL     1       2.901   7.907  17.708  0.00  0.00    +0.000 A 
ATOM     25  C   UNL     1       2.053   8.329  18.749  0.00  0.00    +0.000 A 
ATOM     26  C   UNL     1       1.953   7.498  19.872  0.00  0.00    +0.000 A 
ATOM     27  C   UNL     1       2.696   6.307  19.958  0.00  0.00    +0.000 A 
BRANCH  22  29
ATOM     28  N   UNL     1       5.092   3.832  19.231  0.00  0.00    +0.000 NA
ATOM     29  C   UNL     1       4.420   4.767  19.095  0.00  0.00    +0.000 C 
ENDBRANCH  22  29
ENDBRANCH  17  25
ENDBRANCH   1  20
BRANCH   3  30
ATOM     30  C   UNL     1       1.418  15.567  19.675  0.00  0.00    +0.000 C 
BRANCH  30  31
ATOM     31  C   UNL     1       1.083  16.665  18.673  0.00  0.00    +0.000 A 
ATOM     32  C   UNL     1      -0.233  17.092  18.485  0.00  0.00    +0.000 A 
ATOM     33  C   UNL     1      -0.519  17.934  17.405  0.00  0.00    +0.000 A 
ATOM     34  C   UNL     1       0.499  18.331  16.547  0.00  0.00    +0.000 A 
ATOM     35  C   UNL     1       1.777  17.886  16.817  0.00  0.00    +0.000 A 
ATOM     36  N   UNL     1       2.090  17.073  17.853  0.00  0.00    +0.000 NA
ENDBRANCH  30  31
ENDBRANCH   3  30
TORSDOF 7
ENDMDL
MODEL 6
REMARK VINA RESULT:      -7.0      5.297     11.977
REMARK  Name = 
REMARK  7 active torsions:
REMARK  status: ('A' for Active; 'I' for Inactive)
REMARK    1  A    between atoms: C_2  and  C_3
REMARK    2  A    between atoms: C_6  and  C_7
REMARK    3  A    between atoms: C_10  and  C_11
REMARK    4  A    between atoms: N_13  and  C_14
REMARK    5  A    between atoms: N_13  and  C_21
REMARK    6  A    between atoms: C_14  and  C_15
REMARK    7  A    between atoms: C_24  and  N_25
REMARK                            x       y       z     vdW  Elec       q    Type
REMARK                         _______ _______ _______ _____ _____    ______ ____
ROOT
ATOM      1  C   UNL     1      -0.027  13.475  21.739  0.00  0.00    +0.000 C 
ATOM      2  O   UNL     1       0.848  14.162  22.280  0.00  0.00    +0.000 OA
ATOM      3  N   UNL     1      -1.089  14.110  21.065  0.00  0.00    +0.000 N 
ENDROOT
BRANCH   3   4
ATOM      4  C   UNL     1      -2.296  13.435  20.766  0.00  0.00    +0.000 A 
ATOM      5  C   UNL     1      -2.410  12.587  19.661  0.00  0.00    +0.000 A 
ATOM      6  C   UNL     1      -3.641  11.991  19.361  0.00  0.00    +0.000 A 
ATOM      7  C   UNL     1      -4.776  12.210  20.154  0.00  0.00    +0.000 A 
ATOM      8  C   UNL     1      -4.615  13.051  21.272  0.00  0.00    +0.000 A 
ATOM      9  C   UNL     1      -3.392  13.642  21.591  0.00  0.00    +0.000 A 
BRANCH   7  10
ATOM     10  N   UNL     1      -5.993  11.642  19.860  0.00  0.00    +0.000 N 
ATOM     11  C   UNL     1      -6.237  10.907  18.612  0.00  0.00    +0.000 C 
ATOM     12  C   UNL     1      -6.704   9.474  18.933  0.00  0.00    +0.000 C 
ATOM     13  N   UNL     1      -7.914   9.449  19.779  0.00  0.00    +0.000 NA
ATOM     14  C   UNL     1      -7.674  10.236  21.005  0.00  0.00    +0.000 C 
ATOM     15  C   UNL     1      -7.144  11.675  20.775  0.00  0.00    +0.000 C 
ATOM     16  H   UNL     1      -8.114   8.483  20.041  0.00  0.00    +0.000 HD
ENDBRANCH   7  10
ENDBRANCH   3   4
BRANCH   1  20
ATOM     17  C   UNL     1       0.685   9.927  21.284  0.00  0.00    +0.000 A 
ATOM     18  C   UNL     1      -0.168   9.834  22.366  0.00  0.00    +0.000 A 
ATOM     19  C   UNL     1      -0.590  11.146  22.674  0.00  0.00    +0.000 A 
ATOM     20  C   UNL     1       0.058  12.006  21.803  0.00  0.00    +0.000 A 
ATOM     21  O   UNL     1       0.860  11.254  20.968  0.00  0.00    +0.000 OA
BRANCH  17  25
ATOM     22  C   UNL     1       2.437   6.851  18.815  0.00  0.00    +0.000 A 
ATOM     23  C   UNL     1       2.207   6.629  20.170  0.00  0.00    +0.000 A 
ATOM     24  C   UNL     1       1.684   7.659  20.976  0.00  0.00    +0.000 A 
ATOM     25  C   UNL     1       1.346   8.917  20.445  0.00  0.00    +0.000 A 
ATOM     26  C   UNL     1       1.612   9.133  19.087  0.00  0.00    +0.000 A 
ATOM     27  C   UNL     1       2.168   8.117  18.289  0.00  0.00    +0.000 A 
BRANCH  22  29
ATOM     28  N   UNL     1       3.271   4.933  17.264  0.00  0.00    +0.000 NA
ATOM     29  C   UNL     1       2.906   5.785  17.961  0.00  0.00    +0.000 C 
ENDBRANCH  22  29
ENDBRANCH  17  25
ENDBRANCH   1  20
BRANCH   3  30
ATOM     30  C   UNL     1      -1.213  15.583  21.146  0.00  0.00    +0.000 C 
BRANCH  30  31
ATOM     31  C   UNL     1      -0.665  16.407  19.989  0.00  0.00    +0.000 A 
ATOM     32  C   UNL     1      -1.453  17.364  19.348  0.00  0.00    +0.000 A 
ATOM     33  C   UNL     1      -0.988  17.932  18.157  0.00  0.00    +0.000 A 
ATOM     34  C   UNL     1       0.240  17.541  17.637  0.00  0.00    +0.000 A 
ATOM     35  C   UNL     1       0.971  16.608  18.345  0.00  0.00    +0.000 A 
ATOM     36  N   UNL     1       0.552  16.041  19.500  0.00  0.00    +0.000 NA
ENDBRANCH  30  31
ENDBRANCH   3  30
TORSDOF 7
ENDMDL
MODEL 7
REMARK VINA RESULT:      -6.9      5.434     11.817
REMARK  Name = 
REMARK  7 active torsions:
REMARK  status: ('A' for Active; 'I' for Inactive)
REMARK    1  A    between atoms: C_2  and  C_3
REMARK    2  A    between atoms: C_6  and  C_7
REMARK    3  A    between atoms: C_10  and  C_11
REMARK    4  A    between atoms: N_13  and  C_14
REMARK    5  A    between atoms: N_13  and  C_21
REMARK    6  A    between atoms: C_14  and  C_15
REMARK    7  A    between atoms: C_24  and  N_25
REMARK                            x       y       z     vdW  Elec       q    Type
REMARK                         _______ _______ _______ _____ _____    ______ ____
ROOT
ATOM      1  C   UNL     1      -3.296  11.738  18.402  0.00  0.00    +0.000 C 
ATOM      2  O   UNL     1      -3.878  11.366  17.377  0.00  0.00    +0.000 OA
ATOM      3  N   UNL     1      -4.043  12.295  19.460  0.00  0.00    +0.000 N 
ENDROOT
BRANCH   3   4
ATOM      4  C   UNL     1      -3.438  13.078  20.472  0.00  0.00    +0.000 A 
ATOM      5  C   UNL     1      -2.908  12.502  21.628  0.00  0.00    +0.000 A 
ATOM      6  C   UNL     1      -2.379  13.318  22.637  0.00  0.00    +0.000 A 
ATOM      7  C   UNL     1      -2.353  14.713  22.514  0.00  0.00    +0.000 A 
ATOM      8  C   UNL     1      -2.875  15.254  21.324  0.00  0.00    +0.000 A 
ATOM      9  C   UNL     1      -3.393  14.454  20.305  0.00  0.00    +0.000 A 
BRANCH   7  10
ATOM     10  N   UNL     1      -1.850  15.524  23.504  0.00  0.00    +0.000 N 
ATOM     11  C   UNL     1      -2.048  16.979  23.503  0.00  0.00    +0.000 C 
ATOM     12  C   UNL     1      -2.747  17.412  24.807  0.00  0.00    +0.000 C 
ATOM     13  N   UNL     1      -2.000  17.004  26.013  0.00  0.00    +0.000 NA
ATOM     14  C   UNL     1      -1.760  15.548  25.975  0.00  0.00    +0.000 C 
ATOM     15  C   UNL     1      -1.111  15.017  24.670  0.00  0.00    +0.000 C 
ATOM     16  H   UNL     1      -2.558  17.225  26.838  0.00  0.00    +0.000 HD
ENDBRANCH   7  10
ENDBRANCH   3   4
BRANCH   1  20
ATOM     17  C   UNL     1       0.154  10.590  18.681  0.00  0.00    +0.000 A 
ATOM     18  C   UNL     1       0.390  11.948  18.605  0.00  0.00    +0.000 A 
ATOM     19  C   UNL     1      -0.870  12.582  18.526  0.00  0.00    +0.000 A 
ATOM     20  C   UNL     1      -1.835  11.589  18.505  0.00  0.00    +0.000 A 
ATOM     21  O   UNL     1      -1.199  10.365  18.575  0.00  0.00    +0.000 OA
BRANCH  17  25
ATOM     22  C   UNL     1       2.570   7.069  19.314  0.00  0.00    +0.000 A 
ATOM     23  C   UNL     1       1.867   7.648  20.367  0.00  0.00    +0.000 A 
ATOM     24  C   UNL     1       1.125   8.826  20.160  0.00  0.00    +0.000 A 
ATOM     25  C   UNL     1       1.038   9.434  18.893  0.00  0.00    +0.000 A 
ATOM     26  C   UNL     1       1.774   8.856  17.852  0.00  0.00    +0.000 A 
ATOM     27  C   UNL     1       2.544   7.699  18.067  0.00  0.00    +0.000 A 
BRANCH  22  29
ATOM     28  N   UNL     1       3.831   4.815  19.634  0.00  0.00    +0.000 NA
ATOM     29  C   UNL     1       3.277   5.823  19.493  0.00  0.00    +0.000 C 
ENDBRANCH  22  29
ENDBRANCH  17  25
ENDBRANCH   1  20
BRANCH   3  30
ATOM     30  C   UNL     1      -5.486  12.558  19.259  0.00  0.00    +0.000 C 
BRANCH  30  31
ATOM     31  C   UNL     1      -6.473  11.502  19.740  0.00  0.00    +0.000 A 
ATOM     32  C   UNL     1      -7.167  11.657  20.941  0.00  0.00    +0.000 A 
ATOM     33  C   UNL     1      -7.886  10.569  21.448  0.00  0.00    +0.000 A 
ATOM     34  C   UNL     1      -7.901   9.365  20.754  0.00  0.00    +0.000 A 
ATOM     35  C   UNL     1      -7.211   9.302  19.561  0.00  0.00    +0.000 A 
ATOM     36  N   UNL     1      -6.508  10.335  19.041  0.00  0.00    +0.000 NA
ENDBRANCH  30  31
ENDBRANCH   3  30
TORSDOF 7
ENDMDL
MODEL 8
REMARK VINA RESULT:      -6.9      3.743      9.735
REMARK  Name = 
REMARK  7 active torsions:
REMARK  status: ('A' for Active; 'I' for Inactive)
REMARK    1  A    between atoms: C_2  and  C_3
REMARK    2  A    between atoms: C_6  and  C_7
REMARK    3  A    between atoms: C_10  and  C_11
REMARK    4  A    between atoms: N_13  and  C_14
REMARK    5  A    between atoms: N_13  and  C_21
REMARK    6  A    between atoms: C_14  and  C_15
REMARK    7  A    between atoms: C_24  and  N_25
REMARK                            x       y       z     vdW  Elec       q    Type
REMARK                         _______ _______ _______ _____ _____    ______ ____
ROOT
ATOM      1  C   UNL     1       0.085   9.196  21.112  0.00  0.00    +0.000 C 
ATOM      2  O   UNL     1      -0.548   8.287  21.661  0.00  0.00    +0.000 OA
ATOM      3  N   UNL     1       0.076  10.488  21.677  0.00  0.00    +0.000 N 
ENDROOT
BRANCH   3   4
ATOM      4  C   UNL     1       0.437  11.634  20.931  0.00  0.00    +0.000 A 
ATOM      5  C   UNL     1      -0.430  12.207  19.998  0.00  0.00    +0.000 A 
ATOM      6  C   UNL     1      -0.010  13.301  19.231  0.00  0.00    +0.000 A 
ATOM      7  C   UNL     1       1.268  13.855  19.382  0.00  0.00    +0.000 A 
ATOM      8  C   UNL     1       2.104  13.266  20.349  0.00  0.00    +0.000 A 
ATOM      9  C   UNL     1       1.695  12.184  21.130  0.00  0.00    +0.000 A 
BRANCH   7  10
ATOM     10  N   UNL     1       1.697  14.920  18.624  0.00  0.00    +0.000 N 
ATOM     11  C   UNL     1       0.980  16.201  18.594  0.00  0.00    +0.000 C 
ATOM     12  C   UNL     1       1.926  17.339  19.025  0.00  0.00    +0.000 C 
ATOM     13  N   UNL     1       3.138  17.417  18.185  0.00  0.00    +0.000 NA
ATOM     14  C   UNL     1       3.820  16.107  18.181  0.00  0.00    +0.000 C 
ATOM     15  C   UNL     1       2.924  14.895  17.814  0.00  0.00    +0.000 C 
ATOM     16  H   UNL     1       3.769  18.115  18.580  0.00  0.00    +0.000 HD
ENDBRANCH   7  10
ENDBRANCH   3   4
BRANCH   1  20
ATOM     17  C   UNL     1       2.328   7.957  18.516  0.00  0.00    +0.000 A 
ATOM     18  C   UNL     1       1.640   8.894  17.771  0.00  0.00    +0.000 A 
ATOM     19  C   UNL     1       0.722   9.523  18.642  0.00  0.00    +0.000 A 
ATOM     20  C   UNL     1       0.843   8.916  19.881  0.00  0.00    +0.000 A 
ATOM     21  O   UNL     1       1.813   7.937  19.792  0.00  0.00    +0.000 OA
BRANCH  17  25
ATOM     22  C   UNL     1       5.810   5.547  17.683  0.00  0.00    +0.000 A 
ATOM     23  C   UNL     1       5.433   6.574  16.821  0.00  0.00    +0.000 A 
ATOM     24  C   UNL     1       4.265   7.318  17.076  0.00  0.00    +0.000 A 
ATOM     25  C   UNL     1       3.468   7.081  18.211  0.00  0.00    +0.000 A 
ATOM     26  C   UNL     1       3.845   6.026  19.052  0.00  0.00    +0.000 A 
ATOM     27  C   UNL     1       4.992   5.259  18.778  0.00  0.00    +0.000 A 
BRANCH  22  29
ATOM     28  N   UNL     1       8.030   4.236  17.324  0.00  0.00    +0.000 NA
ATOM     29  C   UNL     1       7.041   4.822  17.476  0.00  0.00    +0.000 C 
ENDBRANCH  22  29
ENDBRANCH  17  25
ENDBRANCH   1  20
BRANCH   3  30
ATOM     30  C   UNL     1      -0.811  10.760  22.831  0.00  0.00    +0.000 C 
BRANCH  30  31
ATOM     31  C   UNL     1      -1.437  12.144  22.934  0.00  0.00    +0.000 A 
ATOM     32  C   UNL     1      -2.706  12.402  22.412  0.00  0.00    +0.000 A 
ATOM     33  C   UNL     1      -3.143  13.729  22.328  0.00  0.00    +0.000 A 
ATOM     34  C   UNL     1      -2.318  14.758  22.766  0.00  0.00    +0.000 A 
ATOM     35  C   UNL     1      -1.089  14.417  23.294  0.00  0.00    +0.000 A 
ATOM     36  N   UNL     1      -0.636  13.146  23.390  0.00  0.00    +0.000 NA
ENDBRANCH  30  31
ENDBRANCH   3  30
TORSDOF 7
ENDMDL
MODEL 9
REMARK VINA RESULT:      -6.9      4.889     11.071
REMARK  Name = 
REMARK  7 active torsions:
REMARK  status: ('A' for Active; 'I' for Inactive)
REMARK    1  A    between atoms: C_2  and  C_3
REMARK    2  A    between atoms: C_6  and  C_7
REMARK    3  A    between atoms: C_10  and  C_11
REMARK    4  A    between atoms: N_13  and  C_14
REMARK    5  A    between atoms: N_13  and  C_21
REMARK    6  A    between atoms: C_14  and  C_15
REMARK    7  A    between atoms: C_24  and  N_25
REMARK                            x       y       z     vdW  Elec       q    Type
REMARK                         _______ _______ _______ _____ _____    ______ ____
ROOT
ATOM      1  C   UNL     1       1.106  12.603  20.947  0.00  0.00    +0.000 C 
ATOM      2  O   UNL     1       2.139  13.099  21.412  0.00  0.00    +0.000 OA
ATOM      3  N   UNL     1       0.175  13.431  20.289  0.00  0.00    +0.000 N 
ENDROOT
BRANCH   3   4
ATOM      4  C   UNL     1      -1.166  13.031  20.079  0.00  0.00    +0.000 A 
ATOM      5  C   UNL     1      -1.522  12.175  19.034  0.00  0.00    +0.000 A 
ATOM      6  C   UNL     1      -2.869  11.856  18.819  0.00  0.00    +0.000 A 
ATOM      7  C   UNL     1      -3.884  12.366  19.639  0.00  0.00    +0.000 A 
ATOM      8  C   UNL     1      -3.483  13.205  20.697  0.00  0.00    +0.000 A 
ATOM      9  C   UNL     1      -2.144  13.521  20.931  0.00  0.00    +0.000 A 
BRANCH   7  10
ATOM     10  N   UNL     1      -5.211  12.072  19.429  0.00  0.00    +0.000 N 
ATOM     11  C   UNL     1      -5.656  11.179  18.351  0.00  0.00    +0.000 C 
ATOM     12  C   UNL     1      -6.462  10.007  18.944  0.00  0.00    +0.000 C 
ATOM     13  N   UNL     1      -7.623  10.461  19.736  0.00  0.00    +0.000 NA
ATOM     14  C   UNL     1      -7.168  11.399  20.781  0.00  0.00    +0.000 C 
ATOM     15  C   UNL     1      -6.298  12.581  20.278  0.00  0.00    +0.000 C 
ATOM     16  H   UNL     1      -8.053   9.652  20.184  0.00  0.00    +0.000 HD
ENDBRANCH   7  10
ENDBRANCH   3   4
BRANCH   1  20
ATOM     17  C   UNL     1       1.098   8.962  20.737  0.00  0.00    +0.000 A 
ATOM     18  C   UNL     1       0.119   9.120  21.697  0.00  0.00    +0.000 A 
ATOM     19  C   UNL     1      -0.049  10.509  21.892  0.00  0.00    +0.000 A 
ATOM     20  C   UNL     1       0.868  11.156  21.081  0.00  0.00    +0.000 A 
ATOM     21  O   UNL     1       1.588  10.200  20.392  0.00  0.00    +0.000 OA
BRANCH  17  25
ATOM     22  C   UNL     1       2.854   5.576  18.716  0.00  0.00    +0.000 A 
ATOM     23  C   UNL     1       2.810   6.825  18.103  0.00  0.00    +0.000 A 
ATOM     24  C   UNL     1       2.187   7.909  18.751  0.00  0.00    +0.000 A 
ATOM     25  C   UNL     1       1.627   7.783  20.035  0.00  0.00    +0.000 A 
ATOM     26  C   UNL     1       1.654   6.513  20.626  0.00  0.00    +0.000 A 
ATOM     27  C   UNL     1       2.244   5.421  19.964  0.00  0.00    +0.000 A 
BRANCH  22  29
ATOM     28  N   UNL     1       4.095   3.581  17.596  0.00  0.00    +0.000 NA
ATOM     29  C   UNL     1       3.550   4.473  18.098  0.00  0.00    +0.000 C 
ENDBRANCH  22  29
ENDBRANCH  17  25
ENDBRANCH   1  20
BRANCH   3  30
ATOM     30  C   UNL     1       0.383  14.897  20.301  0.00  0.00    +0.000 C 
BRANCH  30  31
ATOM     31  C   UNL     1       1.582  15.450  19.542  0.00  0.00    +0.000 A 
ATOM     32  C   UNL     1       1.983  14.896  18.325  0.00  0.00    +0.000 A 
ATOM     33  C   UNL     1       3.212  15.285  17.780  0.00  0.00    +0.000 A 
ATOM     34  C   UNL     1       4.004  16.210  18.449  0.00  0.00    +0.000 A 
ATOM     35  C   UNL     1       3.524  16.730  19.634  0.00  0.00    +0.000 A 
ATOM     36  N   UNL     1       2.340  16.377  20.188  0.00  0.00    +0.000 NA
ENDBRANCH  30  31
ENDBRANCH   3  30
TORSDOF 7
ENDMDL
