MODEL 1
REMARK VINA RESULT:      -8.5      0.000      0.000
REMARK  Name = 
REMARK  3 active torsions:
REMARK  status: ('A' for Active; 'I' for Inactive)
REMARK    1  A    between atoms: C_11  and  C_12
REMARK    2  A    between atoms: C_13  and  C_14
REMARK    3  A    between atoms: N_21  and  C_22
REMARK                            x       y       z     vdW  Elec       q    Type
REMARK                         _______ _______ _______ _____ _____    ______ ____
ROOT
ATOM      1  O   UNL     1       4.115   5.885  20.254  0.00  0.00    +0.000 OA
ATOM      2  C   UNL     1       4.071   4.938  19.471  0.00  0.00    +0.000 A 
ATOM      3  C   UNL     1       3.067   3.886  19.692  0.00  0.00    +0.000 A 
ATOM      4  C   UNL     1       2.316   3.839  20.874  0.00  0.00    +0.000 A 
ATOM      5  C   UNL     1       1.411   2.802  21.051  0.00  0.00    +0.000 A 
ATOM      6  F   UNL     1       0.699   2.735  22.182  0.00  0.00    +0.000 F 
ATOM      7  C   UNL     1       1.237   1.827  20.075  0.00  0.00    +0.000 A 
ATOM      8  C   UNL     1       1.984   1.893  18.897  0.00  0.00    +0.000 A 
ATOM      9  C   UNL     1       2.907   2.925  18.701  0.00  0.00    +0.000 A 
ATOM     10  N   UNL     1       3.657   2.929  17.523  0.00  0.00    +0.000 NA
ATOM     11  C   UNL     1       4.604   3.810  17.379  0.00  0.00    +0.000 A 
ATOM     12  N   UNL     1       4.879   4.789  18.333  0.00  0.00    +0.000 N 
ENDROOT
BRANCH  12  13
ATOM     13  C   UNL     1       5.968   5.709  18.193  0.00  0.00    +0.000 A 
ATOM     14  C   UNL     1       7.140   5.516  18.943  0.00  0.00    +0.000 A 
ATOM     15  C   UNL     1       8.162   6.468  18.919  0.00  0.00    +0.000 A 
ATOM     16  C   UNL     1       8.037   7.608  18.128  0.00  0.00    +0.000 A 
ATOM     17  C   UNL     1       6.900   7.789  17.340  0.00  0.00    +0.000 A 
ATOM     18  C   UNL     1       5.868   6.847  17.367  0.00  0.00    +0.000 A 
ATOM     19 CL   UNL     1       4.437   7.223  16.467  0.00  0.00    +0.000 Cl
ENDBRANCH  12  13
BRANCH  11  20
ATOM     20  C   UNL     1       5.494   3.700  16.177  0.00  0.00    +0.000 C 
ATOM     21  C   UNL     1       5.095   4.176  14.985  0.00  0.00    +0.000 C 
BRANCH  21  22
ATOM     22  C   UNL     1       5.867   4.068  13.733  0.00  0.00    +0.000 A 
ATOM     23  C   UNL     1       5.430   3.298  12.645  0.00  0.00    +0.000 A 
ATOM     24  C   UNL     1       6.176   3.241  11.461  0.00  0.00    +0.000 A 
ATOM     25  C   UNL     1       7.364   3.961  11.341  0.00  0.00    +0.000 A 
ATOM     26  C   UNL     1       7.797   4.752  12.402  0.00  0.00    +0.000 A 
ATOM     27  C   UNL     1       7.050   4.806  13.578  0.00  0.00    +0.000 A 
ATOM     28  F   UNL     1       7.492   5.589  14.574  0.00  0.00    +0.000 F 
ENDBRANCH  21  22
ENDBRANCH  11  20
TORSDOF 3
ENDMDL
MODEL 2
REMARK VINA RESULT:      -8.2      3.682      7.831
REMARK  Name = 
REMARK  3 active torsions:
REMARK  status: ('A' for Active; 'I' for Inactive)
REMARK    1  A    between atoms: C_11  and  C_12
REMARK    2  A    between atoms: C_13  and  C_14
REMARK    3  A    between atoms: N_21  and  C_22
REMARK                            x       y       z     vdW  Elec       q    Type
REMARK                         _______ _______ _______ _____ _____    ______ ____
ROOT
ATOM      1  O   UNL     1       3.692   2.351  17.173  0.00  0.00    +0.000 OA
ATOM      2  C   UNL     1       3.919   3.554  17.289  0.00  0.00    +0.000 A 
ATOM      3  C   UNL     1       4.784   4.209  16.296  0.00  0.00    +0.000 A 
ATOM      4  C   UNL     1       5.508   3.459  15.360  0.00  0.00    +0.000 A 
ATOM      5  C   UNL     1       6.341   4.122  14.471  0.00  0.00    +0.000 A 
ATOM      6  F   UNL     1       7.052   3.417  13.583  0.00  0.00    +0.000 F 
ATOM      7  C   UNL     1       6.456   5.508  14.494  0.00  0.00    +0.000 A 
ATOM      8  C   UNL     1       5.720   6.243  15.424  0.00  0.00    +0.000 A 
ATOM      9  C   UNL     1       4.879   5.595  16.334  0.00  0.00    +0.000 A 
ATOM     10  N   UNL     1       4.191   6.370  17.270  0.00  0.00    +0.000 NA
ATOM     11  C   UNL     1       3.502   5.774  18.199  0.00  0.00    +0.000 A 
ATOM     12  N   UNL     1       3.377   4.388  18.280  0.00  0.00    +0.000 N 
ENDROOT
BRANCH  12  13
ATOM     13  C   UNL     1       2.673   3.744  19.348  0.00  0.00    +0.000 A 
ATOM     14  C   UNL     1       1.286   3.926  19.473  0.00  0.00    +0.000 A 
ATOM     15  C   UNL     1       0.600   3.413  20.577  0.00  0.00    +0.000 A 
ATOM     16  C   UNL     1       1.286   2.694  21.553  0.00  0.00    +0.000 A 
ATOM     17  C   UNL     1       2.655   2.463  21.417  0.00  0.00    +0.000 A 
ATOM     18  C   UNL     1       3.351   2.982  20.321  0.00  0.00    +0.000 A 
ATOM     19 CL   UNL     1       5.069   2.768  20.308  0.00  0.00    +0.000 Cl
ENDBRANCH  12  13
BRANCH  11  20
ATOM     20  C   UNL     1       2.897   6.620  19.280  0.00  0.00    +0.000 C 
ATOM     21  C   UNL     1       2.041   7.611  18.975  0.00  0.00    +0.000 C 
BRANCH  21  22
ATOM     22  C   UNL     1       1.437   8.534  19.954  0.00  0.00    +0.000 A 
ATOM     23  C   UNL     1       1.373   8.240  21.324  0.00  0.00    +0.000 A 
ATOM     24  C   UNL     1       0.817   9.152  22.228  0.00  0.00    +0.000 A 
ATOM     25  C   UNL     1       0.327  10.379  21.781  0.00  0.00    +0.000 A 
ATOM     26  C   UNL     1       0.409  10.698  20.428  0.00  0.00    +0.000 A 
ATOM     27  C   UNL     1       0.964   9.785  19.532  0.00  0.00    +0.000 A 
ATOM     28  F   UNL     1       1.038  10.133  18.238  0.00  0.00    +0.000 F 
ENDBRANCH  21  22
ENDBRANCH  11  20
TORSDOF 3
ENDMDL
MODEL 3
REMARK VINA RESULT:      -7.9      3.750      7.840
REMARK  Name = 
REMARK  3 active torsions:
REMARK  status: ('A' for Active; 'I' for Inactive)
REMARK    1  A    between atoms: C_11  and  C_12
REMARK    2  A    between atoms: C_13  and  C_14
REMARK    3  A    between atoms: N_21  and  C_22
REMARK                            x       y       z     vdW  Elec       q    Type
REMARK                         _______ _______ _______ _____ _____    ______ ____
ROOT
ATOM      1  O   UNL     1       3.729   2.518  17.426  0.00  0.00    +0.000 OA
ATOM      2  C   UNL     1       3.920   3.729  17.519  0.00  0.00    +0.000 A 
ATOM      3  C   UNL     1       4.785   4.384  16.526  0.00  0.00    +0.000 A 
ATOM      4  C   UNL     1       5.546   3.634  15.621  0.00  0.00    +0.000 A 
ATOM      5  C   UNL     1       6.377   4.300  14.731  0.00  0.00    +0.000 A 
ATOM      6  F   UNL     1       7.123   3.595  13.872  0.00  0.00    +0.000 F 
ATOM      7  C   UNL     1       6.454   5.688  14.724  0.00  0.00    +0.000 A 
ATOM      8  C   UNL     1       5.682   6.424  15.624  0.00  0.00    +0.000 A 
ATOM      9  C   UNL     1       4.842   5.773  16.534  0.00  0.00    +0.000 A 
ATOM     10  N   UNL     1       4.116   6.550  17.439  0.00  0.00    +0.000 NA
ATOM     11  C   UNL     1       3.427   5.956  18.370  0.00  0.00    +0.000 A 
ATOM     12  N   UNL     1       3.339   4.569  18.481  0.00  0.00    +0.000 N 
ENDROOT
BRANCH  12  13
ATOM     13  C   UNL     1       2.633   3.930  19.551  0.00  0.00    +0.000 A 
ATOM     14  C   UNL     1       3.289   3.688  20.768  0.00  0.00    +0.000 A 
ATOM     15  C   UNL     1       2.662   2.955  21.778  0.00  0.00    +0.000 A 
ATOM     16  C   UNL     1       1.367   2.476  21.593  0.00  0.00    +0.000 A 
ATOM     17  C   UNL     1       0.685   2.751  20.408  0.00  0.00    +0.000 A 
ATOM     18  C   UNL     1       1.309   3.475  19.388  0.00  0.00    +0.000 A 
ATOM     19 CL   UNL     1       0.439   3.646  17.901  0.00  0.00    +0.000 Cl
ENDBRANCH  12  13
BRANCH  11  20
ATOM     20  C   UNL     1       2.780   6.809  19.421  0.00  0.00    +0.000 C 
ATOM     21  C   UNL     1       1.951   7.810  19.074  0.00  0.00    +0.000 C 
BRANCH  21  22
ATOM     22  C   UNL     1       1.311   8.740  20.023  0.00  0.00    +0.000 A 
ATOM     23  C   UNL     1       1.183   8.449  21.390  0.00  0.00    +0.000 A 
ATOM     24  C   UNL     1       0.594   9.368  22.266  0.00  0.00    +0.000 A 
ATOM     25  C   UNL     1       0.134  10.598  21.795  0.00  0.00    +0.000 A 
ATOM     26  C   UNL     1       0.279  10.913  20.446  0.00  0.00    +0.000 A 
ATOM     27  C   UNL     1       0.867   9.993  19.578  0.00  0.00    +0.000 A 
ATOM     28  F   UNL     1       1.002  10.337  18.287  0.00  0.00    +0.000 F 
ENDBRANCH  21  22
ENDBRANCH  11  20
TORSDOF 3
ENDMDL
MODEL 4
REMARK VINA RESULT:      -7.9      3.414      7.835
REMARK  Name = 
REMARK  3 active torsions:
REMARK  status: ('A' for Active; 'I' for Inactive)
REMARK    1  A    between atoms: C_11  and  C_12
REMARK    2  A    between atoms: C_13  and  C_14
REMARK    3  A    between atoms: N_21  and  C_22
REMARK                            x       y       z     vdW  Elec       q    Type
REMARK                         _______ _______ _______ _____ _____    ______ ____
ROOT
ATOM      1  O   UNL     1       3.723   2.388  17.105  0.00  0.00    +0.000 OA
ATOM      2  C   UNL     1       3.958   3.591  17.209  0.00  0.00    +0.000 A 
ATOM      3  C   UNL     1       4.835   4.227  16.215  0.00  0.00    +0.000 A 
ATOM      4  C   UNL     1       5.560   3.460  15.293  0.00  0.00    +0.000 A 
ATOM      5  C   UNL     1       6.405   4.107  14.402  0.00  0.00    +0.000 A 
ATOM      6  F   UNL     1       7.116   3.386  13.527  0.00  0.00    +0.000 F 
ATOM      7  C   UNL     1       6.530   5.491  14.409  0.00  0.00    +0.000 A 
ATOM      8  C   UNL     1       5.793   6.244  15.325  0.00  0.00    +0.000 A 
ATOM      9  C   UNL     1       4.941   5.612  16.236  0.00  0.00    +0.000 A 
ATOM     10  N   UNL     1       4.252   6.404  17.158  0.00  0.00    +0.000 NA
ATOM     11  C   UNL     1       3.552   5.825  18.089  0.00  0.00    +0.000 A 
ATOM     12  N   UNL     1       3.416   4.441  18.186  0.00  0.00    +0.000 N 
ENDROOT
BRANCH  12  13
ATOM     13  C   UNL     1       2.699   3.815  19.256  0.00  0.00    +0.000 A 
ATOM     14  C   UNL     1       1.312   4.004  19.366  0.00  0.00    +0.000 A 
ATOM     15  C   UNL     1       0.614   3.509  20.470  0.00  0.00    +0.000 A 
ATOM     16  C   UNL     1       1.287   2.802  21.463  0.00  0.00    +0.000 A 
ATOM     17  C   UNL     1       2.657   2.565  21.344  0.00  0.00    +0.000 A 
ATOM     18  C   UNL     1       3.365   3.065  20.247  0.00  0.00    +0.000 A 
ATOM     19 CL   UNL     1       5.082   2.844  20.253  0.00  0.00    +0.000 Cl
ENDBRANCH  12  13
BRANCH  11  20
ATOM     20  C   UNL     1       2.946   6.688  19.156  0.00  0.00    +0.000 C 
ATOM     21  C   UNL     1       2.091   7.675  18.834  0.00  0.00    +0.000 C 
BRANCH  21  22
ATOM     22  C   UNL     1       1.486   8.613  19.797  0.00  0.00    +0.000 A 
ATOM     23  C   UNL     1       1.179   9.940  19.462  0.00  0.00    +0.000 A 
ATOM     24  C   UNL     1       0.579  10.795  20.395  0.00  0.00    +0.000 A 
ATOM     25  C   UNL     1       0.265  10.335  21.673  0.00  0.00    +0.000 A 
ATOM     26  C   UNL     1       0.538   9.013  22.012  0.00  0.00    +0.000 A 
ATOM     27  C   UNL     1       1.135   8.165  21.079  0.00  0.00    +0.000 A 
ATOM     28  F   UNL     1       1.371   6.894  21.437  0.00  0.00    +0.000 F 
ENDBRANCH  21  22
ENDBRANCH  11  20
TORSDOF 3
ENDMDL
MODEL 5
REMARK VINA RESULT:      -7.8      0.869      1.256
REMARK  Name = 
REMARK  3 active torsions:
REMARK  status: ('A' for Active; 'I' for Inactive)
REMARK    1  A    between atoms: C_11  and  C_12
REMARK    2  A    between atoms: C_13  and  C_14
REMARK    3  A    between atoms: N_21  and  C_22
REMARK                            x       y       z     vdW  Elec       q    Type
REMARK                         _______ _______ _______ _____ _____    ______ ____
ROOT
ATOM      1  O   UNL     1       4.112   5.842  20.240  0.00  0.00    +0.000 OA
ATOM      2  C   UNL     1       4.060   4.920  19.428  0.00  0.00    +0.000 A 
ATOM      3  C   UNL     1       3.040   3.876  19.610  0.00  0.00    +0.000 A 
ATOM      4  C   UNL     1       2.279   3.804  20.784  0.00  0.00    +0.000 A 
ATOM      5  C   UNL     1       1.359   2.775  20.923  0.00  0.00    +0.000 A 
ATOM      6  F   UNL     1       0.637   2.684  22.047  0.00  0.00    +0.000 F 
ATOM      7  C   UNL     1       1.179   1.833  19.917  0.00  0.00    +0.000 A 
ATOM      8  C   UNL     1       1.935   1.923  18.748  0.00  0.00    +0.000 A 
ATOM      9  C   UNL     1       2.874   2.948  18.589  0.00  0.00    +0.000 A 
ATOM     10  N   UNL     1       3.633   2.976  17.417  0.00  0.00    +0.000 NA
ATOM     11  C   UNL     1       4.593   3.848  17.307  0.00  0.00    +0.000 A 
ATOM     12  N   UNL     1       4.874   4.794  18.292  0.00  0.00    +0.000 N 
ENDROOT
BRANCH  12  13
ATOM     13  C   UNL     1       5.977   5.702  18.187  0.00  0.00    +0.000 A 
ATOM     14  C   UNL     1       7.146   5.462  18.928  0.00  0.00    +0.000 A 
ATOM     15  C   UNL     1       8.182   6.399  18.941  0.00  0.00    +0.000 A 
ATOM     16  C   UNL     1       8.074   7.571  18.196  0.00  0.00    +0.000 A 
ATOM     17  C   UNL     1       6.940   7.800  17.417  0.00  0.00    +0.000 A 
ATOM     18  C   UNL     1       5.894   6.873  17.407  0.00  0.00    +0.000 A 
ATOM     19 CL   UNL     1       4.468   7.307  16.525  0.00  0.00    +0.000 Cl
ENDBRANCH  12  13
BRANCH  11  20
ATOM     20  C   UNL     1       5.490   3.762  16.108  0.00  0.00    +0.000 C 
ATOM     21  C   UNL     1       5.175   4.404  14.970  0.00  0.00    +0.000 C 
BRANCH  21  22
ATOM     22  C   UNL     1       5.956   4.339  13.722  0.00  0.00    +0.000 A 
ATOM     23  C   UNL     1       7.216   4.942  13.590  0.00  0.00    +0.000 A 
ATOM     24  C   UNL     1       7.942   4.835  12.398  0.00  0.00    +0.000 A 
ATOM     25  C   UNL     1       7.428   4.114  11.321  0.00  0.00    +0.000 A 
ATOM     26  C   UNL     1       6.191   3.485  11.445  0.00  0.00    +0.000 A 
ATOM     27  C   UNL     1       5.473   3.594  12.636  0.00  0.00    +0.000 A 
ATOM     28  F   UNL     1       4.291   2.964  12.723  0.00  0.00    +0.000 F 
ENDBRANCH  21  22
ENDBRANCH  11  20
TORSDOF 3
ENDMDL
MODEL 6
REMARK VINA RESULT:      -7.6      3.421      7.769
REMARK  Name = 
REMARK  3 active torsions:
REMARK  status: ('A' for Active; 'I' for Inactive)
REMARK    1  A    between atoms: C_11  and  C_12
REMARK    2  A    between atoms: C_13  and  C_14
REMARK    3  A    between atoms: N_21  and  C_22
REMARK                            x       y       z     vdW  Elec       q    Type
REMARK                         _______ _______ _______ _____ _____    ______ ____
ROOT
ATOM      1  O   UNL     1       3.748   2.475  17.237  0.00  0.00    +0.000 OA
ATOM      2  C   UNL     1       3.996   3.678  17.301  0.00  0.00    +0.000 A 
ATOM      3  C   UNL     1       4.881   4.271  16.287  0.00  0.00    +0.000 A 
ATOM      4  C   UNL     1       5.599   3.466  15.392  0.00  0.00    +0.000 A 
ATOM      5  C   UNL     1       6.451   4.073  14.482  0.00  0.00    +0.000 A 
ATOM      6  F   UNL     1       7.157   3.316  13.632  0.00  0.00    +0.000 F 
ATOM      7  C   UNL     1       6.591   5.456  14.442  0.00  0.00    +0.000 A 
ATOM      8  C   UNL     1       5.861   6.246  15.331  0.00  0.00    +0.000 A 
ATOM      9  C   UNL     1       5.001   5.655  16.262  0.00  0.00    +0.000 A 
ATOM     10  N   UNL     1       4.319   6.484  17.155  0.00  0.00    +0.000 NA
ATOM     11  C   UNL     1       3.612   5.944  18.104  0.00  0.00    +0.000 A 
ATOM     12  N   UNL     1       3.462   4.565  18.248  0.00  0.00    +0.000 N 
ENDROOT
BRANCH  12  13
ATOM     13  C   UNL     1       2.737   3.983  19.337  0.00  0.00    +0.000 A 
ATOM     14  C   UNL     1       3.401   3.708  20.544  0.00  0.00    +0.000 A 
ATOM     15  C   UNL     1       2.747   3.026  21.573  0.00  0.00    +0.000 A 
ATOM     16  C   UNL     1       1.420   2.633  21.419  0.00  0.00    +0.000 A 
ATOM     17  C   UNL     1       0.733   2.943  20.245  0.00  0.00    +0.000 A 
ATOM     18  C   UNL     1       1.382   3.616  19.206  0.00  0.00    +0.000 A 
ATOM     19 CL   UNL     1       0.496   3.833  17.734  0.00  0.00    +0.000 Cl
ENDBRANCH  12  13
BRANCH  11  20
ATOM     20  C   UNL     1       3.014   6.849  19.141  0.00  0.00    +0.000 C 
ATOM     21  C   UNL     1       2.039   7.714  18.812  0.00  0.00    +0.000 C 
BRANCH  21  22
ATOM     22  C   UNL     1       1.425   8.684  19.739  0.00  0.00    +0.000 A 
ATOM     23  C   UNL     1       1.111   9.996  19.354  0.00  0.00    +0.000 A 
ATOM     24  C   UNL     1       0.503  10.880  20.253  0.00  0.00    +0.000 A 
ATOM     25  C   UNL     1       0.188  10.465  21.547  0.00  0.00    +0.000 A 
ATOM     26  C   UNL     1       0.468   9.158  21.935  0.00  0.00    +0.000 A 
ATOM     27  C   UNL     1       1.073   8.281  21.035  0.00  0.00    +0.000 A 
ATOM     28  F   UNL     1       1.317   7.025  21.441  0.00  0.00    +0.000 F 
ENDBRANCH  21  22
ENDBRANCH  11  20
TORSDOF 3
ENDMDL
MODEL 7
REMARK VINA RESULT:      -7.5      7.583     10.321
REMARK  Name = 
REMARK  3 active torsions:
REMARK  status: ('A' for Active; 'I' for Inactive)
REMARK    1  A    between atoms: C_11  and  C_12
REMARK    2  A    between atoms: C_13  and  C_14
REMARK    3  A    between atoms: N_21  and  C_22
REMARK                            x       y       z     vdW  Elec       q    Type
REMARK                         _______ _______ _______ _____ _____    ______ ____
ROOT
ATOM      1  O   UNL     1       2.125   9.612  17.503  0.00  0.00    +0.000 OA
ATOM      2  C   UNL     1       1.741   9.258  18.617  0.00  0.00    +0.000 A 
ATOM      3  C   UNL     1       1.937   7.856  19.017  0.00  0.00    +0.000 A 
ATOM      4  C   UNL     1       2.355   6.890  18.092  0.00  0.00    +0.000 A 
ATOM      5  C   UNL     1       2.485   5.574  18.511  0.00  0.00    +0.000 A 
ATOM      6  F   UNL     1       2.867   4.638  17.634  0.00  0.00    +0.000 F 
ATOM      7  C   UNL     1       2.218   5.210  19.826  0.00  0.00    +0.000 A 
ATOM      8  C   UNL     1       1.814   6.185  20.740  0.00  0.00    +0.000 A 
ATOM      9  C   UNL     1       1.669   7.516  20.338  0.00  0.00    +0.000 A 
ATOM     10  N   UNL     1       1.227   8.449  21.279  0.00  0.00    +0.000 NA
ATOM     11  C   UNL     1       0.971   9.664  20.890  0.00  0.00    +0.000 A 
ATOM     12  N   UNL     1       1.161  10.098  19.579  0.00  0.00    +0.000 N 
ENDROOT
BRANCH  12  13
ATOM     13  C   UNL     1       0.809  11.419  19.151  0.00  0.00    +0.000 A 
ATOM     14  C   UNL     1       1.681  12.488  19.414  0.00  0.00    +0.000 A 
ATOM     15  C   UNL     1       1.302  13.800  19.120  0.00  0.00    +0.000 A 
ATOM     16  C   UNL     1       0.061  14.056  18.540  0.00  0.00    +0.000 A 
ATOM     17  C   UNL     1      -0.795  13.000  18.229  0.00  0.00    +0.000 A 
ATOM     18  C   UNL     1      -0.428  11.685  18.529  0.00  0.00    +0.000 A 
ATOM     19 CL   UNL     1      -1.609  10.453  18.238  0.00  0.00    +0.000 Cl
ENDBRANCH  12  13
BRANCH  11  20
ATOM     20  C   UNL     1       0.354  10.606  21.882  0.00  0.00    +0.000 C 
ATOM     21  C   UNL     1      -0.864  11.130  21.662  0.00  0.00    +0.000 C 
BRANCH  21  22
ATOM     22  C   UNL     1      -1.534  12.105  22.542  0.00  0.00    +0.000 A 
ATOM     23  C   UNL     1      -2.734  11.816  23.209  0.00  0.00    +0.000 A 
ATOM     24  C   UNL     1      -3.326  12.758  24.060  0.00  0.00    +0.000 A 
ATOM     25  C   UNL     1      -2.724  13.998  24.267  0.00  0.00    +0.000 A 
ATOM     26  C   UNL     1      -1.519  14.290  23.635  0.00  0.00    +0.000 A 
ATOM     27  C   UNL     1      -0.932  13.348  22.789  0.00  0.00    +0.000 A 
ATOM     28  F   UNL     1       0.236  13.659  22.207  0.00  0.00    +0.000 F 
ENDBRANCH  21  22
ENDBRANCH  11  20
TORSDOF 3
ENDMDL
MODEL 8
REMARK VINA RESULT:      -7.4      1.025      1.370
REMARK  Name = 
REMARK  3 active torsions:
REMARK  status: ('A' for Active; 'I' for Inactive)
REMARK    1  A    between atoms: C_11  and  C_12
REMARK    2  A    between atoms: C_13  and  C_14
REMARK    3  A    between atoms: N_21  and  C_22
REMARK                            x       y       z     vdW  Elec       q    Type
REMARK                         _______ _______ _______ _____ _____    ______ ____
ROOT
ATOM      1  O   UNL     1       3.810   6.153  20.107  0.00  0.00    +0.000 OA
ATOM      2  C   UNL     1       3.891   5.149  19.403  0.00  0.00    +0.000 A 
ATOM      3  C   UNL     1       3.011   4.007  19.697  0.00  0.00    +0.000 A 
ATOM      4  C   UNL     1       2.247   3.966  20.871  0.00  0.00    +0.000 A 
ATOM      5  C   UNL     1       1.465   2.848  21.121  0.00  0.00    +0.000 A 
ATOM      6  F   UNL     1       0.743   2.787  22.247  0.00  0.00    +0.000 F 
ATOM      7  C   UNL     1       1.425   1.785  20.225  0.00  0.00    +0.000 A 
ATOM      8  C   UNL     1       2.182   1.845  19.054  0.00  0.00    +0.000 A 
ATOM      9  C   UNL     1       2.983   2.959  18.785  0.00  0.00    +0.000 A 
ATOM     10  N   UNL     1       3.751   2.957  17.618  0.00  0.00    +0.000 NA
ATOM     11  C   UNL     1       4.592   3.930  17.415  0.00  0.00    +0.000 A 
ATOM     12  N   UNL     1       4.733   5.006  18.289  0.00  0.00    +0.000 N 
ENDROOT
BRANCH  12  13
ATOM     13  C   UNL     1       5.711   6.033  18.087  0.00  0.00    +0.000 A 
ATOM     14  C   UNL     1       5.448   7.074  17.182  0.00  0.00    +0.000 A 
ATOM     15  C   UNL     1       6.435   8.013  16.874  0.00  0.00    +0.000 A 
ATOM     16  C   UNL     1       7.685   7.939  17.485  0.00  0.00    +0.000 A 
ATOM     17  C   UNL     1       7.945   6.939  18.423  0.00  0.00    +0.000 A 
ATOM     18  C   UNL     1       6.966   5.989  18.728  0.00  0.00    +0.000 A 
ATOM     19 CL   UNL     1       7.423   4.705  19.795  0.00  0.00    +0.000 Cl
ENDBRANCH  12  13
BRANCH  11  20
ATOM     20  C   UNL     1       5.513   3.830  16.235  0.00  0.00    +0.000 C 
ATOM     21  C   UNL     1       5.106   4.224  15.015  0.00  0.00    +0.000 C 
BRANCH  21  22
ATOM     22  C   UNL     1       5.910   4.116  13.784  0.00  0.00    +0.000 A 
ATOM     23  C   UNL     1       5.524   3.310  12.702  0.00  0.00    +0.000 A 
ATOM     24  C   UNL     1       6.298   3.253  11.537  0.00  0.00    +0.000 A 
ATOM     25  C   UNL     1       7.465   4.009  11.428  0.00  0.00    +0.000 A 
ATOM     26  C   UNL     1       7.847   4.836  12.481  0.00  0.00    +0.000 A 
ATOM     27  C   UNL     1       7.071   4.889  13.639  0.00  0.00    +0.000 A 
ATOM     28  F   UNL     1       7.464   5.707  14.628  0.00  0.00    +0.000 F 
ENDBRANCH  21  22
ENDBRANCH  11  20
TORSDOF 3
ENDMDL
MODEL 9
REMARK VINA RESULT:      -7.2      3.264      4.703
REMARK  Name = 
REMARK  3 active torsions:
REMARK  status: ('A' for Active; 'I' for Inactive)
REMARK    1  A    between atoms: C_11  and  C_12
REMARK    2  A    between atoms: C_13  and  C_14
REMARK    3  A    between atoms: N_21  and  C_22
REMARK                            x       y       z     vdW  Elec       q    Type
REMARK                         _______ _______ _______ _____ _____    ______ ____
ROOT
ATOM      1  O   UNL     1       1.766   5.357  21.380  0.00  0.00    +0.000 OA
ATOM      2  C   UNL     1       1.941   6.080  20.401  0.00  0.00    +0.000 A 
ATOM      3  C   UNL     1       1.494   7.480  20.469  0.00  0.00    +0.000 A 
ATOM      4  C   UNL     1       0.699   7.935  21.529  0.00  0.00    +0.000 A 
ATOM      5  C   UNL     1       0.269   9.255  21.524  0.00  0.00    +0.000 A 
ATOM      6  F   UNL     1      -0.505   9.699  22.522  0.00  0.00    +0.000 F 
ATOM      7  C   UNL     1       0.623  10.121  20.495  0.00  0.00    +0.000 A 
ATOM      8  C   UNL     1       1.425   9.656  19.452  0.00  0.00    +0.000 A 
ATOM      9  C   UNL     1       1.864   8.328  19.433  0.00  0.00    +0.000 A 
ATOM     10  N   UNL     1       2.634   7.900  18.349  0.00  0.00    +0.000 NA
ATOM     11  C   UNL     1       2.946   6.640  18.255  0.00  0.00    +0.000 A 
ATOM     12  N   UNL     1       2.586   5.696  19.215  0.00  0.00    +0.000 N 
ENDROOT
BRANCH  12  13
ATOM     13  C   UNL     1       2.877   4.302  19.065  0.00  0.00    +0.000 A 
ATOM     14  C   UNL     1       3.971   3.744  19.746  0.00  0.00    +0.000 A 
ATOM     15  C   UNL     1       4.349   2.419  19.516  0.00  0.00    +0.000 A 
ATOM     16  C   UNL     1       3.627   1.631  18.622  0.00  0.00    +0.000 A 
ATOM     17  C   UNL     1       2.509   2.157  17.975  0.00  0.00    +0.000 A 
ATOM     18  C   UNL     1       2.130   3.485  18.192  0.00  0.00    +0.000 A 
ATOM     19 CL   UNL     1       0.818   4.093  17.240  0.00  0.00    +0.000 Cl
ENDBRANCH  12  13
BRANCH  11  20
ATOM     20  C   UNL     1       3.642   6.177  17.009  0.00  0.00    +0.000 C 
ATOM     21  C   UNL     1       4.864   5.622  17.075  0.00  0.00    +0.000 C 
BRANCH  21  22
ATOM     22  C   UNL     1       5.656   5.187  15.909  0.00  0.00    +0.000 A 
ATOM     23  C   UNL     1       5.119   4.379  14.895  0.00  0.00    +0.000 A 
ATOM     24  C   UNL     1       5.892   4.009  13.789  0.00  0.00    +0.000 A 
ATOM     25  C   UNL     1       7.210   4.449  13.670  0.00  0.00    +0.000 A 
ATOM     26  C   UNL     1       7.749   5.274  14.653  0.00  0.00    +0.000 A 
ATOM     27  C   UNL     1       6.974   5.640  15.753  0.00  0.00    +0.000 A 
ATOM     28  F   UNL     1       7.523   6.448  16.674  0.00  0.00    +0.000 F 
ENDBRANCH  21  22
ENDBRANCH  11  20
TORSDOF 3
ENDMDL
