MODEL 1
REMARK VINA RESULT:      -7.1      0.000      0.000
REMARK  Name = 
REMARK  4 active torsions:
REMARK  status: ('A' for Active; 'I' for Inactive)
REMARK    1  A    between atoms: C_1  and  N_2
REMARK    2  A    between atoms: C_3  and  C_4
REMARK    3  A    between atoms: C_8  and  O_9
REMARK    4  A    between atoms: C_10  and  O_11
REMARK                            x       y       z     vdW  Elec       q    Type
REMARK                         _______ _______ _______ _____ _____    ______ ____
ROOT
ATOM      1  C   UNL     1       3.413   5.318  19.318  0.00  0.00    +0.000 C 
ATOM      2  O   UNL     1       3.126   6.430  19.749  0.00  0.00    +0.000 OA
ATOM      3  N   UNL     1       2.929   4.175  19.934  0.00  0.00    +0.000 N 
ATOM      4  C   UNL     1       2.214   4.235  21.194  0.00  0.00    +0.000 C 
ATOM      5  C   UNL     1       1.242   3.054  21.174  0.00  0.00    +0.000 C 
ATOM      6  C   UNL     1       1.663   2.186  19.968  0.00  0.00    +0.000 C 
ATOM      7  C   UNL     1       2.952   2.813  19.429  0.00  0.00    +0.000 C 
ENDROOT
BRANCH   1  10
ATOM      8  C   UNL     1       6.502   5.486  19.240  0.00  0.00    +0.000 C 
ATOM      9  N   UNL     1       5.632   5.217  18.114  0.00  0.00    +0.000 N 
ATOM     10  C   UNL     1       4.250   5.134  18.146  0.00  0.00    +0.000 A 
ATOM     11  C   UNL     1       3.854   4.768  16.868  0.00  0.00    +0.000 A 
ATOM     12  C   UNL     1       4.996   4.715  16.030  0.00  0.00    +0.000 A 
ATOM     13  C   UNL     1       5.190   4.418  14.668  0.00  0.00    +0.000 A 
ATOM     14  C   UNL     1       6.479   4.475  14.129  0.00  0.00    +0.000 A 
ATOM     15  C   UNL     1       7.563   4.832  14.927  0.00  0.00    +0.000 A 
ATOM     16  C   UNL     1       7.394   5.122  16.283  0.00  0.00    +0.000 A 
ATOM     17  C   UNL     1       6.096   5.041  16.821  0.00  0.00    +0.000 A 
ENDBRANCH   1  10
BRANCH   5  18
ATOM     18  O   UNL     1       1.282   2.320  22.397  0.00  0.00    +0.000 OA
ATOM     19  H   UNL     1       1.015   1.400  22.221  0.00  0.00    +0.000 HD
ENDBRANCH   5  18
BRANCH   6  20
ATOM     20  O   UNL     1       0.650   2.221  18.956  0.00  0.00    +0.000 OA
ATOM     21  H   UNL     1       0.072   2.986  19.138  0.00  0.00    +0.000 HD
ENDBRANCH   6  20
TORSDOF 3
ENDMDL
MODEL 2
REMARK VINA RESULT:      -7.1      3.373      6.361
REMARK  Name = 
REMARK  4 active torsions:
REMARK  status: ('A' for Active; 'I' for Inactive)
REMARK    1  A    between atoms: C_1  and  N_2
REMARK    2  A    between atoms: C_3  and  C_4
REMARK    3  A    between atoms: C_8  and  O_9
REMARK    4  A    between atoms: C_10  and  O_11
REMARK                            x       y       z     vdW  Elec       q    Type
REMARK                         _______ _______ _______ _____ _____    ______ ____
ROOT
ATOM      1  C   UNL     1       3.755   5.257  17.743  0.00  0.00    +0.000 C 
ATOM      2  O   UNL     1       3.195   4.383  17.089  0.00  0.00    +0.000 OA
ATOM      3  N   UNL     1       5.130   5.240  17.913  0.00  0.00    +0.000 N 
ATOM      4  C   UNL     1       5.937   4.116  17.479  0.00  0.00    +0.000 C 
ATOM      5  C   UNL     1       7.303   4.703  17.120  0.00  0.00    +0.000 C 
ATOM      6  C   UNL     1       7.288   6.154  17.649  0.00  0.00    +0.000 C 
ATOM      7  C   UNL     1       5.977   6.304  18.426  0.00  0.00    +0.000 C 
ENDROOT
BRANCH   1  10
ATOM      8  C   UNL     1       2.621   5.312  20.621  0.00  0.00    +0.000 C 
ATOM      9  N   UNL     1       2.514   6.372  19.640  0.00  0.00    +0.000 N 
ATOM     10  C   UNL     1       3.026   6.354  18.354  0.00  0.00    +0.000 A 
ATOM     11  C   UNL     1       2.768   7.606  17.817  0.00  0.00    +0.000 A 
ATOM     12  C   UNL     1       2.016   8.362  18.750  0.00  0.00    +0.000 A 
ATOM     13  C   UNL     1       1.476   9.662  18.741  0.00  0.00    +0.000 A 
ATOM     14  C   UNL     1       0.747  10.111  19.847  0.00  0.00    +0.000 A 
ATOM     15  C   UNL     1       0.546   9.281  20.946  0.00  0.00    +0.000 A 
ATOM     16  C   UNL     1       1.081   7.989  20.979  0.00  0.00    +0.000 A 
ATOM     17  C   UNL     1       1.830   7.554  19.872  0.00  0.00    +0.000 A 
ENDBRANCH   1  10
BRANCH   5  18
ATOM     18  O   UNL     1       8.368   3.941  17.688  0.00  0.00    +0.000 OA
ATOM     19  H   UNL     1       8.181   3.797  18.632  0.00  0.00    +0.000 HD
ENDBRANCH   5  18
BRANCH   6  20
ATOM     20  O   UNL     1       7.309   7.079  16.556  0.00  0.00    +0.000 OA
ATOM     21  H   UNL     1       6.559   6.865  15.969  0.00  0.00    +0.000 HD
ENDBRANCH   6  20
TORSDOF 3
ENDMDL
MODEL 3
REMARK VINA RESULT:      -7.0      2.706      6.142
REMARK  Name = 
REMARK  4 active torsions:
REMARK  status: ('A' for Active; 'I' for Inactive)
REMARK    1  A    between atoms: C_1  and  N_2
REMARK    2  A    between atoms: C_3  and  C_4
REMARK    3  A    between atoms: C_8  and  O_9
REMARK    4  A    between atoms: C_10  and  O_11
REMARK                            x       y       z     vdW  Elec       q    Type
REMARK                         _______ _______ _______ _____ _____    ______ ____
ROOT
ATOM      1  C   UNL     1       4.228   6.101  17.112  0.00  0.00    +0.000 C 
ATOM      2  O   UNL     1       4.113   7.322  17.055  0.00  0.00    +0.000 OA
ATOM      3  N   UNL     1       5.062   5.429  16.233  0.00  0.00    +0.000 N 
ATOM      4  C   UNL     1       5.694   6.105  15.117  0.00  0.00    +0.000 C 
ATOM      5  C   UNL     1       7.011   5.364  14.876  0.00  0.00    +0.000 C 
ATOM      6  C   UNL     1       6.929   4.079  15.730  0.00  0.00    +0.000 C 
ATOM      7  C   UNL     1       5.513   4.050  16.310  0.00  0.00    +0.000 C 
ENDROOT
BRANCH   1  10
ATOM      8  C   UNL     1       5.451   4.863  19.670  0.00  0.00    +0.000 C 
ATOM      9  N   UNL     1       4.074   4.743  19.236  0.00  0.00    +0.000 N 
ATOM     10  C   UNL     1       3.522   5.301  18.096  0.00  0.00    +0.000 A 
ATOM     11  C   UNL     1       2.167   5.006  18.137  0.00  0.00    +0.000 A 
ATOM     12  C   UNL     1       1.909   4.187  19.265  0.00  0.00    +0.000 A 
ATOM     13  C   UNL     1       0.747   3.589  19.787  0.00  0.00    +0.000 A 
ATOM     14  C   UNL     1       0.838   2.801  20.939  0.00  0.00    +0.000 A 
ATOM     15  C   UNL     1       2.066   2.599  21.562  0.00  0.00    +0.000 A 
ATOM     16  C   UNL     1       3.231   3.191  21.064  0.00  0.00    +0.000 A 
ATOM     17  C   UNL     1       3.126   3.999  19.918  0.00  0.00    +0.000 A 
ENDBRANCH   1  10
BRANCH   5  18
ATOM     18  O   UNL     1       7.203   5.071  13.492  0.00  0.00    +0.000 OA
ATOM     19  H   UNL     1       8.095   5.362  13.231  0.00  0.00    +0.000 HD
ENDBRANCH   5  18
BRANCH   6  20
ATOM     20  O   UNL     1       7.885   4.131  16.794  0.00  0.00    +0.000 OA
ATOM     21  H   UNL     1       8.682   3.647  16.505  0.00  0.00    +0.000 HD
ENDBRANCH   6  20
TORSDOF 3
ENDMDL
MODEL 4
REMARK VINA RESULT:      -6.8      2.962      6.320
REMARK  Name = 
REMARK  4 active torsions:
REMARK  status: ('A' for Active; 'I' for Inactive)
REMARK    1  A    between atoms: C_1  and  N_2
REMARK    2  A    between atoms: C_3  and  C_4
REMARK    3  A    between atoms: C_8  and  O_9
REMARK    4  A    between atoms: C_10  and  O_11
REMARK                            x       y       z     vdW  Elec       q    Type
REMARK                         _______ _______ _______ _____ _____    ______ ____
ROOT
ATOM      1  C   UNL     1       6.329   4.427  17.622  0.00  0.00    +0.000 C 
ATOM      2  O   UNL     1       7.378   4.364  18.256  0.00  0.00    +0.000 OA
ATOM      3  N   UNL     1       6.336   4.745  16.274  0.00  0.00    +0.000 N 
ATOM      4  C   UNL     1       7.546   5.178  15.601  0.00  0.00    +0.000 C 
ATOM      5  C   UNL     1       7.400   4.714  14.150  0.00  0.00    +0.000 C 
ATOM      6  C   UNL     1       5.931   4.260  14.002  0.00  0.00    +0.000 C 
ATOM      7  C   UNL     1       5.245   4.619  15.323  0.00  0.00    +0.000 C 
ENDROOT
BRANCH   1  10
ATOM      8  C   UNL     1       4.243   6.547  18.475  0.00  0.00    +0.000 C 
ATOM      9  N   UNL     1       4.111   5.112  18.618  0.00  0.00    +0.000 N 
ATOM     10  C   UNL     1       5.039   4.160  18.232  0.00  0.00    +0.000 A 
ATOM     11  C   UNL     1       4.452   2.926  18.474  0.00  0.00    +0.000 A 
ATOM     12  C   UNL     1       3.194   3.129  19.094  0.00  0.00    +0.000 A 
ATOM     13  C   UNL     1       2.190   2.262  19.564  0.00  0.00    +0.000 A 
ATOM     14  C   UNL     1       1.043   2.796  20.160  0.00  0.00    +0.000 A 
ATOM     15  C   UNL     1       0.897   4.174  20.299  0.00  0.00    +0.000 A 
ATOM     16  C   UNL     1       1.878   5.053  19.832  0.00  0.00    +0.000 A 
ATOM     17  C   UNL     1       3.017   4.506  19.215  0.00  0.00    +0.000 A 
ENDBRANCH   1  10
BRANCH   5  18
ATOM     18  O   UNL     1       7.730   5.755  13.231  0.00  0.00    +0.000 OA
ATOM     19  H   UNL     1       8.197   5.365  12.470  0.00  0.00    +0.000 HD
ENDBRANCH   5  18
BRANCH   6  20
ATOM     20  O   UNL     1       5.869   2.844  13.796  0.00  0.00    +0.000 OA
ATOM     21  H   UNL     1       6.306   2.646  12.946  0.00  0.00    +0.000 HD
ENDBRANCH   6  20
TORSDOF 3
ENDMDL
MODEL 5
REMARK VINA RESULT:      -6.7      3.717      6.208
REMARK  Name = 
REMARK  4 active torsions:
REMARK  status: ('A' for Active; 'I' for Inactive)
REMARK    1  A    between atoms: C_1  and  N_2
REMARK    2  A    between atoms: C_3  and  C_4
REMARK    3  A    between atoms: C_8  and  O_9
REMARK    4  A    between atoms: C_10  and  O_11
REMARK                            x       y       z     vdW  Elec       q    Type
REMARK                         _______ _______ _______ _____ _____    ______ ____
ROOT
ATOM      1  C   UNL     1       2.854   6.059  19.389  0.00  0.00    +0.000 C 
ATOM      2  O   UNL     1       3.969   6.185  18.891  0.00  0.00    +0.000 OA
ATOM      3  N   UNL     1       2.256   4.812  19.473  0.00  0.00    +0.000 N 
ATOM      4  C   UNL     1       2.835   3.646  18.835  0.00  0.00    +0.000 C 
ATOM      5  C   UNL     1       2.420   2.453  19.700  0.00  0.00    +0.000 C 
ATOM      6  C   UNL     1       1.353   2.996  20.676  0.00  0.00    +0.000 C 
ATOM      7  C   UNL     1       1.081   4.438  20.241  0.00  0.00    +0.000 C 
ENDROOT
BRANCH   1  10
ATOM      8  C   UNL     1       1.999   8.588  17.825  0.00  0.00    +0.000 C 
ATOM      9  N   UNL     1       1.738   8.319  19.224  0.00  0.00    +0.000 N 
ATOM     10  C   UNL     1       2.113   7.186  19.925  0.00  0.00    +0.000 A 
ATOM     11  C   UNL     1       1.574   7.321  21.196  0.00  0.00    +0.000 A 
ATOM     12  C   UNL     1       0.942   8.585  21.297  0.00  0.00    +0.000 A 
ATOM     13  C   UNL     1       0.255   9.251  22.329  0.00  0.00    +0.000 A 
ATOM     14  C   UNL     1      -0.246  10.537  22.104  0.00  0.00    +0.000 A 
ATOM     15  C   UNL     1      -0.061  11.161  20.874  0.00  0.00    +0.000 A 
ATOM     16  C   UNL     1       0.612  10.516  19.832  0.00  0.00    +0.000 A 
ATOM     17  C   UNL     1       1.093   9.214  20.061  0.00  0.00    +0.000 A 
ENDBRANCH   1  10
BRANCH   5  18
ATOM     18  O   UNL     1       1.917   1.379  18.906  0.00  0.00    +0.000 OA
ATOM     19  H   UNL     1       1.033   1.619  18.577  0.00  0.00    +0.000 HD
ENDBRANCH   5  18
BRANCH   6  20
ATOM     20  O   UNL     1       1.858   2.983  22.016  0.00  0.00    +0.000 OA
ATOM     21  H   UNL     1       1.095   3.022  22.624  0.00  0.00    +0.000 HD
ENDBRANCH   6  20
TORSDOF 3
ENDMDL
MODEL 6
REMARK VINA RESULT:      -6.7      2.895      6.357
REMARK  Name = 
REMARK  4 active torsions:
REMARK  status: ('A' for Active; 'I' for Inactive)
REMARK    1  A    between atoms: C_1  and  N_2
REMARK    2  A    between atoms: C_3  and  C_4
REMARK    3  A    between atoms: C_8  and  O_9
REMARK    4  A    between atoms: C_10  and  O_11
REMARK                            x       y       z     vdW  Elec       q    Type
REMARK                         _______ _______ _______ _____ _____    ______ ____
ROOT
ATOM      1  C   UNL     1       6.248   4.539  17.876  0.00  0.00    +0.000 C 
ATOM      2  O   UNL     1       7.287   4.376  18.508  0.00  0.00    +0.000 OA
ATOM      3  N   UNL     1       6.284   4.844  16.525  0.00  0.00    +0.000 N 
ATOM      4  C   UNL     1       7.529   5.148  15.846  0.00  0.00    +0.000 C 
ATOM      5  C   UNL     1       7.333   4.690  14.399  0.00  0.00    +0.000 C 
ATOM      6  C   UNL     1       5.826   4.385  14.258  0.00  0.00    +0.000 C 
ATOM      7  C   UNL     1       5.183   4.821  15.577  0.00  0.00    +0.000 C 
ENDROOT
BRANCH   1  10
ATOM      8  C   UNL     1       4.417   2.048  17.752  0.00  0.00    +0.000 C 
ATOM      9  N   UNL     1       4.120   3.294  18.427  0.00  0.00    +0.000 N 
ATOM     10  C   UNL     1       4.939   4.408  18.490  0.00  0.00    +0.000 A 
ATOM     11  C   UNL     1       4.292   5.319  19.312  0.00  0.00    +0.000 A 
ATOM     12  C   UNL     1       3.029   4.790  19.680  0.00  0.00    +0.000 A 
ATOM     13  C   UNL     1       1.967   5.268  20.470  0.00  0.00    +0.000 A 
ATOM     14  C   UNL     1       0.818   4.486  20.622  0.00  0.00    +0.000 A 
ATOM     15  C   UNL     1       0.716   3.250  19.991  0.00  0.00    +0.000 A 
ATOM     16  C   UNL     1       1.762   2.753  19.209  0.00  0.00    +0.000 A 
ATOM     17  C   UNL     1       2.923   3.537  19.080  0.00  0.00    +0.000 A 
ENDBRANCH   1  10
BRANCH   5  18
ATOM     18  O   UNL     1       7.764   5.685  13.471  0.00  0.00    +0.000 OA
ATOM     19  H   UNL     1       6.980   6.107  13.076  0.00  0.00    +0.000 HD
ENDBRANCH   5  18
BRANCH   6  20
ATOM     20  O   UNL     1       5.621   2.981  14.063  0.00  0.00    +0.000 OA
ATOM     21  H   UNL     1       6.423   2.618  13.641  0.00  0.00    +0.000 HD
ENDBRANCH   6  20
TORSDOF 3
ENDMDL
MODEL 7
REMARK VINA RESULT:      -6.6      3.616      6.723
REMARK  Name = 
REMARK  4 active torsions:
REMARK  status: ('A' for Active; 'I' for Inactive)
REMARK    1  A    between atoms: C_1  and  N_2
REMARK    2  A    between atoms: C_3  and  C_4
REMARK    3  A    between atoms: C_8  and  O_9
REMARK    4  A    between atoms: C_10  and  O_11
REMARK                            x       y       z     vdW  Elec       q    Type
REMARK                         _______ _______ _______ _____ _____    ______ ____
ROOT
ATOM      1  C   UNL     1       6.461   4.437  15.921  0.00  0.00    +0.000 C 
ATOM      2  O   UNL     1       7.535   4.566  16.500  0.00  0.00    +0.000 OA
ATOM      3  N   UNL     1       6.382   4.558  14.543  0.00  0.00    +0.000 N 
ATOM      4  C   UNL     1       7.513   5.002  13.752  0.00  0.00    +0.000 C 
ATOM      5  C   UNL     1       7.357   4.324  12.390  0.00  0.00    +0.000 C 
ATOM      6  C   UNL     1       5.938   3.716  12.386  0.00  0.00    +0.000 C 
ATOM      7  C   UNL     1       5.272   4.194  13.679  0.00  0.00    +0.000 C 
ENDROOT
BRANCH   1  10
ATOM      8  C   UNL     1       4.480   6.510  17.084  0.00  0.00    +0.000 C 
ATOM      9  N   UNL     1       4.350   5.070  17.156  0.00  0.00    +0.000 N 
ATOM     10  C   UNL     1       5.230   4.139  16.631  0.00  0.00    +0.000 A 
ATOM     11  C   UNL     1       4.657   2.895  16.854  0.00  0.00    +0.000 A 
ATOM     12  C   UNL     1       3.463   3.065  17.598  0.00  0.00    +0.000 A 
ATOM     13  C   UNL     1       2.499   2.175  18.108  0.00  0.00    +0.000 A 
ATOM     14  C   UNL     1       1.417   2.678  18.837  0.00  0.00    +0.000 A 
ATOM     15  C   UNL     1       1.295   4.045  19.068  0.00  0.00    +0.000 A 
ATOM     16  C   UNL     1       2.237   4.947  18.565  0.00  0.00    +0.000 A 
ATOM     17  C   UNL     1       3.310   4.434  17.814  0.00  0.00    +0.000 A 
ENDBRANCH   1  10
BRANCH   5  18
ATOM     18  O   UNL     1       7.543   5.248  11.319  0.00  0.00    +0.000 OA
ATOM     19  H   UNL     1       8.080   5.995  11.638  0.00  0.00    +0.000 HD
ENDBRANCH   5  18
BRANCH   6  20
ATOM     20  O   UNL     1       6.012   2.286  12.382  0.00  0.00    +0.000 OA
ATOM     21  H   UNL     1       6.955   2.035  12.366  0.00  0.00    +0.000 HD
ENDBRANCH   6  20
TORSDOF 3
ENDMDL
MODEL 8
REMARK VINA RESULT:      -6.4      3.132      5.139
REMARK  Name = 
REMARK  4 active torsions:
REMARK  status: ('A' for Active; 'I' for Inactive)
REMARK    1  A    between atoms: C_1  and  N_2
REMARK    2  A    between atoms: C_3  and  C_4
REMARK    3  A    between atoms: C_8  and  O_9
REMARK    4  A    between atoms: C_10  and  O_11
REMARK                            x       y       z     vdW  Elec       q    Type
REMARK                         _______ _______ _______ _____ _____    ______ ____
ROOT
ATOM      1  C   UNL     1       4.140   5.386  19.396  0.00  0.00    +0.000 C 
ATOM      2  O   UNL     1       5.302   5.504  19.776  0.00  0.00    +0.000 OA
ATOM      3  N   UNL     1       3.649   4.153  18.999  0.00  0.00    +0.000 N 
ATOM      4  C   UNL     1       4.517   3.000  18.853  0.00  0.00    +0.000 C 
ATOM      5  C   UNL     1       3.641   1.783  19.161  0.00  0.00    +0.000 C 
ATOM      6  C   UNL     1       2.190   2.311  19.202  0.00  0.00    +0.000 C 
ATOM      7  C   UNL     1       2.265   3.778  18.768  0.00  0.00    +0.000 C 
ENDROOT
BRANCH   1  10
ATOM      8  C   UNL     1       3.692   7.290  16.999  0.00  0.00    +0.000 C 
ATOM      9  N   UNL     1       3.028   7.363  18.284  0.00  0.00    +0.000 N 
ATOM     10  C   UNL     1       3.221   6.508  19.356  0.00  0.00    +0.000 A 
ATOM     11  C   UNL     1       2.313   6.898  20.330  0.00  0.00    +0.000 A 
ATOM     12  C   UNL     1       1.624   8.052  19.882  0.00  0.00    +0.000 A 
ATOM     13  C   UNL     1       0.624   8.869  20.443  0.00  0.00    +0.000 A 
ATOM     14  C   UNL     1       0.159   9.976  19.728  0.00  0.00    +0.000 A 
ATOM     15  C   UNL     1       0.684  10.279  18.475  0.00  0.00    +0.000 A 
ATOM     16  C   UNL     1       1.671   9.477  17.895  0.00  0.00    +0.000 A 
ATOM     17  C   UNL     1       2.117   8.353  18.613  0.00  0.00    +0.000 A 
ENDBRANCH   1  10
BRANCH   5  18
ATOM     18  O   UNL     1       3.806   0.757  18.183  0.00  0.00    +0.000 OA
ATOM     19  H   UNL     1       4.448   0.105  18.516  0.00  0.00    +0.000 HD
ENDBRANCH   5  18
BRANCH   6  20
ATOM     20  O   UNL     1       1.672   2.229  20.534  0.00  0.00    +0.000 OA
ATOM     21  H   UNL     1       2.104   1.475  20.978  0.00  0.00    +0.000 HD
ENDBRANCH   6  20
TORSDOF 3
ENDMDL
MODEL 9
REMARK VINA RESULT:      -6.4      1.259      1.463
REMARK  Name = 
REMARK  4 active torsions:
REMARK  status: ('A' for Active; 'I' for Inactive)
REMARK    1  A    between atoms: C_1  and  N_2
REMARK    2  A    between atoms: C_3  and  C_4
REMARK    3  A    between atoms: C_8  and  O_9
REMARK    4  A    between atoms: C_10  and  O_11
REMARK                            x       y       z     vdW  Elec       q    Type
REMARK                         _______ _______ _______ _____ _____    ______ ____
ROOT
ATOM      1  C   UNL     1       4.005   5.322  18.124  0.00  0.00    +0.000 C 
ATOM      2  O   UNL     1       3.547   6.428  18.396  0.00  0.00    +0.000 OA
ATOM      3  N   UNL     1       3.816   4.249  18.979  0.00  0.00    +0.000 N 
ATOM      4  C   UNL     1       3.227   4.417  20.293  0.00  0.00    +0.000 C 
ATOM      5  C   UNL     1       2.509   3.101  20.596  0.00  0.00    +0.000 C 
ATOM      6  C   UNL     1       2.975   2.110  19.507  0.00  0.00    +0.000 C 
ATOM      7  C   UNL     1       4.058   2.842  18.709  0.00  0.00    +0.000 C 
ENDROOT
BRANCH   1  10
ATOM      8  C   UNL     1       6.860   6.329  17.484  0.00  0.00    +0.000 C 
ATOM      9  N   UNL     1       6.020   5.529  16.615  0.00  0.00    +0.000 N 
ATOM     10  C   UNL     1       4.746   5.072  16.901  0.00  0.00    +0.000 A 
ATOM     11  C   UNL     1       4.370   4.277  15.828  0.00  0.00    +0.000 A 
ATOM     12  C   UNL     1       5.388   4.323  14.842  0.00  0.00    +0.000 A 
ATOM     13  C   UNL     1       5.541   3.736  13.572  0.00  0.00    +0.000 A 
ATOM     14  C   UNL     1       6.690   4.006  12.823  0.00  0.00    +0.000 A 
ATOM     15  C   UNL     1       7.673   4.857  13.321  0.00  0.00    +0.000 A 
ATOM     16  C   UNL     1       7.546   5.444  14.583  0.00  0.00    +0.000 A 
ATOM     17  C   UNL     1       6.396   5.148  15.338  0.00  0.00    +0.000 A 
ENDBRANCH   1  10
BRANCH   5  18
ATOM     18  O   UNL     1       2.809   2.629  21.909  0.00  0.00    +0.000 OA
ATOM     19  H   UNL     1       3.194   3.359  22.425  0.00  0.00    +0.000 HD
ENDBRANCH   5  18
BRANCH   6  20
ATOM     20  O   UNL     1       1.884   1.775  18.643  0.00  0.00    +0.000 OA
ATOM     21  H   UNL     1       2.133   0.975  18.142  0.00  0.00    +0.000 HD
ENDBRANCH   6  20
TORSDOF 3
ENDMDL
