MODEL 1
REMARK VINA RESULT:      -7.8      0.000      0.000
REMARK  Name = 
REMARK  6 active torsions:
REMARK  status: ('A' for Active; 'I' for Inactive)
REMARK    1  A    between atoms: C_1  and  C_2
REMARK    2  A    between atoms: N_5  and  C_6
REMARK    3  A    between atoms: C_6  and  C_7
REMARK    4  A    between atoms: C_7  and  O_8
REMARK    5  A    between atoms: C_7  and  C_9
REMARK    6  A    between atoms: C_9  and  N_10
REMARK                            x       y       z     vdW  Elec       q    Type
REMARK                         _______ _______ _______ _____ _____    ______ ____
ROOT
ATOM      1  N   UNL     1       2.597   5.782  18.919  0.00  0.00    +0.000 N 
ATOM      2  C   UNL     1       2.830   6.736  17.943  0.00  0.00    +0.000 A 
ATOM      3  N   UNL     1       2.518   7.996  17.978  0.00  0.00    +0.000 NA
ATOM      4  C   UNL     1       1.830   8.383  19.137  0.00  0.00    +0.000 A 
ATOM      5  N   UNL     1       1.292   9.634  19.334  0.00  0.00    +0.000 NA
ATOM      6  C   UNL     1       0.707   9.695  20.514  0.00  0.00    +0.000 A 
ATOM      7  N   UNL     1       0.102  10.793  21.025  0.00  0.00    +0.000 N 
ATOM      8  C   UNL     1       0.043  12.058  20.329  0.00  0.00    +0.000 C 
ATOM      9  C   UNL     1      -0.050  13.055  21.482  0.00  0.00    +0.000 C 
ATOM     10  C   UNL     1      -0.886  12.321  22.524  0.00  0.00    +0.000 C 
ATOM     11  C   UNL     1      -0.557  10.844  22.316  0.00  0.00    +0.000 C 
ATOM     12  S   UNL     1       0.786   8.215  21.427  0.00  0.00    +0.000 S 
ATOM     13  C   UNL     1       1.654   7.510  20.174  0.00  0.00    +0.000 A 
ATOM     14  C   UNL     1       2.098   6.164  20.161  0.00  0.00    +0.000 A 
ATOM     15  O   UNL     1       2.066   5.406  21.129  0.00  0.00    +0.000 OA
ENDROOT
BRANCH   1  16
ATOM     16  C   UNL     1       2.877   4.361  18.698  0.00  0.00    +0.000 C 
BRANCH  16  17
ATOM     17  C   UNL     1       4.219   3.921  19.327  0.00  0.00    +0.000 C 
BRANCH  17  18
ATOM     18  O   UNL     1       4.600   2.651  18.758  0.00  0.00    +0.000 OA
ATOM     19  H   UNL     1       3.879   2.016  18.904  0.00  0.00    +0.000 HD
ENDBRANCH  17  18
BRANCH  17  20
ATOM     20  C   UNL     1       5.369   4.929  19.090  0.00  0.00    +0.000 C 
BRANCH  20  25
ATOM     21  C   UNL     1       7.788   8.771  17.823  0.00  0.00    +0.000 C 
ATOM     22  C   UNL     1       7.676   7.284  17.485  0.00  0.00    +0.000 C 
ATOM     23  C   UNL     1       6.272   6.953  16.963  0.00  0.00    +0.000 C 
ATOM     24  C   UNL     1       6.089   5.446  16.777  0.00  0.00    +0.000 C 
ATOM     25  N   UNL     1       6.334   4.668  18.005  0.00  0.00    +0.000 NA
ATOM     26  C   UNL     1       7.716   4.932  18.463  0.00  0.00    +0.000 C 
ATOM     27  C   UNL     1       8.030   6.417  18.701  0.00  0.00    +0.000 C 
ENDBRANCH  20  25
ENDBRANCH  17  20
ENDBRANCH  16  17
ENDBRANCH   1  16
TORSDOF 5
ENDMDL
MODEL 2
REMARK VINA RESULT:      -7.3      1.541      2.023
REMARK  Name = 
REMARK  6 active torsions:
REMARK  status: ('A' for Active; 'I' for Inactive)
REMARK    1  A    between atoms: C_1  and  C_2
REMARK    2  A    between atoms: N_5  and  C_6
REMARK    3  A    between atoms: C_6  and  C_7
REMARK    4  A    between atoms: C_7  and  O_8
REMARK    5  A    between atoms: C_7  and  C_9
REMARK    6  A    between atoms: C_9  and  N_10
REMARK                            x       y       z     vdW  Elec       q    Type
REMARK                         _______ _______ _______ _____ _____    ______ ____
ROOT
ATOM      1  N   UNL     1       2.486   5.127  19.408  0.00  0.00    +0.000 N 
ATOM      2  C   UNL     1       1.886   5.312  20.642  0.00  0.00    +0.000 A 
ATOM      3  N   UNL     1       1.382   6.410  21.118  0.00  0.00    +0.000 NA
ATOM      4  C   UNL     1       1.520   7.519  20.272  0.00  0.00    +0.000 A 
ATOM      5  N   UNL     1       1.175   8.804  20.620  0.00  0.00    +0.000 NA
ATOM      6  C   UNL     1       1.421   9.627  19.620  0.00  0.00    +0.000 A 
ATOM      7  N   UNL     1       1.172  10.958  19.629  0.00  0.00    +0.000 N 
ATOM      8  C   UNL     1       0.576  11.641  20.755  0.00  0.00    +0.000 C 
ATOM      9  C   UNL     1      -0.116  12.823  20.081  0.00  0.00    +0.000 C 
ATOM     10  C   UNL     1       0.820  13.182  18.932  0.00  0.00    +0.000 C 
ATOM     11  C   UNL     1       1.466  11.857  18.530  0.00  0.00    +0.000 C 
ATOM     12  S   UNL     1       2.096   8.857  18.212  0.00  0.00    +0.000 S 
ATOM     13  C   UNL     1       2.018   7.379  19.007  0.00  0.00    +0.000 A 
ATOM     14  C   UNL     1       2.465   6.149  18.462  0.00  0.00    +0.000 A 
ATOM     15  O   UNL     1       2.791   5.978  17.289  0.00  0.00    +0.000 OA
ENDROOT
BRANCH   1  16
ATOM     16  C   UNL     1       3.140   3.867  19.044  0.00  0.00    +0.000 C 
BRANCH  16  17
ATOM     17  C   UNL     1       4.534   3.717  19.695  0.00  0.00    +0.000 C 
BRANCH  17  18
ATOM     18  O   UNL     1       5.092   2.446  19.301  0.00  0.00    +0.000 OA
ATOM     19  H   UNL     1       4.822   2.258  18.386  0.00  0.00    +0.000 HD
ENDBRANCH  17  18
BRANCH  17  20
ATOM     20  C   UNL     1       5.525   4.834  19.288  0.00  0.00    +0.000 C 
BRANCH  20  25
ATOM     21  C   UNL     1       7.657   8.736  17.724  0.00  0.00    +0.000 C 
ATOM     22  C   UNL     1       7.654   7.225  17.499  0.00  0.00    +0.000 C 
ATOM     23  C   UNL     1       6.277   6.754  17.011  0.00  0.00    +0.000 C 
ATOM     24  C   UNL     1       6.205   5.228  16.939  0.00  0.00    +0.000 C 
ATOM     25  N   UNL     1       6.506   4.564  18.220  0.00  0.00    +0.000 NA
ATOM     26  C   UNL     1       7.865   4.961  18.649  0.00  0.00    +0.000 C 
ATOM     27  C   UNL     1       8.071   6.479  18.774  0.00  0.00    +0.000 C 
ENDBRANCH  20  25
ENDBRANCH  17  20
ENDBRANCH  16  17
ENDBRANCH   1  16
TORSDOF 5
ENDMDL
MODEL 3
REMARK VINA RESULT:      -7.3      1.245      1.444
REMARK  Name = 
REMARK  6 active torsions:
REMARK  status: ('A' for Active; 'I' for Inactive)
REMARK    1  A    between atoms: C_1  and  C_2
REMARK    2  A    between atoms: N_5  and  C_6
REMARK    3  A    between atoms: C_6  and  C_7
REMARK    4  A    between atoms: C_7  and  O_8
REMARK    5  A    between atoms: C_7  and  C_9
REMARK    6  A    between atoms: C_9  and  N_10
REMARK                            x       y       z     vdW  Elec       q    Type
REMARK                         _______ _______ _______ _____ _____    ______ ____
ROOT
ATOM      1  N   UNL     1       2.197   6.886  18.643  0.00  0.00    +0.000 N 
ATOM      2  C   UNL     1       2.395   7.965  17.798  0.00  0.00    +0.000 A 
ATOM      3  N   UNL     1       2.072   9.204  18.010  0.00  0.00    +0.000 NA
ATOM      4  C   UNL     1       1.411   9.424  19.227  0.00  0.00    +0.000 A 
ATOM      5  N   UNL     1       0.867  10.630  19.603  0.00  0.00    +0.000 NA
ATOM      6  C   UNL     1       0.312  10.525  20.795  0.00  0.00    +0.000 A 
ATOM      7  N   UNL     1      -0.291  11.537  21.463  0.00  0.00    +0.000 N 
ATOM      8  C   UNL     1      -0.380  12.883  20.944  0.00  0.00    +0.000 C 
ATOM      9  C   UNL     1      -0.452  13.714  22.223  0.00  0.00    +0.000 C 
ATOM     10  C   UNL     1      -1.253  12.837  23.178  0.00  0.00    +0.000 C 
ATOM     11  C   UNL     1      -0.915  11.406  22.765  0.00  0.00    +0.000 C 
ATOM     12  S   UNL     1       0.429   8.937  21.499  0.00  0.00    +0.000 S 
ATOM     13  C   UNL     1       1.270   8.418  20.141  0.00  0.00    +0.000 A 
ATOM     14  C   UNL     1       1.727   7.092  19.937  0.00  0.00    +0.000 A 
ATOM     15  O   UNL     1       1.729   6.210  20.794  0.00  0.00    +0.000 OA
ENDROOT
BRANCH   1  16
ATOM     16  C   UNL     1       2.485   5.511  18.226  0.00  0.00    +0.000 C 
BRANCH  16  17
ATOM     17  C   UNL     1       3.992   5.177  18.302  0.00  0.00    +0.000 C 
BRANCH  17  18
ATOM     18  O   UNL     1       4.267   4.573  19.583  0.00  0.00    +0.000 OA
ATOM     19  H   UNL     1       4.429   3.623  19.450  0.00  0.00    +0.000 HD
ENDBRANCH  17  18
BRANCH  17  20
ATOM     20  C   UNL     1       4.463   4.206  17.192  0.00  0.00    +0.000 C 
BRANCH  20  25
ATOM     21  C   UNL     1       8.037   6.972  18.531  0.00  0.00    +0.000 C 
ATOM     22  C   UNL     1       7.393   6.410  17.264  0.00  0.00    +0.000 C 
ATOM     23  C   UNL     1       5.944   6.897  17.133  0.00  0.00    +0.000 C 
ATOM     24  C   UNL     1       5.232   6.215  15.964  0.00  0.00    +0.000 C 
ATOM     25  N   UNL     1       5.232   4.744  16.052  0.00  0.00    +0.000 NA
ATOM     26  C   UNL     1       6.634   4.274  16.102  0.00  0.00    +0.000 C 
ATOM     27  C   UNL     1       7.463   4.877  17.247  0.00  0.00    +0.000 C 
ENDBRANCH  20  25
ENDBRANCH  17  20
ENDBRANCH  16  17
ENDBRANCH   1  16
TORSDOF 5
ENDMDL
MODEL 4
REMARK VINA RESULT:      -7.3      5.020      7.287
REMARK  Name = 
REMARK  6 active torsions:
REMARK  status: ('A' for Active; 'I' for Inactive)
REMARK    1  A    between atoms: C_1  and  C_2
REMARK    2  A    between atoms: N_5  and  C_6
REMARK    3  A    between atoms: C_6  and  C_7
REMARK    4  A    between atoms: C_7  and  O_8
REMARK    5  A    between atoms: C_7  and  C_9
REMARK    6  A    between atoms: C_9  and  N_10
REMARK                            x       y       z     vdW  Elec       q    Type
REMARK                         _______ _______ _______ _____ _____    ______ ____
ROOT
ATOM      1  N   UNL     1       7.449   7.158  17.834  0.00  0.00    +0.000 N 
ATOM      2  C   UNL     1       7.884   6.321  18.848  0.00  0.00    +0.000 A 
ATOM      3  N   UNL     1       7.222   5.359  19.416  0.00  0.00    +0.000 NA
ATOM      4  C   UNL     1       5.909   5.212  18.948  0.00  0.00    +0.000 A 
ATOM      5  N   UNL     1       4.988   4.346  19.490  0.00  0.00    +0.000 NA
ATOM      6  C   UNL     1       3.844   4.435  18.841  0.00  0.00    +0.000 A 
ATOM      7  N   UNL     1       2.740   3.699  19.108  0.00  0.00    +0.000 N 
ATOM      8  C   UNL     1       2.693   2.694  20.147  0.00  0.00    +0.000 C 
ATOM      9  C   UNL     1       1.628   1.736  19.617  0.00  0.00    +0.000 C 
ATOM     10  C   UNL     1       0.635   2.655  18.915  0.00  0.00    +0.000 C 
ATOM     11  C   UNL     1       1.480   3.819  18.401  0.00  0.00    +0.000 C 
ATOM     12  S   UNL     1       3.849   5.594  17.543  0.00  0.00    +0.000 S 
ATOM     13  C   UNL     1       5.455   5.945  17.888  0.00  0.00    +0.000 A 
ATOM     14  C   UNL     1       6.229   6.919  17.208  0.00  0.00    +0.000 A 
ATOM     15  O   UNL     1       5.887   7.492  16.175  0.00  0.00    +0.000 OA
ENDROOT
BRANCH   1  16
ATOM     16  C   UNL     1       8.247   8.298  17.373  0.00  0.00    +0.000 C 
BRANCH  16  17
ATOM     17  C   UNL     1       8.324   9.427  18.426  0.00  0.00    +0.000 C 
BRANCH  17  18
ATOM     18  O   UNL     1       9.090   8.955  19.553  0.00  0.00    +0.000 OA
ATOM     19  H   UNL     1       9.547   9.713  19.957  0.00  0.00    +0.000 HD
ENDBRANCH  17  18
BRANCH  17  20
ATOM     20  C   UNL     1       8.984  10.721  17.892  0.00  0.00    +0.000 C 
BRANCH  20  25
ATOM     21  C   UNL     1       9.150  15.432  17.886  0.00  0.00    +0.000 C 
ATOM     22  C   UNL     1       9.935  14.226  18.401  0.00  0.00    +0.000 C 
ATOM     23  C   UNL     1      10.418  13.357  17.232  0.00  0.00    +0.000 C 
ATOM     24  C   UNL     1      11.061  12.062  17.731  0.00  0.00    +0.000 C 
ATOM     25  N   UNL     1      10.172  11.255  18.586  0.00  0.00    +0.000 NA
ATOM     26  C   UNL     1       9.769  12.073  19.752  0.00  0.00    +0.000 C 
ATOM     27  C   UNL     1       9.095  13.404  19.388  0.00  0.00    +0.000 C 
ENDBRANCH  20  25
ENDBRANCH  17  20
ENDBRANCH  16  17
ENDBRANCH   1  16
TORSDOF 5
ENDMDL
MODEL 5
REMARK VINA RESULT:      -7.3      2.458      4.123
REMARK  Name = 
REMARK  6 active torsions:
REMARK  status: ('A' for Active; 'I' for Inactive)
REMARK    1  A    between atoms: C_1  and  C_2
REMARK    2  A    between atoms: N_5  and  C_6
REMARK    3  A    between atoms: C_6  and  C_7
REMARK    4  A    between atoms: C_7  and  O_8
REMARK    5  A    between atoms: C_7  and  C_9
REMARK    6  A    between atoms: C_9  and  N_10
REMARK                            x       y       z     vdW  Elec       q    Type
REMARK                         _______ _______ _______ _____ _____    ______ ____
ROOT
ATOM      1  N   UNL     1       2.917   7.183  18.575  0.00  0.00    +0.000 N 
ATOM      2  C   UNL     1       2.567   6.469  19.709  0.00  0.00    +0.000 A 
ATOM      3  N   UNL     1       1.798   6.855  20.680  0.00  0.00    +0.000 NA
ATOM      4  C   UNL     1       1.322   8.167  20.547  0.00  0.00    +0.000 A 
ATOM      5  N   UNL     1       0.598   8.828  21.512  0.00  0.00    +0.000 NA
ATOM      6  C   UNL     1       0.297  10.044  21.100  0.00  0.00    +0.000 A 
ATOM      7  N   UNL     1      -0.430  10.945  21.803  0.00  0.00    +0.000 N 
ATOM      8  C   UNL     1      -0.988  10.664  23.107  0.00  0.00    +0.000 C 
ATOM      9  C   UNL     1      -2.202  11.589  23.141  0.00  0.00    +0.000 C 
ATOM     10  C   UNL     1      -1.738  12.821  22.374  0.00  0.00    +0.000 C 
ATOM     11  C   UNL     1      -0.739  12.287  21.349  0.00  0.00    +0.000 C 
ATOM     12  S   UNL     1       0.898  10.429  19.513  0.00  0.00    +0.000 S 
ATOM     13  C   UNL     1       1.557   8.887  19.409  0.00  0.00    +0.000 A 
ATOM     14  C   UNL     1       2.310   8.407  18.309  0.00  0.00    +0.000 A 
ATOM     15  O   UNL     1       2.421   8.984  17.228  0.00  0.00    +0.000 OA
ENDROOT
BRANCH   1  16
ATOM     16  C   UNL     1       3.906   6.682  17.616  0.00  0.00    +0.000 C 
BRANCH  16  17
ATOM     17  C   UNL     1       3.742   5.171  17.336  0.00  0.00    +0.000 C 
BRANCH  17  18
ATOM     18  O   UNL     1       4.433   4.852  16.110  0.00  0.00    +0.000 OA
ATOM     19  H   UNL     1       5.219   5.421  16.039  0.00  0.00    +0.000 HD
ENDBRANCH  17  18
BRANCH  17  20
ATOM     20  C   UNL     1       4.304   4.272  18.463  0.00  0.00    +0.000 C 
BRANCH  20  25
ATOM     21  C   UNL     1       1.151   2.898  21.687  0.00  0.00    +0.000 C 
ATOM     22  C   UNL     1       2.007   2.326  20.557  0.00  0.00    +0.000 C 
ATOM     23  C   UNL     1       3.499   2.523  20.857  0.00  0.00    +0.000 C 
ATOM     24  C   UNL     1       4.365   2.108  19.666  0.00  0.00    +0.000 C 
ATOM     25  N   UNL     1       4.034   2.822  18.420  0.00  0.00    +0.000 NA
ATOM     26  C   UNL     1       2.613   2.567  18.095  0.00  0.00    +0.000 C 
ATOM     27  C   UNL     1       1.629   2.954  19.209  0.00  0.00    +0.000 C 
ENDBRANCH  20  25
ENDBRANCH  17  20
ENDBRANCH  16  17
ENDBRANCH   1  16
TORSDOF 5
ENDMDL
MODEL 6
REMARK VINA RESULT:      -7.2      1.931      2.689
REMARK  Name = 
REMARK  6 active torsions:
REMARK  status: ('A' for Active; 'I' for Inactive)
REMARK    1  A    between atoms: C_1  and  C_2
REMARK    2  A    between atoms: N_5  and  C_6
REMARK    3  A    between atoms: C_6  and  C_7
REMARK    4  A    between atoms: C_7  and  O_8
REMARK    5  A    between atoms: C_7  and  C_9
REMARK    6  A    between atoms: C_9  and  N_10
REMARK                            x       y       z     vdW  Elec       q    Type
REMARK                         _______ _______ _______ _____ _____    ______ ____
ROOT
ATOM      1  N   UNL     1       2.311   7.811  18.913  0.00  0.00    +0.000 N 
ATOM      2  C   UNL     1       2.052   7.226  20.141  0.00  0.00    +0.000 A 
ATOM      3  N   UNL     1       1.294   7.683  21.090  0.00  0.00    +0.000 NA
ATOM      4  C   UNL     1       0.725   8.935  20.816  0.00  0.00    +0.000 A 
ATOM      5  N   UNL     1      -0.008   9.665  21.722  0.00  0.00    +0.000 NA
ATOM      6  C   UNL     1      -0.407  10.797  21.176  0.00  0.00    +0.000 A 
ATOM      7  N   UNL     1      -1.169  11.731  21.793  0.00  0.00    +0.000 N 
ATOM      8  C   UNL     1      -1.659  11.583  23.145  0.00  0.00    +0.000 C 
ATOM      9  C   UNL     1      -2.932  12.425  23.118  0.00  0.00    +0.000 C 
ATOM     10  C   UNL     1      -2.582  13.577  22.183  0.00  0.00    +0.000 C 
ATOM     11  C   UNL     1      -1.586  12.982  21.189  0.00  0.00    +0.000 C 
ATOM     12  S   UNL     1       0.109  11.015  19.528  0.00  0.00    +0.000 S 
ATOM     13  C   UNL     1       0.868   9.517  19.588  0.00  0.00    +0.000 A 
ATOM     14  C   UNL     1       1.613   8.951  18.523  0.00  0.00    +0.000 A 
ATOM     15  O   UNL     1       1.644   9.392  17.376  0.00  0.00    +0.000 OA
ENDROOT
BRANCH   1  16
ATOM     16  C   UNL     1       3.298   7.257  17.981  0.00  0.00    +0.000 C 
BRANCH  16  17
ATOM     17  C   UNL     1       3.298   5.712  17.975  0.00  0.00    +0.000 C 
BRANCH  17  18
ATOM     18  O   UNL     1       1.951   5.251  17.744  0.00  0.00    +0.000 OA
ATOM     19  H   UNL     1       1.335   5.970  17.964  0.00  0.00    +0.000 HD
ENDBRANCH  17  18
BRANCH  17  20
ATOM     20  C   UNL     1       4.217   5.102  16.889  0.00  0.00    +0.000 C 
BRANCH  20  25
ATOM     21  C   UNL     1       8.128   7.184  18.498  0.00  0.00    +0.000 C 
ATOM     22  C   UNL     1       7.547   5.790  18.262  0.00  0.00    +0.000 C 
ATOM     23  C   UNL     1       7.251   5.574  16.772  0.00  0.00    +0.000 C 
ATOM     24  C   UNL     1       6.517   4.251  16.538  0.00  0.00    +0.000 C 
ATOM     25  N   UNL     1       5.257   4.136  17.294  0.00  0.00    +0.000 NA
ATOM     26  C   UNL     1       5.558   4.271  18.736  0.00  0.00    +0.000 C 
ATOM     27  C   UNL     1       6.288   5.569  19.112  0.00  0.00    +0.000 C 
ENDBRANCH  20  25
ENDBRANCH  17  20
ENDBRANCH  16  17
ENDBRANCH   1  16
TORSDOF 5
ENDMDL
MODEL 7
REMARK VINA RESULT:      -7.2      1.758      2.445
REMARK  Name = 
REMARK  6 active torsions:
REMARK  status: ('A' for Active; 'I' for Inactive)
REMARK    1  A    between atoms: C_1  and  C_2
REMARK    2  A    between atoms: N_5  and  C_6
REMARK    3  A    between atoms: C_6  and  C_7
REMARK    4  A    between atoms: C_7  and  O_8
REMARK    5  A    between atoms: C_7  and  C_9
REMARK    6  A    between atoms: C_9  and  N_10
REMARK                            x       y       z     vdW  Elec       q    Type
REMARK                         _______ _______ _______ _____ _____    ______ ____
ROOT
ATOM      1  N   UNL     1       2.180   7.811  19.051  0.00  0.00    +0.000 N 
ATOM      2  C   UNL     1       1.853   7.362  20.319  0.00  0.00    +0.000 A 
ATOM      3  N   UNL     1       1.183   7.995  21.233  0.00  0.00    +0.000 NA
ATOM      4  C   UNL     1       0.802   9.294  20.868  0.00  0.00    +0.000 A 
ATOM      5  N   UNL     1       0.197  10.190  21.718  0.00  0.00    +0.000 NA
ATOM      6  C   UNL     1      -0.037  11.326  21.090  0.00  0.00    +0.000 A 
ATOM      7  N   UNL     1      -0.644  12.405  21.637  0.00  0.00    +0.000 N 
ATOM      8  C   UNL     1      -1.134  12.431  22.997  0.00  0.00    +0.000 C 
ATOM      9  C   UNL     1      -2.268  13.449  22.909  0.00  0.00    +0.000 C 
ATOM     10  C   UNL     1      -1.762  14.465  21.891  0.00  0.00    +0.000 C 
ATOM     11  C   UNL     1      -0.878  13.657  20.943  0.00  0.00    +0.000 C 
ATOM     12  S   UNL     1       0.486  11.343  19.430  0.00  0.00    +0.000 S 
ATOM     13  C   UNL     1       1.014   9.758  19.599  0.00  0.00    +0.000 A 
ATOM     14  C   UNL     1       1.654   9.011  18.579  0.00  0.00    +0.000 A 
ATOM     15  O   UNL     1       1.737   9.357  17.402  0.00  0.00    +0.000 OA
ENDROOT
BRANCH   1  16
ATOM     16  C   UNL     1       3.062   7.050  18.162  0.00  0.00    +0.000 C 
BRANCH  16  17
ATOM     17  C   UNL     1       3.373   5.638  18.708  0.00  0.00    +0.000 C 
BRANCH  17  18
ATOM     18  O   UNL     1       2.986   4.665  17.716  0.00  0.00    +0.000 OA
ATOM     19  H   UNL     1       3.551   4.778  16.933  0.00  0.00    +0.000 HD
ENDBRANCH  17  18
BRANCH  17  20
ATOM     20  C   UNL     1       4.869   5.425  19.046  0.00  0.00    +0.000 C 
BRANCH  20  25
ATOM     21  C   UNL     1       8.178   8.607  17.980  0.00  0.00    +0.000 C 
ATOM     22  C   UNL     1       7.728   7.200  17.589  0.00  0.00    +0.000 C 
ATOM     23  C   UNL     1       6.305   7.229  17.015  0.00  0.00    +0.000 C 
ATOM     24  C   UNL     1       5.775   5.814  16.773  0.00  0.00    +0.000 C 
ATOM     25  N   UNL     1       5.783   4.969  17.981  0.00  0.00    +0.000 NA
ATOM     26  C   UNL     1       7.170   4.882  18.487  0.00  0.00    +0.000 C 
ATOM     27  C   UNL     1       7.821   6.242  18.785  0.00  0.00    +0.000 C 
ENDBRANCH  20  25
ENDBRANCH  17  20
ENDBRANCH  16  17
ENDBRANCH   1  16
TORSDOF 5
ENDMDL
MODEL 8
REMARK VINA RESULT:      -7.2      3.670      8.591
REMARK  Name = 
REMARK  6 active torsions:
REMARK  status: ('A' for Active; 'I' for Inactive)
REMARK    1  A    between atoms: C_1  and  C_2
REMARK    2  A    between atoms: N_5  and  C_6
REMARK    3  A    between atoms: C_6  and  C_7
REMARK    4  A    between atoms: C_7  and  O_8
REMARK    5  A    between atoms: C_7  and  C_9
REMARK    6  A    between atoms: C_9  and  N_10
REMARK                            x       y       z     vdW  Elec       q    Type
REMARK                         _______ _______ _______ _____ _____    ______ ____
ROOT
ATOM      1  N   UNL     1       1.046  10.577  19.432  0.00  0.00    +0.000 N 
ATOM      2  C   UNL     1       0.782  10.071  20.694  0.00  0.00    +0.000 A 
ATOM      3  N   UNL     1       1.041   8.878  21.136  0.00  0.00    +0.000 NA
ATOM      4  C   UNL     1       1.616   8.025  20.184  0.00  0.00    +0.000 A 
ATOM      5  N   UNL     1       1.857   6.687  20.391  0.00  0.00    +0.000 NA
ATOM      6  C   UNL     1       2.399   6.152  19.314  0.00  0.00    +0.000 A 
ATOM      7  N   UNL     1       2.781   4.858  19.198  0.00  0.00    +0.000 N 
ATOM      8  C   UNL     1       2.654   3.898  20.271  0.00  0.00    +0.000 C 
ATOM      9  C   UNL     1       3.777   2.913  19.955  0.00  0.00    +0.000 C 
ATOM     10  C   UNL     1       3.807   2.879  18.431  0.00  0.00    +0.000 C 
ATOM     11  C   UNL     1       3.359   4.275  18.003  0.00  0.00    +0.000 C 
ATOM     12  S   UNL     1       2.627   7.269  17.999  0.00  0.00    +0.000 S 
ATOM     13  C   UNL     1       1.984   8.494  18.954  0.00  0.00    +0.000 A 
ATOM     14  C   UNL     1       1.791   9.830  18.524  0.00  0.00    +0.000 A 
ATOM     15  O   UNL     1       2.233  10.302  17.477  0.00  0.00    +0.000 OA
ENDROOT
BRANCH   1  16
ATOM     16  C   UNL     1       0.578  11.901  19.013  0.00  0.00    +0.000 C 
BRANCH  16  17
ATOM     17  C   UNL     1      -0.808  12.250  19.603  0.00  0.00    +0.000 C 
BRANCH  17  18
ATOM     18  O   UNL     1      -0.752  13.580  20.157  0.00  0.00    +0.000 OA
ATOM     19  H   UNL     1       0.177  13.802  20.341  0.00  0.00    +0.000 HD
ENDBRANCH  17  18
BRANCH  17  20
ATOM     20  C   UNL     1      -1.949  12.201  18.559  0.00  0.00    +0.000 C 
BRANCH  20  25
ATOM     21  C   UNL     1      -2.930  10.162  14.424  0.00  0.00    +0.000 C 
ATOM     22  C   UNL     1      -3.318  10.079  15.900  0.00  0.00    +0.000 C 
ATOM     23  C   UNL     1      -3.947  11.399  16.367  0.00  0.00    +0.000 C 
ATOM     24  C   UNL     1      -4.190  11.395  17.877  0.00  0.00    +0.000 C 
ATOM     25  N   UNL     1      -2.972  11.143  18.668  0.00  0.00    +0.000 NA
ATOM     26  C   UNL     1      -2.411   9.834  18.267  0.00  0.00    +0.000 C 
ATOM     27  C   UNL     1      -2.107   9.709  16.767  0.00  0.00    +0.000 C 
ENDBRANCH  20  25
ENDBRANCH  17  20
ENDBRANCH  16  17
ENDBRANCH   1  16
TORSDOF 5
ENDMDL
MODEL 9
REMARK VINA RESULT:      -7.2      1.759      2.655
REMARK  Name = 
REMARK  6 active torsions:
REMARK  status: ('A' for Active; 'I' for Inactive)
REMARK    1  A    between atoms: C_1  and  C_2
REMARK    2  A    between atoms: N_5  and  C_6
REMARK    3  A    between atoms: C_6  and  C_7
REMARK    4  A    between atoms: C_7  and  O_8
REMARK    5  A    between atoms: C_7  and  C_9
REMARK    6  A    between atoms: C_9  and  N_10
REMARK                            x       y       z     vdW  Elec       q    Type
REMARK                         _______ _______ _______ _____ _____    ______ ____
ROOT
ATOM      1  N   UNL     1       2.105   7.616  18.847  0.00  0.00    +0.000 N 
ATOM      2  C   UNL     1       2.434   8.437  17.782  0.00  0.00    +0.000 A 
ATOM      3  N   UNL     1       2.135   9.690  17.628  0.00  0.00    +0.000 NA
ATOM      4  C   UNL     1       1.353  10.224  18.662  0.00  0.00    +0.000 A 
ATOM      5  N   UNL     1       0.814  11.489  18.650  0.00  0.00    +0.000 NA
ATOM      6  C   UNL     1       0.128  11.701  19.756  0.00  0.00    +0.000 A 
ATOM      7  N   UNL     1      -0.507  12.856  20.066  0.00  0.00    +0.000 N 
ATOM      8  C   UNL     1      -0.490  14.021  19.211  0.00  0.00    +0.000 C 
ATOM      9  C   UNL     1      -0.672  15.158  20.215  0.00  0.00    +0.000 C 
ATOM     10  C   UNL     1      -1.604  14.564  21.265  0.00  0.00    +0.000 C 
ATOM     11  C   UNL     1      -1.276  13.073  21.277  0.00  0.00    +0.000 C 
ATOM     12  S   UNL     1       0.109  10.351  20.854  0.00  0.00    +0.000 S 
ATOM     13  C   UNL     1       1.076   9.491  19.783  0.00  0.00    +0.000 A 
ATOM     14  C   UNL     1       1.504   8.154  19.982  0.00  0.00    +0.000 A 
ATOM     15  O   UNL     1       1.379   7.526  21.031  0.00  0.00    +0.000 OA
ENDROOT
BRANCH   1  16
ATOM     16  C   UNL     1       2.388   6.178  18.836  0.00  0.00    +0.000 C 
BRANCH  16  17
ATOM     17  C   UNL     1       3.780   5.847  19.419  0.00  0.00    +0.000 C 
BRANCH  17  18
ATOM     18  O   UNL     1       3.619   4.880  20.478  0.00  0.00    +0.000 OA
ATOM     19  H   UNL     1       4.442   4.368  20.559  0.00  0.00    +0.000 HD
ENDBRANCH  17  18
BRANCH  17  20
ATOM     20  C   UNL     1       4.763   5.267  18.372  0.00  0.00    +0.000 C 
BRANCH  20  25
ATOM     21  C   UNL     1       6.315   3.942  14.124  0.00  0.00    +0.000 C 
ATOM     22  C   UNL     1       6.560   5.013  15.186  0.00  0.00    +0.000 C 
ATOM     23  C   UNL     1       7.028   4.373  16.500  0.00  0.00    +0.000 C 
ATOM     24  C   UNL     1       7.119   5.409  17.622  0.00  0.00    +0.000 C 
ATOM     25  N   UNL     1       5.853   6.123  17.867  0.00  0.00    +0.000 NA
ATOM     26  C   UNL     1       5.445   6.802  16.617  0.00  0.00    +0.000 C 
ATOM     27  C   UNL     1       5.303   5.866  15.406  0.00  0.00    +0.000 C 
ENDBRANCH  20  25
ENDBRANCH  17  20
ENDBRANCH  16  17
ENDBRANCH   1  16
TORSDOF 5
ENDMDL
