MODEL 1
REMARK VINA RESULT:      -8.7      0.000      0.000
REMARK  Name = 
REMARK  4 active torsions:
REMARK  status: ('A' for Active; 'I' for Inactive)
REMARK    1  A    between atoms: C_1  and  O_2
REMARK    2  A    between atoms: O_2  and  C_3
REMARK    3  A    between atoms: C_7  and  N_8
REMARK    4  A    between atoms: C_11  and  C_12
REMARK                            x       y       z     vdW  Elec       q    Type
REMARK                         _______ _______ _______ _____ _____    ______ ____
ROOT
ATOM      1  N   UNL     1       4.182   3.574  17.801  0.00  0.00    +0.000 N 
ATOM      2  C   UNL     1       3.389   4.221  18.735  0.00  0.00    +0.000 A 
ATOM      3  N   UNL     1       3.012   5.471  18.557  0.00  0.00    +0.000 NA
ATOM      4  C   UNL     1       2.269   6.138  19.518  0.00  0.00    +0.000 A 
ATOM      5  C   UNL     1       1.892   5.546  20.674  0.00  0.00    +0.000 A 
ATOM      6  N   UNL     1       2.234   4.228  20.875  0.00  0.00    +0.000 N 
ATOM      7  C   UNL     1       1.998   3.374  21.914  0.00  0.00    +0.000 A 
ATOM      8  C   UNL     1       2.603   2.190  21.546  0.00  0.00    +0.000 A 
ATOM      9  N   UNL     1       3.212   2.299  20.315  0.00  0.00    +0.000 NA
ATOM     10  C   UNL     1       2.959   3.539  19.946  0.00  0.00    +0.000 A 
ATOM     11  H   UNL     1       4.490   2.649  18.090  0.00  0.00    +0.000 HD
ENDROOT
BRANCH   4  12
ATOM     12  C   UNL     1       1.942   7.568  19.260  0.00  0.00    +0.000 A 
ATOM     13  C   UNL     1       2.207   8.170  18.018  0.00  0.00    +0.000 A 
ATOM     14  C   UNL     1       1.916   9.520  17.773  0.00  0.00    +0.000 A 
ATOM     15  C   UNL     1       1.360  10.289  18.803  0.00  0.00    +0.000 A 
ATOM     16  C   UNL     1       0.956  11.631  18.969  0.00  0.00    +0.000 A 
ATOM     17  N   UNL     1       0.469  11.877  20.190  0.00  0.00    +0.000 NA
ATOM     18  N   UNL     1       0.581  10.689  20.814  0.00  0.00    +0.000 N 
ATOM     19  C   UNL     1       1.107   9.694  20.032  0.00  0.00    +0.000 A 
ATOM     20  C   UNL     1       1.389   8.348  20.296  0.00  0.00    +0.000 A 
ATOM     21  H   UNL     1       0.279  10.622  21.780  0.00  0.00    +0.000 HD
ENDBRANCH   4  12
BRANCH   1  26
ATOM     22  C   UNL     1       7.032   5.776  16.792  0.00  0.00    +0.000 A 
ATOM     23  C   UNL     1       6.974   5.634  15.406  0.00  0.00    +0.000 A 
ATOM     24  C   UNL     1       6.029   4.790  14.820  0.00  0.00    +0.000 A 
ATOM     25  C   UNL     1       5.121   4.092  15.619  0.00  0.00    +0.000 A 
ATOM     26  C   UNL     1       5.140   4.247  17.008  0.00  0.00    +0.000 A 
ATOM     27  C   UNL     1       6.127   5.068  17.579  0.00  0.00    +0.000 A 
BRANCH  22  29
ATOM     28  C   UNL     1       7.589   7.984  17.474  0.00  0.00    +0.000 C 
ATOM     29  O   UNL     1       7.990   6.634  17.260  0.00  0.00    +0.000 OA
ENDBRANCH  22  29
ENDBRANCH   1  26
TORSDOF 3
ENDMDL
MODEL 2
REMARK VINA RESULT:      -8.5      0.943      1.760
REMARK  Name = 
REMARK  4 active torsions:
REMARK  status: ('A' for Active; 'I' for Inactive)
REMARK    1  A    between atoms: C_1  and  O_2
REMARK    2  A    between atoms: O_2  and  C_3
REMARK    3  A    between atoms: C_7  and  N_8
REMARK    4  A    between atoms: C_11  and  C_12
REMARK                            x       y       z     vdW  Elec       q    Type
REMARK                         _______ _______ _______ _____ _____    ______ ____
ROOT
ATOM      1  N   UNL     1       4.391   3.638  17.889  0.00  0.00    +0.000 N 
ATOM      2  C   UNL     1       3.537   4.265  18.783  0.00  0.00    +0.000 A 
ATOM      3  N   UNL     1       3.141   5.506  18.587  0.00  0.00    +0.000 NA
ATOM      4  C   UNL     1       2.335   6.154  19.510  0.00  0.00    +0.000 A 
ATOM      5  C   UNL     1       1.916   5.552  20.645  0.00  0.00    +0.000 A 
ATOM      6  N   UNL     1       2.278   4.242  20.862  0.00  0.00    +0.000 N 
ATOM      7  C   UNL     1       2.011   3.382  21.888  0.00  0.00    +0.000 A 
ATOM      8  C   UNL     1       2.661   2.212  21.550  0.00  0.00    +0.000 A 
ATOM      9  N   UNL     1       3.327   2.338  20.352  0.00  0.00    +0.000 NA
ATOM     10  C   UNL     1       3.064   3.572  19.970  0.00  0.00    +0.000 A 
ATOM     11  H   UNL     1       4.706   2.720  18.192  0.00  0.00    +0.000 HD
ENDROOT
BRANCH   4  12
ATOM     12  C   UNL     1       1.989   7.577  19.236  0.00  0.00    +0.000 A 
ATOM     13  C   UNL     1       2.263   8.175  17.994  0.00  0.00    +0.000 A 
ATOM     14  C   UNL     1       1.952   9.517  17.734  0.00  0.00    +0.000 A 
ATOM     15  C   UNL     1       1.367  10.284  18.750  0.00  0.00    +0.000 A 
ATOM     16  C   UNL     1       0.937  11.620  18.900  0.00  0.00    +0.000 A 
ATOM     17  N   UNL     1       0.427  11.866  20.111  0.00  0.00    +0.000 NA
ATOM     18  N   UNL     1       0.550  10.684  20.746  0.00  0.00    +0.000 N 
ATOM     19  C   UNL     1       1.105   9.693  19.979  0.00  0.00    +0.000 A 
ATOM     20  C   UNL     1       1.406   8.354  20.257  0.00  0.00    +0.000 A 
ATOM     21  H   UNL     1       0.234  10.619  21.707  0.00  0.00    +0.000 HD
ENDBRANCH   4  12
BRANCH   1  26
ATOM     22  C   UNL     1       6.561   4.748  15.052  0.00  0.00    +0.000 A 
ATOM     23  C   UNL     1       7.375   5.670  15.710  0.00  0.00    +0.000 A 
ATOM     24  C   UNL     1       7.178   5.947  17.065  0.00  0.00    +0.000 A 
ATOM     25  C   UNL     1       6.174   5.288  17.777  0.00  0.00    +0.000 A 
ATOM     26  C   UNL     1       5.371   4.335  17.144  0.00  0.00    +0.000 A 
ATOM     27  C   UNL     1       5.557   4.104  15.771  0.00  0.00    +0.000 A 
BRANCH  22  29
ATOM     28  C   UNL     1       6.014   3.622  13.031  0.00  0.00    +0.000 C 
ATOM     29  O   UNL     1       6.844   4.546  13.729  0.00  0.00    +0.000 OA
ENDBRANCH  22  29
ENDBRANCH   1  26
TORSDOF 3
ENDMDL
MODEL 3
REMARK VINA RESULT:      -8.4      2.480      6.626
REMARK  Name = 
REMARK  4 active torsions:
REMARK  status: ('A' for Active; 'I' for Inactive)
REMARK    1  A    between atoms: C_1  and  O_2
REMARK    2  A    between atoms: O_2  and  C_3
REMARK    3  A    between atoms: C_7  and  N_8
REMARK    4  A    between atoms: C_11  and  C_12
REMARK                            x       y       z     vdW  Elec       q    Type
REMARK                         _______ _______ _______ _____ _____    ______ ____
ROOT
ATOM      1  N   UNL     1       2.177   6.657  20.573  0.00  0.00    +0.000 N 
ATOM      2  C   UNL     1       2.775   5.526  20.040  0.00  0.00    +0.000 A 
ATOM      3  N   UNL     1       3.642   5.617  19.053  0.00  0.00    +0.000 NA
ATOM      4  C   UNL     1       4.195   4.483  18.479  0.00  0.00    +0.000 A 
ATOM      5  C   UNL     1       3.880   3.238  18.902  0.00  0.00    +0.000 A 
ATOM      6  N   UNL     1       3.007   3.107  19.958  0.00  0.00    +0.000 N 
ATOM      7  C   UNL     1       2.512   2.008  20.599  0.00  0.00    +0.000 A 
ATOM      8  C   UNL     1       1.668   2.512  21.567  0.00  0.00    +0.000 A 
ATOM      9  N   UNL     1       1.625   3.888  21.529  0.00  0.00    +0.000 NA
ATOM     10  C   UNL     1       2.451   4.203  20.551  0.00  0.00    +0.000 A 
ATOM     11  H   UNL     1       1.456   6.458  21.261  0.00  0.00    +0.000 HD
ENDROOT
BRANCH   4  12
ATOM     12  C   UNL     1       5.117   4.679  17.327  0.00  0.00    +0.000 A 
ATOM     13  C   UNL     1       6.149   5.633  17.365  0.00  0.00    +0.000 A 
ATOM     14  C   UNL     1       7.013   5.833  16.278  0.00  0.00    +0.000 A 
ATOM     15  C   UNL     1       6.827   5.070  15.118  0.00  0.00    +0.000 A 
ATOM     16  C   UNL     1       7.436   4.981  13.848  0.00  0.00    +0.000 A 
ATOM     17  N   UNL     1       6.866   4.058  13.065  0.00  0.00    +0.000 NA
ATOM     18  N   UNL     1       5.874   3.569  13.833  0.00  0.00    +0.000 N 
ATOM     19  C   UNL     1       5.801   4.135  15.080  0.00  0.00    +0.000 A 
ATOM     20  C   UNL     1       4.930   3.919  16.155  0.00  0.00    +0.000 A 
ATOM     21  H   UNL     1       5.278   2.845  13.447  0.00  0.00    +0.000 HD
ENDBRANCH   4  12
BRANCH   1  26
ATOM     22  C   UNL     1       0.861  10.010  19.566  0.00  0.00    +0.000 A 
ATOM     23  C   UNL     1       1.299  10.060  18.243  0.00  0.00    +0.000 A 
ATOM     24  C   UNL     1       2.054   9.014  17.708  0.00  0.00    +0.000 A 
ATOM     25  C   UNL     1       2.361   7.899  18.490  0.00  0.00    +0.000 A 
ATOM     26  C   UNL     1       1.902   7.814  19.808  0.00  0.00    +0.000 A 
ATOM     27  C   UNL     1       1.182   8.897  20.340  0.00  0.00    +0.000 A 
BRANCH  22  29
ATOM     28  C   UNL     1      -0.727  11.692  19.020  0.00  0.00    +0.000 C 
ATOM     29  O   UNL     1       0.123  11.083  19.987  0.00  0.00    +0.000 OA
ENDBRANCH  22  29
ENDBRANCH   1  26
TORSDOF 3
ENDMDL
MODEL 4
REMARK VINA RESULT:      -8.0      1.186      2.069
REMARK  Name = 
REMARK  4 active torsions:
REMARK  status: ('A' for Active; 'I' for Inactive)
REMARK    1  A    between atoms: C_1  and  O_2
REMARK    2  A    between atoms: O_2  and  C_3
REMARK    3  A    between atoms: C_7  and  N_8
REMARK    4  A    between atoms: C_11  and  C_12
REMARK                            x       y       z     vdW  Elec       q    Type
REMARK                         _______ _______ _______ _____ _____    ______ ____
ROOT
ATOM      1  N   UNL     1       4.445   3.966  18.381  0.00  0.00    +0.000 N 
ATOM      2  C   UNL     1       3.441   4.434  19.213  0.00  0.00    +0.000 A 
ATOM      3  N   UNL     1       3.060   5.694  19.175  0.00  0.00    +0.000 NA
ATOM      4  C   UNL     1       2.098   6.178  20.048  0.00  0.00    +0.000 A 
ATOM      5  C   UNL     1       1.504   5.388  20.971  0.00  0.00    +0.000 A 
ATOM      6  N   UNL     1       1.850   4.057  21.012  0.00  0.00    +0.000 N 
ATOM      7  C   UNL     1       1.430   3.031  21.810  0.00  0.00    +0.000 A 
ATOM      8  C   UNL     1       2.150   1.933  21.385  0.00  0.00    +0.000 A 
ATOM      9  N   UNL     1       3.006   2.261  20.358  0.00  0.00    +0.000 NA
ATOM     10  C   UNL     1       2.788   3.546  20.162  0.00  0.00    +0.000 A 
ATOM     11  H   UNL     1       4.721   3.005  18.566  0.00  0.00    +0.000 HD
ENDROOT
BRANCH   4  12
ATOM     12  C   UNL     1       1.775   7.630  19.975  0.00  0.00    +0.000 A 
ATOM     13  C   UNL     1       1.144   8.298  21.039  0.00  0.00    +0.000 A 
ATOM     14  C   UNL     1       0.824   9.661  20.972  0.00  0.00    +0.000 A 
ATOM     15  C   UNL     1       1.131  10.370  19.803  0.00  0.00    +0.000 A 
ATOM     16  C   UNL     1       0.963  11.692  19.338  0.00  0.00    +0.000 A 
ATOM     17  N   UNL     1       1.444  11.871  18.104  0.00  0.00    +0.000 NA
ATOM     18  N   UNL     1       1.904  10.650  17.769  0.00  0.00    +0.000 N 
ATOM     19  C   UNL     1       1.746   9.706  18.750  0.00  0.00    +0.000 A 
ATOM     20  C   UNL     1       2.075   8.345  18.799  0.00  0.00    +0.000 A 
ATOM     21  H   UNL     1       2.316  10.526  16.851  0.00  0.00    +0.000 HD
ENDBRANCH   4  12
BRANCH   1  26
ATOM     22  C   UNL     1       6.988   5.598  16.176  0.00  0.00    +0.000 A 
ATOM     23  C   UNL     1       7.714   6.315  17.126  0.00  0.00    +0.000 A 
ATOM     24  C   UNL     1       7.339   6.288  18.471  0.00  0.00    +0.000 A 
ATOM     25  C   UNL     1       6.242   5.526  18.879  0.00  0.00    +0.000 A 
ATOM     26  C   UNL     1       5.523   4.773  17.947  0.00  0.00    +0.000 A 
ATOM     27  C   UNL     1       5.890   4.848  16.593  0.00  0.00    +0.000 A 
BRANCH  22  29
ATOM     28  C   UNL     1       6.929   4.739  13.960  0.00  0.00    +0.000 C 
ATOM     29  O   UNL     1       7.445   5.687  14.890  0.00  0.00    +0.000 OA
ENDBRANCH  22  29
ENDBRANCH   1  26
TORSDOF 3
ENDMDL
MODEL 5
REMARK VINA RESULT:      -7.9      1.885      2.449
REMARK  Name = 
REMARK  4 active torsions:
REMARK  status: ('A' for Active; 'I' for Inactive)
REMARK    1  A    between atoms: C_1  and  O_2
REMARK    2  A    between atoms: O_2  and  C_3
REMARK    3  A    between atoms: C_7  and  N_8
REMARK    4  A    between atoms: C_11  and  C_12
REMARK                            x       y       z     vdW  Elec       q    Type
REMARK                         _______ _______ _______ _____ _____    ______ ____
ROOT
ATOM      1  N   UNL     1       5.264   4.842  17.496  0.00  0.00    +0.000 N 
ATOM      2  C   UNL     1       3.982   4.898  18.020  0.00  0.00    +0.000 A 
ATOM      3  N   UNL     1       3.476   6.034  18.456  0.00  0.00    +0.000 NA
ATOM      4  C   UNL     1       2.218   6.081  19.035  0.00  0.00    +0.000 A 
ATOM      5  C   UNL     1       1.450   4.977  19.176  0.00  0.00    +0.000 A 
ATOM      6  N   UNL     1       1.931   3.781  18.695  0.00  0.00    +0.000 N 
ATOM      7  C   UNL     1       1.400   2.523  18.686  0.00  0.00    +0.000 A 
ATOM      8  C   UNL     1       2.359   1.736  18.082  0.00  0.00    +0.000 A 
ATOM      9  N   UNL     1       3.466   2.475  17.732  0.00  0.00    +0.000 NA
ATOM     10  C   UNL     1       3.163   3.701  18.113  0.00  0.00    +0.000 A 
ATOM     11  H   UNL     1       5.582   3.901  17.283  0.00  0.00    +0.000 HD
ENDROOT
BRANCH   4  12
ATOM     12  C   UNL     1       1.753   7.396  19.557  0.00  0.00    +0.000 A 
ATOM     13  C   UNL     1       1.684   8.532  18.732  0.00  0.00    +0.000 A 
ATOM     14  C   UNL     1       1.262   9.777  19.220  0.00  0.00    +0.000 A 
ATOM     15  C   UNL     1       0.915   9.890  20.573  0.00  0.00    +0.000 A 
ATOM     16  C   UNL     1       0.480  10.922  21.431  0.00  0.00    +0.000 A 
ATOM     17  N   UNL     1       0.276  10.502  22.684  0.00  0.00    +0.000 NA
ATOM     18  N   UNL     1       0.603   9.196  22.630  0.00  0.00    +0.000 N 
ATOM     19  C   UNL     1       0.992   8.769  21.388  0.00  0.00    +0.000 A 
ATOM     20  C   UNL     1       1.410   7.517  20.918  0.00  0.00    +0.000 A 
ATOM     21  H   UNL     1       0.539   8.649  23.481  0.00  0.00    +0.000 HD
ENDBRANCH   4  12
BRANCH   1  26
ATOM     22  C   UNL     1       7.597   7.755  17.735  0.00  0.00    +0.000 A 
ATOM     23  C   UNL     1       8.440   7.313  18.753  0.00  0.00    +0.000 A 
ATOM     24  C   UNL     1       8.212   6.084  19.377  0.00  0.00    +0.000 A 
ATOM     25  C   UNL     1       7.146   5.280  18.973  0.00  0.00    +0.000 A 
ATOM     26  C   UNL     1       6.310   5.689  17.930  0.00  0.00    +0.000 A 
ATOM     27  C   UNL     1       6.530   6.948  17.346  0.00  0.00    +0.000 A 
BRANCH  22  29
ATOM     28  C   UNL     1       8.596   9.892  18.031  0.00  0.00    +0.000 C 
ATOM     29  O   UNL     1       7.915   8.968  17.187  0.00  0.00    +0.000 OA
ENDBRANCH  22  29
ENDBRANCH   1  26
TORSDOF 3
ENDMDL
MODEL 6
REMARK VINA RESULT:      -7.9      0.975      1.376
REMARK  Name = 
REMARK  4 active torsions:
REMARK  status: ('A' for Active; 'I' for Inactive)
REMARK    1  A    between atoms: C_1  and  O_2
REMARK    2  A    between atoms: O_2  and  C_3
REMARK    3  A    between atoms: C_7  and  N_8
REMARK    4  A    between atoms: C_11  and  C_12
REMARK                            x       y       z     vdW  Elec       q    Type
REMARK                         _______ _______ _______ _____ _____    ______ ____
ROOT
ATOM      1  N   UNL     1       4.020   3.896  17.917  0.00  0.00    +0.000 N 
ATOM      2  C   UNL     1       3.177   4.410  18.889  0.00  0.00    +0.000 A 
ATOM      3  N   UNL     1       2.848   5.686  18.896  0.00  0.00    +0.000 NA
ATOM      4  C   UNL     1       2.053   6.214  19.902  0.00  0.00    +0.000 A 
ATOM      5  C   UNL     1       1.576   5.454  20.913  0.00  0.00    +0.000 A 
ATOM      6  N   UNL     1       1.867   4.109  20.915  0.00  0.00    +0.000 N 
ATOM      7  C   UNL     1       1.532   3.106  21.778  0.00  0.00    +0.000 A 
ATOM      8  C   UNL     1       2.131   1.976  21.261  0.00  0.00    +0.000 A 
ATOM      9  N   UNL     1       2.833   2.263  20.111  0.00  0.00    +0.000 NA
ATOM     10  C   UNL     1       2.641   3.556  19.936  0.00  0.00    +0.000 A 
ATOM     11  H   UNL     1       4.281   2.925  18.068  0.00  0.00    +0.000 HD
ENDROOT
BRANCH   4  12
ATOM     12  C   UNL     1       1.784   7.678  19.863  0.00  0.00    +0.000 A 
ATOM     13  C   UNL     1       1.195   8.347  20.950  0.00  0.00    +0.000 A 
ATOM     14  C   UNL     1       0.926   9.722  20.916  0.00  0.00    +0.000 A 
ATOM     15  C   UNL     1       1.241  10.443  19.757  0.00  0.00    +0.000 A 
ATOM     16  C   UNL     1       1.116  11.780  19.322  0.00  0.00    +0.000 A 
ATOM     17  N   UNL     1       1.584  11.967  18.084  0.00  0.00    +0.000 NA
ATOM     18  N   UNL     1       1.992  10.737  17.717  0.00  0.00    +0.000 N 
ATOM     19  C   UNL     1       1.814   9.779  18.681  0.00  0.00    +0.000 A 
ATOM     20  C   UNL     1       2.092   8.406  18.697  0.00  0.00    +0.000 A 
ATOM     21  H   UNL     1       2.385  10.617  16.790  0.00  0.00    +0.000 HD
ENDBRANCH   4  12
BRANCH   1  26
ATOM     22  C   UNL     1       6.936   6.197  17.482  0.00  0.00    +0.000 A 
ATOM     23  C   UNL     1       7.034   6.210  16.091  0.00  0.00    +0.000 A 
ATOM     24  C   UNL     1       6.171   5.435  15.313  0.00  0.00    +0.000 A 
ATOM     25  C   UNL     1       5.189   4.653  15.924  0.00  0.00    +0.000 A 
ATOM     26  C   UNL     1       5.052   4.653  17.315  0.00  0.00    +0.000 A 
ATOM     27  C   UNL     1       5.958   5.406  18.080  0.00  0.00    +0.000 A 
BRANCH  22  29
ATOM     28  C   UNL     1       7.869   8.367  17.753  0.00  0.00    +0.000 C 
ATOM     29  O   UNL     1       7.825   6.998  18.146  0.00  0.00    +0.000 OA
ENDBRANCH  22  29
ENDBRANCH   1  26
TORSDOF 3
ENDMDL
MODEL 7
REMARK VINA RESULT:      -7.8      1.805      2.507
REMARK  Name = 
REMARK  4 active torsions:
REMARK  status: ('A' for Active; 'I' for Inactive)
REMARK    1  A    between atoms: C_1  and  O_2
REMARK    2  A    between atoms: O_2  and  C_3
REMARK    3  A    between atoms: C_7  and  N_8
REMARK    4  A    between atoms: C_11  and  C_12
REMARK                            x       y       z     vdW  Elec       q    Type
REMARK                         _______ _______ _______ _____ _____    ______ ____
ROOT
ATOM      1  N   UNL     1       5.279   4.834  17.489  0.00  0.00    +0.000 N 
ATOM      2  C   UNL     1       3.990   4.916  17.994  0.00  0.00    +0.000 A 
ATOM      3  N   UNL     1       3.497   6.065  18.411  0.00  0.00    +0.000 NA
ATOM      4  C   UNL     1       2.231   6.138  18.971  0.00  0.00    +0.000 A 
ATOM      5  C   UNL     1       1.444   5.048  19.112  0.00  0.00    +0.000 A 
ATOM      6  N   UNL     1       1.913   3.839  18.651  0.00  0.00    +0.000 N 
ATOM      7  C   UNL     1       1.361   2.590  18.647  0.00  0.00    +0.000 A 
ATOM      8  C   UNL     1       2.315   1.781  18.065  0.00  0.00    +0.000 A 
ATOM      9  N   UNL     1       3.440   2.499  17.724  0.00  0.00    +0.000 NA
ATOM     10  C   UNL     1       3.151   3.733  18.087  0.00  0.00    +0.000 A 
ATOM     11  H   UNL     1       5.585   3.885  17.290  0.00  0.00    +0.000 HD
ENDROOT
BRANCH   4  12
ATOM     12  C   UNL     1       1.781   7.466  19.472  0.00  0.00    +0.000 A 
ATOM     13  C   UNL     1       1.394   7.655  20.810  0.00  0.00    +0.000 A 
ATOM     14  C   UNL     1       0.955   8.899  21.286  0.00  0.00    +0.000 A 
ATOM     15  C   UNL     1       0.888   9.977  20.394  0.00  0.00    +0.000 A 
ATOM     16  C   UNL     1       0.497  11.332  20.460  0.00  0.00    +0.000 A 
ATOM     17  N   UNL     1       0.624  11.964  19.289  0.00  0.00    +0.000 NA
ATOM     18  N   UNL     1       1.081  11.002  18.464  0.00  0.00    +0.000 N 
ATOM     19  C   UNL     1       1.263   9.786  19.071  0.00  0.00    +0.000 A 
ATOM     20  C   UNL     1       1.705   8.552  18.578  0.00  0.00    +0.000 A 
ATOM     21  H   UNL     1       1.251  11.241  17.494  0.00  0.00    +0.000 HD
ENDBRANCH   4  12
BRANCH   1  26
ATOM     22  C   UNL     1       7.656   7.711  17.731  0.00  0.00    +0.000 A 
ATOM     23  C   UNL     1       8.476   7.266  18.767  0.00  0.00    +0.000 A 
ATOM     24  C   UNL     1       8.219   6.049  19.401  0.00  0.00    +0.000 A 
ATOM     25  C   UNL     1       7.145   5.258  18.989  0.00  0.00    +0.000 A 
ATOM     26  C   UNL     1       6.332   5.669  17.929  0.00  0.00    +0.000 A 
ATOM     27  C   UNL     1       6.583   6.917  17.334  0.00  0.00    +0.000 A 
BRANCH  22  29
ATOM     28  C   UNL     1       8.554   9.889  18.052  0.00  0.00    +0.000 C 
ATOM     29  O   UNL     1       8.003   8.912  17.174  0.00  0.00    +0.000 OA
ENDBRANCH  22  29
ENDBRANCH   1  26
TORSDOF 3
ENDMDL
MODEL 8
REMARK VINA RESULT:      -7.7      2.524      6.509
REMARK  Name = 
REMARK  4 active torsions:
REMARK  status: ('A' for Active; 'I' for Inactive)
REMARK    1  A    between atoms: C_1  and  O_2
REMARK    2  A    between atoms: O_2  and  C_3
REMARK    3  A    between atoms: C_7  and  N_8
REMARK    4  A    between atoms: C_11  and  C_12
REMARK                            x       y       z     vdW  Elec       q    Type
REMARK                         _______ _______ _______ _____ _____    ______ ____
ROOT
ATOM      1  N   UNL     1       2.365   6.590  20.498  0.00  0.00    +0.000 N 
ATOM      2  C   UNL     1       2.811   5.405  19.934  0.00  0.00    +0.000 A 
ATOM      3  N   UNL     1       3.533   5.407  18.832  0.00  0.00    +0.000 NA
ATOM      4  C   UNL     1       3.929   4.221  18.234  0.00  0.00    +0.000 A 
ATOM      5  C   UNL     1       3.601   3.014  18.746  0.00  0.00    +0.000 A 
ATOM      6  N   UNL     1       2.880   2.975  19.918  0.00  0.00    +0.000 N 
ATOM      7  C   UNL     1       2.414   1.933  20.666  0.00  0.00    +0.000 A 
ATOM      8  C   UNL     1       1.748   2.522  21.721  0.00  0.00    +0.000 A 
ATOM      9  N   UNL     1       1.785   3.895  21.633  0.00  0.00    +0.000 NA
ATOM     10  C   UNL     1       2.481   4.124  20.537  0.00  0.00    +0.000 A 
ATOM     11  H   UNL     1       1.738   6.462  21.287  0.00  0.00    +0.000 HD
ENDROOT
BRANCH   4  12
ATOM     12  C   UNL     1       4.689   4.320  16.957  0.00  0.00    +0.000 A 
ATOM     13  C   UNL     1       4.272   3.643  15.798  0.00  0.00    +0.000 A 
ATOM     14  C   UNL     1       4.991   3.719  14.596  0.00  0.00    +0.000 A 
ATOM     15  C   UNL     1       6.166   4.480  14.560  0.00  0.00    +0.000 A 
ATOM     16  C   UNL     1       7.153   4.787  13.598  0.00  0.00    +0.000 A 
ATOM     17  N   UNL     1       8.110   5.588  14.077  0.00  0.00    +0.000 NA
ATOM     18  N   UNL     1       7.742   5.779  15.359  0.00  0.00    +0.000 N 
ATOM     19  C   UNL     1       6.581   5.141  15.708  0.00  0.00    +0.000 A 
ATOM     20  C   UNL     1       5.876   5.079  16.916  0.00  0.00    +0.000 A 
ATOM     21  H   UNL     1       8.331   6.359  15.946  0.00  0.00    +0.000 HD
ENDBRANCH   4  12
BRANCH   1  26
ATOM     22  C   UNL     1       0.947   9.900  19.488  0.00  0.00    +0.000 A 
ATOM     23  C   UNL     1       1.387   9.964  18.167  0.00  0.00    +0.000 A 
ATOM     24  C   UNL     1       2.176   8.943  17.633  0.00  0.00    +0.000 A 
ATOM     25  C   UNL     1       2.516   7.838  18.416  0.00  0.00    +0.000 A 
ATOM     26  C   UNL     1       2.056   7.738  19.732  0.00  0.00    +0.000 A 
ATOM     27  C   UNL     1       1.300   8.798  20.263  0.00  0.00    +0.000 A 
BRANCH  22  29
ATOM     28  C   UNL     1      -1.184  10.953  19.479  0.00  0.00    +0.000 C 
ATOM     29  O   UNL     1       0.174  10.949  19.907  0.00  0.00    +0.000 OA
ENDBRANCH  22  29
ENDBRANCH   1  26
TORSDOF 3
ENDMDL
MODEL 9
REMARK VINA RESULT:      -7.0      2.296      6.346
REMARK  Name = 
REMARK  4 active torsions:
REMARK  status: ('A' for Active; 'I' for Inactive)
REMARK    1  A    between atoms: C_1  and  O_2
REMARK    2  A    between atoms: O_2  and  C_3
REMARK    3  A    between atoms: C_7  and  N_8
REMARK    4  A    between atoms: C_11  and  C_12
REMARK                            x       y       z     vdW  Elec       q    Type
REMARK                         _______ _______ _______ _____ _____    ______ ____
ROOT
ATOM      1  N   UNL     1       1.887   6.460  21.183  0.00  0.00    +0.000 N 
ATOM      2  C   UNL     1       2.440   5.402  20.480  0.00  0.00    +0.000 A 
ATOM      3  N   UNL     1       3.152   5.609  19.390  0.00  0.00    +0.000 NA
ATOM      4  C   UNL     1       3.654   4.549  18.652  0.00  0.00    +0.000 A 
ATOM      5  C   UNL     1       3.446   3.262  19.010  0.00  0.00    +0.000 A 
ATOM      6  N   UNL     1       2.740   3.010  20.165  0.00  0.00    +0.000 N 
ATOM      7  C   UNL     1       2.380   1.844  20.776  0.00  0.00    +0.000 A 
ATOM      8  C   UNL     1       1.668   2.232  21.892  0.00  0.00    +0.000 A 
ATOM      9  N   UNL     1       1.573   3.603  21.974  0.00  0.00    +0.000 NA
ATOM     10  C   UNL     1       2.238   4.031  20.919  0.00  0.00    +0.000 A 
ATOM     11  H   UNL     1       1.280   6.177  21.947  0.00  0.00    +0.000 HD
ENDROOT
BRANCH   4  12
ATOM     12  C   UNL     1       4.394   4.875  17.402  0.00  0.00    +0.000 A 
ATOM     13  C   UNL     1       4.553   6.202  16.966  0.00  0.00    +0.000 A 
ATOM     14  C   UNL     1       5.235   6.516  15.782  0.00  0.00    +0.000 A 
ATOM     15  C   UNL     1       5.758   5.473  15.007  0.00  0.00    +0.000 A 
ATOM     16  C   UNL     1       6.462   5.362  13.789  0.00  0.00    +0.000 A 
ATOM     17  N   UNL     1       6.742   4.095  13.467  0.00  0.00    +0.000 NA
ATOM     18  N   UNL     1       6.195   3.390  14.477  0.00  0.00    +0.000 N 
ATOM     19  C   UNL     1       5.592   4.163  15.434  0.00  0.00    +0.000 A 
ATOM     20  C   UNL     1       4.915   3.829  16.615  0.00  0.00    +0.000 A 
ATOM     21  H   UNL     1       6.269   2.379  14.453  0.00  0.00    +0.000 HD
ENDBRANCH   4  12
BRANCH   1  26
ATOM     22  C   UNL     1       1.649   9.312  18.774  0.00  0.00    +0.000 A 
ATOM     23  C   UNL     1       0.667  10.080  19.398  0.00  0.00    +0.000 A 
ATOM     24  C   UNL     1       0.066   9.638  20.579  0.00  0.00    +0.000 A 
ATOM     25  C   UNL     1       0.458   8.427  21.154  0.00  0.00    +0.000 A 
ATOM     26  C   UNL     1       1.465   7.660  20.563  0.00  0.00    +0.000 A 
ATOM     27  C   UNL     1       2.025   8.101  19.352  0.00  0.00    +0.000 A 
BRANCH  22  29
ATOM     28  C   UNL     1       2.517  11.225  17.661  0.00  0.00    +0.000 C 
ATOM     29  O   UNL     1       2.177   9.841  17.628  0.00  0.00    +0.000 OA
ENDBRANCH  22  29
ENDBRANCH   1  26
TORSDOF 3
ENDMDL
