MODEL 1
REMARK VINA RESULT:      -8.3      0.000      0.000
REMARK  Name = 
REMARK  6 active torsions:
REMARK  status: ('A' for Active; 'I' for Inactive)
REMARK    1  A    between atoms: C_1  and  O_2
REMARK    2  A    between atoms: O_2  and  C_3
REMARK    3  A    between atoms: C_4  and  C_5
REMARK    4  A    between atoms: N_7  and  C_8
REMARK    5  A    between atoms: C_19  and  N_20
REMARK    6  A    between atoms: C_21  and  C_23
REMARK                            x       y       z     vdW  Elec       q    Type
REMARK                         _______ _______ _______ _____ _____    ______ ____
ROOT
ATOM      1  C   UNL     1       0.147   9.547  20.993  0.00  0.00    +0.000 A 
ATOM      2  C   UNL     1      -0.259  10.760  20.455  0.00  0.00    +0.000 A 
ATOM      3  O   UNL     1       0.317  10.931  19.225  0.00  0.00    +0.000 OA
ATOM      4  C   UNL     1       1.093   9.830  18.994  0.00  0.00    +0.000 A 
ATOM      5  C   UNL     1       1.843   9.597  17.845  0.00  0.00    +0.000 A 
ATOM      6  C   UNL     1       2.580   8.403  17.790  0.00  0.00    +0.000 A 
ATOM      7  C   UNL     1       2.570   7.477  18.839  0.00  0.00    +0.000 A 
ATOM      8  C   UNL     1       1.792   7.747  19.979  0.00  0.00    +0.000 A 
ATOM      9  C   UNL     1       1.040   8.943  20.067  0.00  0.00    +0.000 A 
ENDROOT
BRANCH   2  10
ATOM     10  C   UNL     1      -1.128  11.772  21.037  0.00  0.00    +0.000 C 
ATOM     11  O   UNL     1      -1.782  12.519  20.320  0.00  0.00    +0.000 OA
ATOM     12  N   UNL     1      -1.144  11.846  22.429  0.00  0.00    +0.000 N 
ATOM     13  H   UNL     1      -0.450  11.291  22.919  0.00  0.00    +0.000 HD
BRANCH  12  14
ATOM     14  C   UNL     1      -1.921  12.774  23.175  0.00  0.00    +0.000 A 
ATOM     15  C   UNL     1      -1.424  14.017  23.595  0.00  0.00    +0.000 A 
ATOM     16  C   UNL     1      -2.172  14.867  24.415  0.00  0.00    +0.000 A 
ATOM     17  C   UNL     1      -3.448  14.493  24.810  0.00  0.00    +0.000 A 
ATOM     18  C   UNL     1      -3.970  13.289  24.349  0.00  0.00    +0.000 A 
ATOM     19  F   UNL     1      -5.207  12.934  24.724  0.00  0.00    +0.000 F 
ATOM     20  C   UNL     1      -3.230  12.434  23.527  0.00  0.00    +0.000 A 
ENDBRANCH  12  14
ENDBRANCH   2  10
BRANCH   7  21
ATOM     21  N   UNL     1       3.321   6.275  18.841  0.00  0.00    +0.000 N 
ATOM     22  C   UNL     1       2.935   5.045  18.332  0.00  0.00    +0.000 C 
ATOM     23  O   UNL     1       1.815   4.779  17.908  0.00  0.00    +0.000 OA
ATOM     24  H   UNL     1       4.234   6.323  19.275  0.00  0.00    +0.000 HD
BRANCH  22  25
ATOM     25  C   UNL     1       4.049   3.978  18.379  0.00  0.00    +0.000 C 
ATOM     26  C   UNL     1       4.364   3.418  16.979  0.00  0.00    +0.000 C 
ATOM     27  C   UNL     1       5.109   4.417  16.089  0.00  0.00    +0.000 C 
ATOM     28  C   UNL     1       6.359   4.967  16.767  0.00  0.00    +0.000 C 
ATOM     29  C   UNL     1       6.062   5.515  18.159  0.00  0.00    +0.000 C 
ATOM     30  C   UNL     1       5.344   4.487  19.031  0.00  0.00    +0.000 C 
ENDBRANCH  22  25
ENDBRANCH   7  21
BRANCH   1  32
ATOM     31  C   UNL     1       0.488   9.240  23.290  0.00  0.00    +0.000 C 
ATOM     32  O   UNL     1      -0.362   9.104  22.166  0.00  0.00    +0.000 OA
ENDBRANCH   1  32
TORSDOF 5
ENDMDL
MODEL 2
REMARK VINA RESULT:      -8.2      1.458      1.991
REMARK  Name = 
REMARK  6 active torsions:
REMARK  status: ('A' for Active; 'I' for Inactive)
REMARK    1  A    between atoms: C_1  and  O_2
REMARK    2  A    between atoms: O_2  and  C_3
REMARK    3  A    between atoms: C_4  and  C_5
REMARK    4  A    between atoms: N_7  and  C_8
REMARK    5  A    between atoms: C_19  and  N_20
REMARK    6  A    between atoms: C_21  and  C_23
REMARK                            x       y       z     vdW  Elec       q    Type
REMARK                         _______ _______ _______ _____ _____    ______ ____
ROOT
ATOM      1  C   UNL     1       0.521  10.409  21.599  0.00  0.00    +0.000 A 
ATOM      2  C   UNL     1       0.020  11.489  20.885  0.00  0.00    +0.000 A 
ATOM      3  O   UNL     1       0.219  11.286  19.547  0.00  0.00    +0.000 OA
ATOM      4  C   UNL     1       0.857  10.084  19.419  0.00  0.00    +0.000 A 
ATOM      5  C   UNL     1       1.232   9.493  18.216  0.00  0.00    +0.000 A 
ATOM      6  C   UNL     1       1.880   8.249  18.286  0.00  0.00    +0.000 A 
ATOM      7  C   UNL     1       2.142   7.618  19.507  0.00  0.00    +0.000 A 
ATOM      8  C   UNL     1       1.738   8.245  20.699  0.00  0.00    +0.000 A 
ATOM      9  C   UNL     1       1.086   9.501  20.663  0.00  0.00    +0.000 A 
ENDROOT
BRANCH   2  10
ATOM     10  C   UNL     1      -0.608  12.703  21.388  0.00  0.00    +0.000 C 
ATOM     11  O   UNL     1      -0.549  13.746  20.748  0.00  0.00    +0.000 OA
ATOM     12  N   UNL     1      -1.240  12.604  22.626  0.00  0.00    +0.000 N 
ATOM     13  H   UNL     1      -1.095  11.741  23.140  0.00  0.00    +0.000 HD
BRANCH  12  14
ATOM     14  C   UNL     1      -1.898  13.682  23.280  0.00  0.00    +0.000 A 
ATOM     15  C   UNL     1      -1.214  14.634  24.050  0.00  0.00    +0.000 A 
ATOM     16  C   UNL     1      -1.893  15.623  24.768  0.00  0.00    +0.000 A 
ATOM     17  C   UNL     1      -3.277  15.689  24.704  0.00  0.00    +0.000 A 
ATOM     18  C   UNL     1      -3.958  14.786  23.895  0.00  0.00    +0.000 A 
ATOM     19  F   UNL     1      -5.295  14.857  23.827  0.00  0.00    +0.000 F 
ATOM     20  C   UNL     1      -3.287  13.795  23.173  0.00  0.00    +0.000 A 
ENDBRANCH  12  14
ENDBRANCH   2  10
BRANCH   7  21
ATOM     21  N   UNL     1       2.819   6.378  19.627  0.00  0.00    +0.000 N 
ATOM     22  C   UNL     1       2.297   5.180  20.087  0.00  0.00    +0.000 C 
ATOM     23  O   UNL     1       1.184   5.042  20.585  0.00  0.00    +0.000 OA
ATOM     24  H   UNL     1       3.795   6.378  19.360  0.00  0.00    +0.000 HD
BRANCH  22  25
ATOM     25  C   UNL     1       3.273   3.991  19.963  0.00  0.00    +0.000 C 
ATOM     26  C   UNL     1       2.555   2.640  20.150  0.00  0.00    +0.000 C 
ATOM     27  C   UNL     1       1.664   2.267  18.961  0.00  0.00    +0.000 C 
ATOM     28  C   UNL     1       2.421   2.322  17.639  0.00  0.00    +0.000 C 
ATOM     29  C   UNL     1       3.145   3.651  17.447  0.00  0.00    +0.000 C 
ATOM     30  C   UNL     1       4.045   3.982  18.636  0.00  0.00    +0.000 C 
ENDBRANCH  22  25
ENDBRANCH   7  21
BRANCH   1  32
ATOM     31  C   UNL     1      -0.474   9.278  23.392  0.00  0.00    +0.000 C 
ATOM     32  O   UNL     1       0.359  10.329  22.940  0.00  0.00    +0.000 OA
ENDBRANCH   1  32
TORSDOF 5
ENDMDL
MODEL 3
REMARK VINA RESULT:      -8.2      1.535      2.163
REMARK  Name = 
REMARK  6 active torsions:
REMARK  status: ('A' for Active; 'I' for Inactive)
REMARK    1  A    between atoms: C_1  and  O_2
REMARK    2  A    between atoms: O_2  and  C_3
REMARK    3  A    between atoms: C_4  and  C_5
REMARK    4  A    between atoms: N_7  and  C_8
REMARK    5  A    between atoms: C_19  and  N_20
REMARK    6  A    between atoms: C_21  and  C_23
REMARK                            x       y       z     vdW  Elec       q    Type
REMARK                         _______ _______ _______ _____ _____    ______ ____
ROOT
ATOM      1  C   UNL     1      -0.189   9.994  21.312  0.00  0.00    +0.000 A 
ATOM      2  C   UNL     1      -0.537  11.140  20.611  0.00  0.00    +0.000 A 
ATOM      3  O   UNL     1       0.059  11.124  19.379  0.00  0.00    +0.000 OA
ATOM      4  C   UNL     1       0.792   9.972  19.310  0.00  0.00    +0.000 A 
ATOM      5  C   UNL     1       1.545   9.560  18.214  0.00  0.00    +0.000 A 
ATOM      6  C   UNL     1       2.233   8.341  18.330  0.00  0.00    +0.000 A 
ATOM      7  C   UNL     1       2.173   7.563  19.492  0.00  0.00    +0.000 A 
ATOM      8  C   UNL     1       1.393   8.012  20.573  0.00  0.00    +0.000 A 
ATOM      9  C   UNL     1       0.690   9.238  20.489  0.00  0.00    +0.000 A 
ENDROOT
BRANCH   2  10
ATOM     10  C   UNL     1      -1.371  12.253  21.040  0.00  0.00    +0.000 C 
ATOM     11  O   UNL     1      -1.206  13.373  20.571  0.00  0.00    +0.000 OA
ATOM     12  N   UNL     1      -2.327  11.970  22.015  0.00  0.00    +0.000 N 
ATOM     13  H   UNL     1      -2.274  11.053  22.447  0.00  0.00    +0.000 HD
BRANCH  12  14
ATOM     14  C   UNL     1      -3.223  12.928  22.563  0.00  0.00    +0.000 A 
ATOM     15  C   UNL     1      -4.415  13.305  21.926  0.00  0.00    +0.000 A 
ATOM     16  C   UNL     1      -5.228  14.323  22.433  0.00  0.00    +0.000 A 
ATOM     17  C   UNL     1      -4.869  14.968  23.607  0.00  0.00    +0.000 A 
ATOM     18  C   UNL     1      -3.720  14.559  24.276  0.00  0.00    +0.000 A 
ATOM     19  F   UNL     1      -3.380  15.177  25.416  0.00  0.00    +0.000 F 
ATOM     20  C   UNL     1      -2.903  13.541  23.777  0.00  0.00    +0.000 A 
ENDBRANCH  12  14
ENDBRANCH   2  10
BRANCH   7  21
ATOM     21  N   UNL     1       2.874   6.343  19.665  0.00  0.00    +0.000 N 
ATOM     22  C   UNL     1       2.353   5.130  20.085  0.00  0.00    +0.000 C 
ATOM     23  O   UNL     1       1.209   4.960  20.497  0.00  0.00    +0.000 OA
ATOM     24  H   UNL     1       3.867   6.371  19.472  0.00  0.00    +0.000 HD
BRANCH  22  25
ATOM     25  C   UNL     1       3.369   3.969  20.037  0.00  0.00    +0.000 C 
ATOM     26  C   UNL     1       2.689   2.605  20.262  0.00  0.00    +0.000 C 
ATOM     27  C   UNL     1       1.843   2.154  19.067  0.00  0.00    +0.000 C 
ATOM     28  C   UNL     1       2.633   2.179  17.764  0.00  0.00    +0.000 C 
ATOM     29  C   UNL     1       3.320   3.521  17.535  0.00  0.00    +0.000 C 
ATOM     30  C   UNL     1       4.177   3.930  18.731  0.00  0.00    +0.000 C 
ENDBRANCH  22  25
ENDBRANCH   7  21
BRANCH   1  32
ATOM     31  C   UNL     1       0.198   9.513  23.571  0.00  0.00    +0.000 C 
ATOM     32  O   UNL     1      -0.729   9.731  22.524  0.00  0.00    +0.000 OA
ENDBRANCH   1  32
TORSDOF 5
ENDMDL
MODEL 4
REMARK VINA RESULT:      -8.2      0.912      1.263
REMARK  Name = 
REMARK  6 active torsions:
REMARK  status: ('A' for Active; 'I' for Inactive)
REMARK    1  A    between atoms: C_1  and  O_2
REMARK    2  A    between atoms: O_2  and  C_3
REMARK    3  A    between atoms: C_4  and  C_5
REMARK    4  A    between atoms: N_7  and  C_8
REMARK    5  A    between atoms: C_19  and  N_20
REMARK    6  A    between atoms: C_21  and  C_23
REMARK                            x       y       z     vdW  Elec       q    Type
REMARK                         _______ _______ _______ _____ _____    ______ ____
ROOT
ATOM      1  C   UNL     1       0.093   9.601  21.082  0.00  0.00    +0.000 A 
ATOM      2  C   UNL     1      -0.297  10.814  20.532  0.00  0.00    +0.000 A 
ATOM      3  O   UNL     1       0.280  10.965  19.300  0.00  0.00    +0.000 OA
ATOM      4  C   UNL     1       1.043   9.852  19.081  0.00  0.00    +0.000 A 
ATOM      5  C   UNL     1       1.790   9.598  17.934  0.00  0.00    +0.000 A 
ATOM      6  C   UNL     1       2.512   8.394  17.891  0.00  0.00    +0.000 A 
ATOM      7  C   UNL     1       2.490   7.479  18.949  0.00  0.00    +0.000 A 
ATOM      8  C   UNL     1       1.715   7.771  20.086  0.00  0.00    +0.000 A 
ATOM      9  C   UNL     1       0.979   8.977  20.162  0.00  0.00    +0.000 A 
ENDROOT
BRANCH   2  10
ATOM     10  C   UNL     1      -1.153  11.842  21.104  0.00  0.00    +0.000 C 
ATOM     11  O   UNL     1      -1.789  12.599  20.380  0.00  0.00    +0.000 OA
ATOM     12  N   UNL     1      -1.179  11.921  22.495  0.00  0.00    +0.000 N 
ATOM     13  H   UNL     1      -0.499  11.355  22.993  0.00  0.00    +0.000 HD
BRANCH  12  14
ATOM     14  C   UNL     1      -1.946  12.864  23.232  0.00  0.00    +0.000 A 
ATOM     15  C   UNL     1      -3.259  12.611  23.655  0.00  0.00    +0.000 A 
ATOM     16  C   UNL     1      -4.029  13.592  24.288  0.00  0.00    +0.000 A 
ATOM     17  C   UNL     1      -3.482  14.843  24.529  0.00  0.00    +0.000 A 
ATOM     18  C   UNL     1      -2.162  15.084  24.166  0.00  0.00    +0.000 A 
ATOM     19  F   UNL     1      -1.633  16.290  24.409  0.00  0.00    +0.000 F 
ATOM     20  C   UNL     1      -1.385  14.108  23.535  0.00  0.00    +0.000 A 
ENDBRANCH  12  14
ENDBRANCH   2  10
BRANCH   7  21
ATOM     21  N   UNL     1       3.226   6.268  18.963  0.00  0.00    +0.000 N 
ATOM     22  C   UNL     1       2.901   5.083  18.321  0.00  0.00    +0.000 C 
ATOM     23  O   UNL     1       1.843   4.866  17.738  0.00  0.00    +0.000 OA
ATOM     24  H   UNL     1       4.074   6.270  19.514  0.00  0.00    +0.000 HD
BRANCH  22  25
ATOM     25  C   UNL     1       3.991   3.997  18.437  0.00  0.00    +0.000 C 
ATOM     26  C   UNL     1       4.287   3.337  17.077  0.00  0.00    +0.000 C 
ATOM     27  C   UNL     1       5.049   4.257  16.119  0.00  0.00    +0.000 C 
ATOM     28  C   UNL     1       6.314   4.823  16.754  0.00  0.00    +0.000 C 
ATOM     29  C   UNL     1       6.036   5.470  18.107  0.00  0.00    +0.000 C 
ATOM     30  C   UNL     1       5.299   4.520  19.049  0.00  0.00    +0.000 C 
ENDBRANCH  22  25
ENDBRANCH   7  21
BRANCH   1  32
ATOM     31  C   UNL     1       0.417   9.345  23.387  0.00  0.00    +0.000 C 
ATOM     32  O   UNL     1      -0.421   9.177  22.259  0.00  0.00    +0.000 OA
ENDBRANCH   1  32
TORSDOF 5
ENDMDL
MODEL 5
REMARK VINA RESULT:      -8.2      1.595      2.083
REMARK  Name = 
REMARK  6 active torsions:
REMARK  status: ('A' for Active; 'I' for Inactive)
REMARK    1  A    between atoms: C_1  and  O_2
REMARK    2  A    between atoms: O_2  and  C_3
REMARK    3  A    between atoms: C_4  and  C_5
REMARK    4  A    between atoms: N_7  and  C_8
REMARK    5  A    between atoms: C_19  and  N_20
REMARK    6  A    between atoms: C_21  and  C_23
REMARK                            x       y       z     vdW  Elec       q    Type
REMARK                         _______ _______ _______ _____ _____    ______ ____
ROOT
ATOM      1  C   UNL     1      -0.175  10.061  21.285  0.00  0.00    +0.000 A 
ATOM      2  C   UNL     1      -0.507  11.183  20.538  0.00  0.00    +0.000 A 
ATOM      3  O   UNL     1       0.087  11.106  19.307  0.00  0.00    +0.000 OA
ATOM      4  C   UNL     1       0.802   9.941  19.285  0.00  0.00    +0.000 A 
ATOM      5  C   UNL     1       1.546   9.472  18.206  0.00  0.00    +0.000 A 
ATOM      6  C   UNL     1       2.215   8.248  18.371  0.00  0.00    +0.000 A 
ATOM      7  C   UNL     1       2.144   7.520  19.564  0.00  0.00    +0.000 A 
ATOM      8  C   UNL     1       1.373   8.026  20.627  0.00  0.00    +0.000 A 
ATOM      9  C   UNL     1       0.690   9.258  20.494  0.00  0.00    +0.000 A 
ENDROOT
BRANCH   2  10
ATOM     10  C   UNL     1      -1.322  12.326  20.922  0.00  0.00    +0.000 C 
ATOM     11  O   UNL     1      -1.158  13.416  20.388  0.00  0.00    +0.000 OA
ATOM     12  N   UNL     1      -2.259  12.106  21.930  0.00  0.00    +0.000 N 
ATOM     13  H   UNL     1      -2.205  11.214  22.411  0.00  0.00    +0.000 HD
BRANCH  12  14
ATOM     14  C   UNL     1      -3.136  13.101  22.442  0.00  0.00    +0.000 A 
ATOM     15  C   UNL     1      -2.782  13.955  23.497  0.00  0.00    +0.000 A 
ATOM     16  C   UNL     1      -3.698  14.855  24.052  0.00  0.00    +0.000 A 
ATOM     17  C   UNL     1      -4.983  14.930  23.538  0.00  0.00    +0.000 A 
ATOM     18  C   UNL     1      -5.324  14.129  22.453  0.00  0.00    +0.000 A 
ATOM     19  F   UNL     1      -6.564  14.211  21.952  0.00  0.00    +0.000 F 
ATOM     20  C   UNL     1      -4.414  13.229  21.891  0.00  0.00    +0.000 A 
ENDBRANCH  12  14
ENDBRANCH   2  10
BRANCH   7  21
ATOM     21  N   UNL     1       2.826   6.297  19.787  0.00  0.00    +0.000 N 
ATOM     22  C   UNL     1       2.269   5.081  20.147  0.00  0.00    +0.000 C 
ATOM     23  O   UNL     1       1.093   4.909  20.455  0.00  0.00    +0.000 OA
ATOM     24  H   UNL     1       3.833   6.325  19.683  0.00  0.00    +0.000 HD
BRANCH  22  25
ATOM     25  C   UNL     1       3.284   3.919  20.178  0.00  0.00    +0.000 C 
ATOM     26  C   UNL     1       2.586   2.553  20.320  0.00  0.00    +0.000 C 
ATOM     27  C   UNL     1       1.854   2.120  19.046  0.00  0.00    +0.000 C 
ATOM     28  C   UNL     1       2.762   2.161  17.822  0.00  0.00    +0.000 C 
ATOM     29  C   UNL     1       3.468   3.505  17.676  0.00  0.00    +0.000 C 
ATOM     30  C   UNL     1       4.210   3.896  18.953  0.00  0.00    +0.000 C 
ENDBRANCH  22  25
ENDBRANCH   7  21
BRANCH   1  32
ATOM     31  C   UNL     1       0.197   9.504  23.530  0.00  0.00    +0.000 C 
ATOM     32  O   UNL     1      -0.717   9.857  22.508  0.00  0.00    +0.000 OA
ENDBRANCH   1  32
TORSDOF 5
ENDMDL
MODEL 6
REMARK VINA RESULT:      -8.1      1.644      2.274
REMARK  Name = 
REMARK  6 active torsions:
REMARK  status: ('A' for Active; 'I' for Inactive)
REMARK    1  A    between atoms: C_1  and  O_2
REMARK    2  A    between atoms: O_2  and  C_3
REMARK    3  A    between atoms: C_4  and  C_5
REMARK    4  A    between atoms: N_7  and  C_8
REMARK    5  A    between atoms: C_19  and  N_20
REMARK    6  A    between atoms: C_21  and  C_23
REMARK                            x       y       z     vdW  Elec       q    Type
REMARK                         _______ _______ _______ _____ _____    ______ ____
ROOT
ATOM      1  C   UNL     1       0.548  10.389  21.270  0.00  0.00    +0.000 A 
ATOM      2  C   UNL     1       0.088  11.436  20.483  0.00  0.00    +0.000 A 
ATOM      3  O   UNL     1       0.336  11.162  19.165  0.00  0.00    +0.000 OA
ATOM      4  C   UNL     1       0.961   9.947  19.124  0.00  0.00    +0.000 A 
ATOM      5  C   UNL     1       1.374   9.290  17.969  0.00  0.00    +0.000 A 
ATOM      6  C   UNL     1       2.001   8.043  18.128  0.00  0.00    +0.000 A 
ATOM      7  C   UNL     1       2.208   7.474  19.389  0.00  0.00    +0.000 A 
ATOM      8  C   UNL     1       1.767   8.167  20.531  0.00  0.00    +0.000 A 
ATOM      9  C   UNL     1       1.135   9.427  20.405  0.00  0.00    +0.000 A 
ENDROOT
BRANCH   2  10
ATOM     10  C   UNL     1      -0.541  12.681  20.897  0.00  0.00    +0.000 C 
ATOM     11  O   UNL     1      -1.297  13.280  20.142  0.00  0.00    +0.000 OA
ATOM     12  N   UNL     1      -0.211  13.147  22.169  0.00  0.00    +0.000 N 
ATOM     13  H   UNL     1       0.542  12.662  22.647  0.00  0.00    +0.000 HD
BRANCH  12  14
ATOM     14  C   UNL     1      -0.716  14.346  22.741  0.00  0.00    +0.000 A 
ATOM     15  C   UNL     1      -0.301  15.620  22.327  0.00  0.00    +0.000 A 
ATOM     16  C   UNL     1      -0.735  16.781  22.975  0.00  0.00    +0.000 A 
ATOM     17  C   UNL     1      -1.617  16.683  24.040  0.00  0.00    +0.000 A 
ATOM     18  C   UNL     1      -2.080  15.427  24.419  0.00  0.00    +0.000 A 
ATOM     19  F   UNL     1      -2.941  15.336  25.442  0.00  0.00    +0.000 F 
ATOM     20  C   UNL     1      -1.653  14.262  23.775  0.00  0.00    +0.000 A 
ENDBRANCH  12  14
ENDBRANCH   2  10
BRANCH   7  21
ATOM     21  N   UNL     1       2.863   6.234  19.599  0.00  0.00    +0.000 N 
ATOM     22  C   UNL     1       2.299   5.056  20.063  0.00  0.00    +0.000 C 
ATOM     23  O   UNL     1       1.152   4.945  20.486  0.00  0.00    +0.000 OA
ATOM     24  H   UNL     1       3.856   6.217  19.401  0.00  0.00    +0.000 HD
BRANCH  22  25
ATOM     25  C   UNL     1       3.269   3.856  20.049  0.00  0.00    +0.000 C 
ATOM     26  C   UNL     1       2.525   2.517  20.205  0.00  0.00    +0.000 C 
ATOM     27  C   UNL     1       1.732   2.124  18.955  0.00  0.00    +0.000 C 
ATOM     28  C   UNL     1       2.597   2.140  17.700  0.00  0.00    +0.000 C 
ATOM     29  C   UNL     1       3.349   3.458  17.539  0.00  0.00    +0.000 C 
ATOM     30  C   UNL     1       4.150   3.809  18.791  0.00  0.00    +0.000 C 
ENDBRANCH  22  25
ENDBRANCH   7  21
BRANCH   1  32
ATOM     31  C   UNL     1      -0.726   9.554  23.049  0.00  0.00    +0.000 C 
ATOM     32  O   UNL     1       0.334  10.381  22.606  0.00  0.00    +0.000 OA
ENDBRANCH   1  32
TORSDOF 5
ENDMDL
MODEL 7
REMARK VINA RESULT:      -8.1      1.855      2.393
REMARK  Name = 
REMARK  6 active torsions:
REMARK  status: ('A' for Active; 'I' for Inactive)
REMARK    1  A    between atoms: C_1  and  O_2
REMARK    2  A    between atoms: O_2  and  C_3
REMARK    3  A    between atoms: C_4  and  C_5
REMARK    4  A    between atoms: N_7  and  C_8
REMARK    5  A    between atoms: C_19  and  N_20
REMARK    6  A    between atoms: C_21  and  C_23
REMARK                            x       y       z     vdW  Elec       q    Type
REMARK                         _______ _______ _______ _____ _____    ______ ____
ROOT
ATOM      1  C   UNL     1       0.622  10.434  21.448  0.00  0.00    +0.000 A 
ATOM      2  C   UNL     1       0.264  11.515  20.655  0.00  0.00    +0.000 A 
ATOM      3  O   UNL     1       0.552  11.237  19.346  0.00  0.00    +0.000 OA
ATOM      4  C   UNL     1       1.102   9.986  19.318  0.00  0.00    +0.000 A 
ATOM      5  C   UNL     1       1.524   9.315  18.174  0.00  0.00    +0.000 A 
ATOM      6  C   UNL     1       2.065   8.030  18.345  0.00  0.00    +0.000 A 
ATOM      7  C   UNL     1       2.181   7.438  19.608  0.00  0.00    +0.000 A 
ATOM      8  C   UNL     1       1.734   8.147  20.737  0.00  0.00    +0.000 A 
ATOM      9  C   UNL     1       1.187   9.445  20.599  0.00  0.00    +0.000 A 
ENDROOT
BRANCH   2  10
ATOM     10  C   UNL     1      -0.305  12.793  21.056  0.00  0.00    +0.000 C 
ATOM     11  O   UNL     1       0.159  13.843  20.629  0.00  0.00    +0.000 OA
ATOM     12  N   UNL     1      -1.368  12.741  21.956  0.00  0.00    +0.000 N 
ATOM     13  H   UNL     1      -1.570  11.834  22.366  0.00  0.00    +0.000 HD
BRANCH  12  14
ATOM     14  C   UNL     1      -2.043  13.882  22.467  0.00  0.00    +0.000 A 
ATOM     15  C   UNL     1      -3.014  14.583  21.735  0.00  0.00    +0.000 A 
ATOM     16  C   UNL     1      -3.589  15.763  22.219  0.00  0.00    +0.000 A 
ATOM     17  C   UNL     1      -3.215  16.248  23.463  0.00  0.00    +0.000 A 
ATOM     18  C   UNL     1      -2.298  15.528  24.220  0.00  0.00    +0.000 A 
ATOM     19  F   UNL     1      -1.946  15.994  25.426  0.00  0.00    +0.000 F 
ATOM     20  C   UNL     1      -1.720  14.347  23.745  0.00  0.00    +0.000 A 
ENDBRANCH  12  14
ENDBRANCH   2  10
BRANCH   7  21
ATOM     21  N   UNL     1       2.748   6.158  19.832  0.00  0.00    +0.000 N 
ATOM     22  C   UNL     1       2.084   5.003  20.214  0.00  0.00    +0.000 C 
ATOM     23  O   UNL     1       0.903   4.946  20.542  0.00  0.00    +0.000 OA
ATOM     24  H   UNL     1       3.751   6.090  19.712  0.00  0.00    +0.000 HD
BRANCH  22  25
ATOM     25  C   UNL     1       2.986   3.751  20.240  0.00  0.00    +0.000 C 
ATOM     26  C   UNL     1       2.159   2.451  20.256  0.00  0.00    +0.000 C 
ATOM     27  C   UNL     1       1.480   2.157  18.915  0.00  0.00    +0.000 C 
ATOM     28  C   UNL     1       2.471   2.177  17.756  0.00  0.00    +0.000 C 
ATOM     29  C   UNL     1       3.304   3.455  17.736  0.00  0.00    +0.000 C 
ATOM     30  C   UNL     1       3.989   3.706  19.078  0.00  0.00    +0.000 C 
ENDBRANCH  22  25
ENDBRANCH   7  21
BRANCH   1  32
ATOM     31  C   UNL     1      -0.607   9.473  23.195  0.00  0.00    +0.000 C 
ATOM     32  O   UNL     1       0.350  10.427  22.774  0.00  0.00    +0.000 OA
ENDBRANCH   1  32
TORSDOF 5
ENDMDL
MODEL 8
REMARK VINA RESULT:      -8.0      3.141      3.716
REMARK  Name = 
REMARK  6 active torsions:
REMARK  status: ('A' for Active; 'I' for Inactive)
REMARK    1  A    between atoms: C_1  and  O_2
REMARK    2  A    between atoms: O_2  and  C_3
REMARK    3  A    between atoms: C_4  and  C_5
REMARK    4  A    between atoms: N_7  and  C_8
REMARK    5  A    between atoms: C_19  and  N_20
REMARK    6  A    between atoms: C_21  and  C_23
REMARK                            x       y       z     vdW  Elec       q    Type
REMARK                         _______ _______ _______ _____ _____    ______ ____
ROOT
ATOM      1  C   UNL     1       0.672  10.567  20.872  0.00  0.00    +0.000 A 
ATOM      2  C   UNL     1       0.370  11.544  19.933  0.00  0.00    +0.000 A 
ATOM      3  O   UNL     1       0.699  11.095  18.682  0.00  0.00    +0.000 OA
ATOM      4  C   UNL     1       1.218   9.839  18.836  0.00  0.00    +0.000 A 
ATOM      5  C   UNL     1       1.665   9.019  17.805  0.00  0.00    +0.000 A 
ATOM      6  C   UNL     1       2.167   7.756  18.160  0.00  0.00    +0.000 A 
ATOM      7  C   UNL     1       2.221   7.328  19.491  0.00  0.00    +0.000 A 
ATOM      8  C   UNL     1       1.750   8.185  20.502  0.00  0.00    +0.000 A 
ATOM      9  C   UNL     1       1.242   9.466  20.178  0.00  0.00    +0.000 A 
ENDROOT
BRANCH   2  10
ATOM     10  C   UNL     1      -0.180  12.874  20.145  0.00  0.00    +0.000 C 
ATOM     11  O   UNL     1      -1.293  13.018  20.636  0.00  0.00    +0.000 OA
ATOM     12  N   UNL     1       0.615  13.944  19.737  0.00  0.00    +0.000 N 
ATOM     13  H   UNL     1       1.446  13.712  19.202  0.00  0.00    +0.000 HD
BRANCH  12  14
ATOM     14  C   UNL     1       0.243  15.311  19.855  0.00  0.00    +0.000 A 
ATOM     15  C   UNL     1       0.419  16.048  21.036  0.00  0.00    +0.000 A 
ATOM     16  C   UNL     1      -0.048  17.360  21.159  0.00  0.00    +0.000 A 
ATOM     17  C   UNL     1      -0.682  17.966  20.085  0.00  0.00    +0.000 A 
ATOM     18  C   UNL     1      -0.808  17.263  18.892  0.00  0.00    +0.000 A 
ATOM     19  F   UNL     1      -1.412  17.855  17.852  0.00  0.00    +0.000 F 
ATOM     20  C   UNL     1      -0.341  15.952  18.759  0.00  0.00    +0.000 A 
ENDBRANCH  12  14
ENDBRANCH   2  10
BRANCH   7  21
ATOM     21  N   UNL     1       2.746   6.076  19.899  0.00  0.00    +0.000 N 
ATOM     22  C   UNL     1       2.032   4.951  20.279  0.00  0.00    +0.000 C 
ATOM     23  O   UNL     1       0.816   4.912  20.443  0.00  0.00    +0.000 OA
ATOM     24  H   UNL     1       3.756   6.007  19.926  0.00  0.00    +0.000 HD
BRANCH  22  25
ATOM     25  C   UNL     1       2.917   3.713  20.537  0.00  0.00    +0.000 C 
ATOM     26  C   UNL     1       2.099   2.408  20.497  0.00  0.00    +0.000 C 
ATOM     27  C   UNL     1       1.656   2.023  19.082  0.00  0.00    +0.000 C 
ATOM     28  C   UNL     1       2.827   1.981  18.107  0.00  0.00    +0.000 C 
ATOM     29  C   UNL     1       3.652   3.264  18.145  0.00  0.00    +0.000 C 
ATOM     30  C   UNL     1       4.101   3.607  19.564  0.00  0.00    +0.000 C 
ENDBRANCH  22  25
ENDBRANCH   7  21
BRANCH   1  32
ATOM     31  C   UNL     1      -0.498   9.746  22.728  0.00  0.00    +0.000 C 
ATOM     32  O   UNL     1       0.350  10.736  22.175  0.00  0.00    +0.000 OA
ENDBRANCH   1  32
TORSDOF 5
ENDMDL
MODEL 9
REMARK VINA RESULT:      -8.0      1.431      2.168
REMARK  Name = 
REMARK  6 active torsions:
REMARK  status: ('A' for Active; 'I' for Inactive)
REMARK    1  A    between atoms: C_1  and  O_2
REMARK    2  A    between atoms: O_2  and  C_3
REMARK    3  A    between atoms: C_4  and  C_5
REMARK    4  A    between atoms: N_7  and  C_8
REMARK    5  A    between atoms: C_19  and  N_20
REMARK    6  A    between atoms: C_21  and  C_23
REMARK                            x       y       z     vdW  Elec       q    Type
REMARK                         _______ _______ _______ _____ _____    ______ ____
ROOT
ATOM      1  C   UNL     1       0.387   9.430  20.955  0.00  0.00    +0.000 A 
ATOM      2  C   UNL     1       0.299  10.791  20.699  0.00  0.00    +0.000 A 
ATOM      3  O   UNL     1       0.939  11.079  19.524  0.00  0.00    +0.000 OA
ATOM      4  C   UNL     1       1.440   9.900  19.047  0.00  0.00    +0.000 A 
ATOM      5  C   UNL     1       2.151   9.746  17.860  0.00  0.00    +0.000 A 
ATOM      6  C   UNL     1       2.586   8.451  17.535  0.00  0.00    +0.000 A 
ATOM      7  C   UNL     1       2.322   7.352  18.360  0.00  0.00    +0.000 A 
ATOM      8  C   UNL     1       1.591   7.549  19.546  0.00  0.00    +0.000 A 
ATOM      9  C   UNL     1       1.142   8.843  19.904  0.00  0.00    +0.000 A 
ENDROOT
BRANCH   2  10
ATOM     10  C   UNL     1      -0.325  11.832  21.502  0.00  0.00    +0.000 C 
ATOM     11  O   UNL     1       0.348  12.736  21.984  0.00  0.00    +0.000 OA
ATOM     12  N   UNL     1      -1.700  11.719  21.701  0.00  0.00    +0.000 N 
ATOM     13  H   UNL     1      -2.131  10.853  21.393  0.00  0.00    +0.000 HD
BRANCH  12  14
ATOM     14  C   UNL     1      -2.479  12.631  22.463  0.00  0.00    +0.000 A 
ATOM     15  C   UNL     1      -2.597  13.990  22.132  0.00  0.00    +0.000 A 
ATOM     16  C   UNL     1      -3.285  14.888  22.954  0.00  0.00    +0.000 A 
ATOM     17  C   UNL     1      -3.888  14.432  24.116  0.00  0.00    +0.000 A 
ATOM     18  C   UNL     1      -3.826  13.076  24.421  0.00  0.00    +0.000 A 
ATOM     19  F   UNL     1      -4.418  12.636  25.539  0.00  0.00    +0.000 F 
ATOM     20  C   UNL     1      -3.143  12.171  23.603  0.00  0.00    +0.000 A 
ENDBRANCH  12  14
ENDBRANCH   2  10
BRANCH   7  21
ATOM     21  N   UNL     1       2.766   6.033  18.087  0.00  0.00    +0.000 N 
ATOM     22  C   UNL     1       3.732   5.316  18.775  0.00  0.00    +0.000 C 
ATOM     23  O   UNL     1       4.449   5.772  19.661  0.00  0.00    +0.000 OA
ATOM     24  H   UNL     1       2.336   5.575  17.294  0.00  0.00    +0.000 HD
BRANCH  22  25
ATOM     25  C   UNL     1       3.879   3.857  18.295  0.00  0.00    +0.000 C 
ATOM     26  C   UNL     1       4.154   2.895  19.467  0.00  0.00    +0.000 C 
ATOM     27  C   UNL     1       2.928   2.671  20.357  0.00  0.00    +0.000 C 
ATOM     28  C   UNL     1       1.707   2.239  19.553  0.00  0.00    +0.000 C 
ATOM     29  C   UNL     1       1.430   3.177  18.383  0.00  0.00    +0.000 C 
ATOM     30  C   UNL     1       2.663   3.360  17.499  0.00  0.00    +0.000 C 
ENDBRANCH  22  25
ENDBRANCH   7  21
BRANCH   1  32
ATOM     31  C   UNL     1       0.232   9.270  23.286  0.00  0.00    +0.000 C 
ATOM     32  O   UNL     1      -0.251   8.881  22.014  0.00  0.00    +0.000 OA
ENDBRANCH   1  32
TORSDOF 5
ENDMDL
