MODEL 1
REMARK VINA RESULT:      -6.8      0.000      0.000
REMARK  Name = 
REMARK  16 active torsions:
REMARK  status: ('A' for Active; 'I' for Inactive)
REMARK    1  A    between atoms: C_1  and  C_2
REMARK    2  A    between atoms: C_2  and  C_3
REMARK    3  A    between atoms: C_3  and  C_4
REMARK    4  A    between atoms: C_4  and  C_5
REMARK    5  A    between atoms: C_5  and  C_6
REMARK    6  A    between atoms: N_8  and  C_9
REMARK    7  A    between atoms: C_12  and  O_13
REMARK    8  A    between atoms: O_13  and  C_14
REMARK    9  A    between atoms: C_14  and  C_15
REMARK   10  A    between atoms: C_15  and  O_16
REMARK   11  A    between atoms: C_15  and  C_17
REMARK   12  A    between atoms: C_17  and  N_18
REMARK   13  A    between atoms: N_18  and  C_19
REMARK   14  A    between atoms: C_19  and  C_20
REMARK   15  A    between atoms: C_20  and  C_21
REMARK   16  A    between atoms: C_24  and  O_25
REMARK                            x       y       z     vdW  Elec       q    Type
REMARK                         _______ _______ _______ _____ _____    ______ ____
ROOT
ATOM      1  C   UNL     1       1.667   5.077  20.592  0.00  0.00    +0.000 C 
ENDROOT
BRANCH   1   2
ATOM      2  O   UNL     1       2.677   5.981  20.109  0.00  0.00    +0.000 OA
BRANCH   2   6
ATOM      3  C   UNL     1       1.057   9.637  18.926  0.00  0.00    +0.000 A 
ATOM      4  C   UNL     1       1.792   8.891  18.006  0.00  0.00    +0.000 A 
ATOM      5  C   UNL     1       2.366   7.683  18.378  0.00  0.00    +0.000 A 
ATOM      6  C   UNL     1       2.194   7.189  19.670  0.00  0.00    +0.000 A 
ATOM      7  C   UNL     1       1.480   7.952  20.601  0.00  0.00    +0.000 A 
ATOM      8  C   UNL     1       0.942   9.196  20.242  0.00  0.00    +0.000 A 
BRANCH   3  11
ATOM      9  C   UNL     1       1.057  12.050  18.693  0.00  0.00    +0.000 C 
ATOM     10  O   UNL     1       2.230  12.203  19.020  0.00  0.00    +0.000 OA
ATOM     11  N   UNL     1       0.430  10.825  18.517  0.00  0.00    +0.000 N 
ATOM     12  H   UNL     1      -0.281  10.767  17.801  0.00  0.00    +0.000 HD
BRANCH   9  13
ATOM     13  C   UNL     1       0.147  13.237  18.508  0.00  0.00    +0.000 C 
BRANCH  13  14
ATOM     14  C   UNL     1      -0.040  13.985  19.825  0.00  0.00    +0.000 C 
BRANCH  14  15
ATOM     15  C   UNL     1       0.043  13.139  21.107  0.00  0.00    +0.000 C 
BRANCH  15  17
ATOM     16  C   UNL     1      -1.053  11.303  22.614  0.00  0.00    +0.000 C 
ATOM     17  C   UNL     1      -1.218  12.416  21.592  0.00  0.00    +0.000 C 
ENDBRANCH  15  17
ENDBRANCH  14  15
ENDBRANCH  13  14
ENDBRANCH   9  13
ENDBRANCH   3  11
ENDBRANCH   2   6
ENDBRANCH   1   2
BRANCH   1  18
ATOM     18  C   UNL     1       2.216   3.652  20.699  0.00  0.00    +0.000 C 
BRANCH  18  19
ATOM     19  O   UNL     1       2.297   3.271  22.078  0.00  0.00    +0.000 OA
ATOM     20  H   UNL     1       1.741   2.474  22.168  0.00  0.00    +0.000 HD
ENDBRANCH  18  19
BRANCH  18  21
ATOM     21  C   UNL     1       1.351   2.629  19.947  0.00  0.00    +0.000 C 
BRANCH  21  22
ATOM     22  N   UNL     1       2.085   1.945  18.878  0.00  0.00    +0.000 NA
ATOM     23  H   UNL     1       1.509   1.910  18.037  0.00  0.00    +0.000 HD
BRANCH  22  24
ATOM     24  C   UNL     1       3.351   2.611  18.550  0.00  0.00    +0.000 C 
BRANCH  24  25
ATOM     25  C   UNL     1       3.420   3.119  17.103  0.00  0.00    +0.000 C 
BRANCH  25  26
ATOM     26  C   UNL     1       4.569   4.080  16.904  0.00  0.00    +0.000 A 
ATOM     27  C   UNL     1       5.322   4.043  15.725  0.00  0.00    +0.000 A 
ATOM     28  C   UNL     1       6.380   4.933  15.537  0.00  0.00    +0.000 A 
ATOM     29  C   UNL     1       6.683   5.851  16.538  0.00  0.00    +0.000 A 
ATOM     30  C   UNL     1       5.956   5.888  17.720  0.00  0.00    +0.000 A 
ATOM     31  C   UNL     1       4.894   5.002  17.905  0.00  0.00    +0.000 A 
BRANCH  29  32
ATOM     32  O   UNL     1       7.704   6.737  16.399  0.00  0.00    +0.000 OA
ATOM     33  H   UNL     1       7.941   6.790  15.458  0.00  0.00    +0.000 HD
ENDBRANCH  29  32
ENDBRANCH  25  26
ENDBRANCH  24  25
ENDBRANCH  22  24
ENDBRANCH  21  22
ENDBRANCH  18  21
ENDBRANCH   1  18
TORSDOF 15
ENDMDL
MODEL 2
REMARK VINA RESULT:      -6.7      3.726      6.559
REMARK  Name = 
REMARK  16 active torsions:
REMARK  status: ('A' for Active; 'I' for Inactive)
REMARK    1  A    between atoms: C_1  and  C_2
REMARK    2  A    between atoms: C_2  and  C_3
REMARK    3  A    between atoms: C_3  and  C_4
REMARK    4  A    between atoms: C_4  and  C_5
REMARK    5  A    between atoms: C_5  and  C_6
REMARK    6  A    between atoms: N_8  and  C_9
REMARK    7  A    between atoms: C_12  and  O_13
REMARK    8  A    between atoms: O_13  and  C_14
REMARK    9  A    between atoms: C_14  and  C_15
REMARK   10  A    between atoms: C_15  and  O_16
REMARK   11  A    between atoms: C_15  and  C_17
REMARK   12  A    between atoms: C_17  and  N_18
REMARK   13  A    between atoms: N_18  and  C_19
REMARK   14  A    between atoms: C_19  and  C_20
REMARK   15  A    between atoms: C_20  and  C_21
REMARK   16  A    between atoms: C_24  and  O_25
REMARK                            x       y       z     vdW  Elec       q    Type
REMARK                         _______ _______ _______ _____ _____    ______ ____
ROOT
ATOM      1  C   UNL     1       4.178   2.537  18.927  0.00  0.00    +0.000 C 
ENDROOT
BRANCH   1   2
ATOM      2  O   UNL     1       4.509   3.195  17.692  0.00  0.00    +0.000 OA
BRANCH   2   6
ATOM      3  C   UNL     1       7.284   6.262  18.224  0.00  0.00    +0.000 A 
ATOM      4  C   UNL     1       7.105   5.722  16.951  0.00  0.00    +0.000 A 
ATOM      5  C   UNL     1       6.209   4.682  16.747  0.00  0.00    +0.000 A 
ATOM      6  C   UNL     1       5.457   4.181  17.810  0.00  0.00    +0.000 A 
ATOM      7  C   UNL     1       5.658   4.704  19.092  0.00  0.00    +0.000 A 
ATOM      8  C   UNL     1       6.600   5.719  19.309  0.00  0.00    +0.000 A 
BRANCH   3  11
ATOM      9  C   UNL     1       7.817   8.604  17.900  0.00  0.00    +0.000 C 
ATOM     10  O   UNL     1       6.719   8.917  17.451  0.00  0.00    +0.000 OA
ATOM     11  N   UNL     1       8.148   7.354  18.402  0.00  0.00    +0.000 N 
ATOM     12  H   UNL     1       8.806   7.322  19.169  0.00  0.00    +0.000 HD
BRANCH   9  13
ATOM     13  C   UNL     1       8.964   9.582  17.884  0.00  0.00    +0.000 C 
BRANCH  13  14
ATOM     14  C   UNL     1       9.338  10.002  19.303  0.00  0.00    +0.000 C 
BRANCH  14  15
ATOM     15  C   UNL     1      10.173  11.286  19.435  0.00  0.00    +0.000 C 
BRANCH  15  17
ATOM     16  C   UNL     1      10.455  13.551  20.714  0.00  0.00    +0.000 C 
ATOM     17  C   UNL     1      10.110  12.072  20.749  0.00  0.00    +0.000 C 
ENDBRANCH  15  17
ENDBRANCH  14  15
ENDBRANCH  13  14
ENDBRANCH   9  13
ENDBRANCH   3  11
ENDBRANCH   2   6
ENDBRANCH   1   2
BRANCH   1  18
ATOM     18  C   UNL     1       2.672   2.602  19.195  0.00  0.00    +0.000 C 
BRANCH  18  19
ATOM     19  O   UNL     1       2.016   1.530  18.505  0.00  0.00    +0.000 OA
ATOM     20  H   UNL     1       1.075   1.785  18.449  0.00  0.00    +0.000 HD
ENDBRANCH  18  19
BRANCH  18  21
ATOM     21  C   UNL     1       2.333   2.517  20.690  0.00  0.00    +0.000 C 
BRANCH  21  22
ATOM     22  N   UNL     1       1.143   3.296  21.046  0.00  0.00    +0.000 NA
ATOM     23  H   UNL     1       1.146   3.484  22.049  0.00  0.00    +0.000 HD
BRANCH  22  24
ATOM     24  C   UNL     1       1.074   4.576  20.331  0.00  0.00    +0.000 C 
BRANCH  24  25
ATOM     25  C   UNL     1       2.287   5.484  20.579  0.00  0.00    +0.000 C 
BRANCH  25  26
ATOM     26  C   UNL     1       2.233   6.731  19.728  0.00  0.00    +0.000 A 
ATOM     27  C   UNL     1       2.858   6.757  18.477  0.00  0.00    +0.000 A 
ATOM     28  C   UNL     1       2.804   7.906  17.686  0.00  0.00    +0.000 A 
ATOM     29  C   UNL     1       2.130   9.026  18.160  0.00  0.00    +0.000 A 
ATOM     30  C   UNL     1       1.518   9.021  19.406  0.00  0.00    +0.000 A 
ATOM     31  C   UNL     1       1.567   7.870  20.194  0.00  0.00    +0.000 A 
BRANCH  29  32
ATOM     32  O   UNL     1       2.050  10.167  17.424  0.00  0.00    +0.000 OA
ATOM     33  H   UNL     1       1.114  10.361  17.256  0.00  0.00    +0.000 HD
ENDBRANCH  29  32
ENDBRANCH  25  26
ENDBRANCH  24  25
ENDBRANCH  22  24
ENDBRANCH  21  22
ENDBRANCH  18  21
ENDBRANCH   1  18
TORSDOF 15
ENDMDL
MODEL 3
REMARK VINA RESULT:      -6.5      1.590      2.224
REMARK  Name = 
REMARK  16 active torsions:
REMARK  status: ('A' for Active; 'I' for Inactive)
REMARK    1  A    between atoms: C_1  and  C_2
REMARK    2  A    between atoms: C_2  and  C_3
REMARK    3  A    between atoms: C_3  and  C_4
REMARK    4  A    between atoms: C_4  and  C_5
REMARK    5  A    between atoms: C_5  and  C_6
REMARK    6  A    between atoms: N_8  and  C_9
REMARK    7  A    between atoms: C_12  and  O_13
REMARK    8  A    between atoms: O_13  and  C_14
REMARK    9  A    between atoms: C_14  and  C_15
REMARK   10  A    between atoms: C_15  and  O_16
REMARK   11  A    between atoms: C_15  and  C_17
REMARK   12  A    between atoms: C_17  and  N_18
REMARK   13  A    between atoms: N_18  and  C_19
REMARK   14  A    between atoms: C_19  and  C_20
REMARK   15  A    between atoms: C_20  and  C_21
REMARK   16  A    between atoms: C_24  and  O_25
REMARK                            x       y       z     vdW  Elec       q    Type
REMARK                         _______ _______ _______ _____ _____    ______ ____
ROOT
ATOM      1  C   UNL     1       2.150   5.111  21.164  0.00  0.00    +0.000 C 
ENDROOT
BRANCH   1   2
ATOM      2  O   UNL     1       2.790   5.690  20.012  0.00  0.00    +0.000 OA
BRANCH   2   6
ATOM      3  C   UNL     1       1.398   9.398  18.710  0.00  0.00    +0.000 A 
ATOM      4  C   UNL     1       1.184   9.021  20.035  0.00  0.00    +0.000 A 
ATOM      5  C   UNL     1       1.612   7.781  20.491  0.00  0.00    +0.000 A 
ATOM      6  C   UNL     1       2.283   6.909  19.635  0.00  0.00    +0.000 A 
ATOM      7  C   UNL     1       2.472   7.277  18.298  0.00  0.00    +0.000 A 
ATOM      8  C   UNL     1       1.996   8.507  17.823  0.00  0.00    +0.000 A 
BRANCH   3  11
ATOM      9  C   UNL     1       1.006  11.746  19.167  0.00  0.00    +0.000 C 
ATOM     10  O   UNL     1       1.488  11.731  20.296  0.00  0.00    +0.000 OA
ATOM     11  N   UNL     1       1.016  10.679  18.281  0.00  0.00    +0.000 N 
ATOM     12  H   UNL     1       1.093  10.895  17.296  0.00  0.00    +0.000 HD
BRANCH   9  13
ATOM     13  C   UNL     1       0.278  12.963  18.655  0.00  0.00    +0.000 C 
BRANCH  13  14
ATOM     14  C   UNL     1      -0.975  12.559  17.883  0.00  0.00    +0.000 C 
BRANCH  14  15
ATOM     15  C   UNL     1      -2.117  11.946  18.711  0.00  0.00    +0.000 C 
BRANCH  15  17
ATOM     16  C   UNL     1      -3.945  11.342  16.940  0.00  0.00    +0.000 C 
ATOM     17  C   UNL     1      -3.015  10.892  18.054  0.00  0.00    +0.000 C 
ENDBRANCH  15  17
ENDBRANCH  14  15
ENDBRANCH  13  14
ENDBRANCH   9  13
ENDBRANCH   3  11
ENDBRANCH   2   6
ENDBRANCH   1   2
BRANCH   1  18
ATOM     18  C   UNL     1       1.770   3.651  20.901  0.00  0.00    +0.000 C 
BRANCH  18  19
ATOM     19  O   UNL     1       0.452   3.592  20.342  0.00  0.00    +0.000 OA
ATOM     20  H   UNL     1       0.398   2.736  19.875  0.00  0.00    +0.000 HD
ENDBRANCH  18  19
BRANCH  18  21
ATOM     21  C   UNL     1       2.750   2.948  19.950  0.00  0.00    +0.000 C 
BRANCH  21  22
ATOM     22  N   UNL     1       2.173   2.703  18.624  0.00  0.00    +0.000 NA
ATOM     23  H   UNL     1       1.160   2.818  18.667  0.00  0.00    +0.000 HD
BRANCH  22  24
ATOM     24  C   UNL     1       2.705   3.613  17.603  0.00  0.00    +0.000 C 
BRANCH  24  25
ATOM     25  C   UNL     1       4.150   3.299  17.192  0.00  0.00    +0.000 C 
BRANCH  25  26
ATOM     26  C   UNL     1       5.019   4.534  17.223  0.00  0.00    +0.000 A 
ATOM     27  C   UNL     1       5.937   4.724  18.261  0.00  0.00    +0.000 A 
ATOM     28  C   UNL     1       6.745   5.862  18.288  0.00  0.00    +0.000 A 
ATOM     29  C   UNL     1       6.620   6.809  17.277  0.00  0.00    +0.000 A 
ATOM     30  C   UNL     1       5.702   6.643  16.249  0.00  0.00    +0.000 A 
ATOM     31  C   UNL     1       4.899   5.502  16.219  0.00  0.00    +0.000 A 
BRANCH  29  32
ATOM     32  O   UNL     1       7.386   7.932  17.261  0.00  0.00    +0.000 OA
ATOM     33  H   UNL     1       7.983   7.909  18.027  0.00  0.00    +0.000 HD
ENDBRANCH  29  32
ENDBRANCH  25  26
ENDBRANCH  24  25
ENDBRANCH  22  24
ENDBRANCH  21  22
ENDBRANCH  18  21
ENDBRANCH   1  18
TORSDOF 15
ENDMDL
MODEL 4
REMARK VINA RESULT:      -6.4      1.784      4.401
REMARK  Name = 
REMARK  16 active torsions:
REMARK  status: ('A' for Active; 'I' for Inactive)
REMARK    1  A    between atoms: C_1  and  C_2
REMARK    2  A    between atoms: C_2  and  C_3
REMARK    3  A    between atoms: C_3  and  C_4
REMARK    4  A    between atoms: C_4  and  C_5
REMARK    5  A    between atoms: C_5  and  C_6
REMARK    6  A    between atoms: N_8  and  C_9
REMARK    7  A    between atoms: C_12  and  O_13
REMARK    8  A    between atoms: O_13  and  C_14
REMARK    9  A    between atoms: C_14  and  C_15
REMARK   10  A    between atoms: C_15  and  O_16
REMARK   11  A    between atoms: C_15  and  C_17
REMARK   12  A    between atoms: C_17  and  N_18
REMARK   13  A    between atoms: N_18  and  C_19
REMARK   14  A    between atoms: C_19  and  C_20
REMARK   15  A    between atoms: C_20  and  C_21
REMARK   16  A    between atoms: C_24  and  O_25
REMARK                            x       y       z     vdW  Elec       q    Type
REMARK                         _______ _______ _______ _____ _____    ______ ____
ROOT
ATOM      1  C   UNL     1       4.649   6.981  16.691  0.00  0.00    +0.000 C 
ENDROOT
BRANCH   1   2
ATOM      2  O   UNL     1       3.846   6.522  17.793  0.00  0.00    +0.000 OA
BRANCH   2   6
ATOM      3  C   UNL     1       1.127   9.223  19.435  0.00  0.00    +0.000 A 
ATOM      4  C   UNL     1       1.701   9.507  18.197  0.00  0.00    +0.000 A 
ATOM      5  C   UNL     1       2.630   8.641  17.638  0.00  0.00    +0.000 A 
ATOM      6  C   UNL     1       2.981   7.462  18.296  0.00  0.00    +0.000 A 
ATOM      7  C   UNL     1       2.426   7.193  19.552  0.00  0.00    +0.000 A 
ATOM      8  C   UNL     1       1.526   8.091  20.142  0.00  0.00    +0.000 A 
BRANCH   3  11
ATOM      9  C   UNL     1      -0.951  10.447  19.190  0.00  0.00    +0.000 C 
ATOM     10  O   UNL     1      -1.261   9.945  18.114  0.00  0.00    +0.000 OA
ATOM     11  N   UNL     1       0.143  10.077  19.958  0.00  0.00    +0.000 N 
ATOM     12  H   UNL     1       0.043  10.132  20.963  0.00  0.00    +0.000 HD
BRANCH   9  13
ATOM     13  C   UNL     1      -1.738  11.601  19.757  0.00  0.00    +0.000 C 
BRANCH  13  14
ATOM     14  C   UNL     1      -0.874  12.856  19.842  0.00  0.00    +0.000 C 
BRANCH  14  15
ATOM     15  C   UNL     1      -0.264  13.353  18.521  0.00  0.00    +0.000 C 
BRANCH  15  17
ATOM     16  C   UNL     1       2.160  13.025  19.450  0.00  0.00    +0.000 C 
ATOM     17  C   UNL     1       1.218  13.743  18.497  0.00  0.00    +0.000 C 
ENDBRANCH  15  17
ENDBRANCH  14  15
ENDBRANCH  13  14
ENDBRANCH   9  13
ENDBRANCH   3  11
ENDBRANCH   2   6
ENDBRANCH   1   2
BRANCH   1  18
ATOM     18  C   UNL     1       6.058   6.384  16.756  0.00  0.00    +0.000 C 
BRANCH  18  19
ATOM     19  O   UNL     1       6.774   6.964  17.853  0.00  0.00    +0.000 OA
ATOM     20  H   UNL     1       7.231   6.223  18.295  0.00  0.00    +0.000 HD
ENDBRANCH  18  19
BRANCH  18  21
ATOM     21  C   UNL     1       6.045   4.857  16.917  0.00  0.00    +0.000 C 
BRANCH  21  22
ATOM     22  N   UNL     1       4.969   4.217  16.154  0.00  0.00    +0.000 NA
ATOM     23  H   UNL     1       5.352   3.813  15.298  0.00  0.00    +0.000 HD
BRANCH  22  24
ATOM     24  C   UNL     1       4.297   3.155  16.911  0.00  0.00    +0.000 C 
BRANCH  24  25
ATOM     25  C   UNL     1       2.799   3.411  17.132  0.00  0.00    +0.000 C 
BRANCH  25  26
ATOM     26  C   UNL     1       2.409   3.218  18.578  0.00  0.00    +0.000 A 
ATOM     27  C   UNL     1       3.330   2.695  19.492  0.00  0.00    +0.000 A 
ATOM     28  C   UNL     1       2.973   2.520  20.830  0.00  0.00    +0.000 A 
ATOM     29  C   UNL     1       1.689   2.864  21.242  0.00  0.00    +0.000 A 
ATOM     30  C   UNL     1       0.759   3.369  20.344  0.00  0.00    +0.000 A 
ATOM     31  C   UNL     1       1.118   3.549  19.007  0.00  0.00    +0.000 A 
BRANCH  29  32
ATOM     32  O   UNL     1       1.297   2.712  22.535  0.00  0.00    +0.000 OA
ATOM     33  H   UNL     1       1.556   1.825  22.834  0.00  0.00    +0.000 HD
ENDBRANCH  29  32
ENDBRANCH  25  26
ENDBRANCH  24  25
ENDBRANCH  22  24
ENDBRANCH  21  22
ENDBRANCH  18  21
ENDBRANCH   1  18
TORSDOF 15
ENDMDL
MODEL 5
REMARK VINA RESULT:      -6.4      3.559      7.234
REMARK  Name = 
REMARK  16 active torsions:
REMARK  status: ('A' for Active; 'I' for Inactive)
REMARK    1  A    between atoms: C_1  and  C_2
REMARK    2  A    between atoms: C_2  and  C_3
REMARK    3  A    between atoms: C_3  and  C_4
REMARK    4  A    between atoms: C_4  and  C_5
REMARK    5  A    between atoms: C_5  and  C_6
REMARK    6  A    between atoms: N_8  and  C_9
REMARK    7  A    between atoms: C_12  and  O_13
REMARK    8  A    between atoms: O_13  and  C_14
REMARK    9  A    between atoms: C_14  and  C_15
REMARK   10  A    between atoms: C_15  and  O_16
REMARK   11  A    between atoms: C_15  and  C_17
REMARK   12  A    between atoms: C_17  and  N_18
REMARK   13  A    between atoms: N_18  and  C_19
REMARK   14  A    between atoms: C_19  and  C_20
REMARK   15  A    between atoms: C_20  and  C_21
REMARK   16  A    between atoms: C_24  and  O_25
REMARK                            x       y       z     vdW  Elec       q    Type
REMARK                         _______ _______ _______ _____ _____    ______ ____
ROOT
ATOM      1  C   UNL     1       3.480   3.033  19.271  0.00  0.00    +0.000 C 
ENDROOT
BRANCH   1   2
ATOM      2  O   UNL     1       4.203   2.927  18.032  0.00  0.00    +0.000 OA
BRANCH   2   6
ATOM      3  C   UNL     1       6.369   6.396  17.220  0.00  0.00    +0.000 A 
ATOM      4  C   UNL     1       5.719   5.743  16.175  0.00  0.00    +0.000 A 
ATOM      5  C   UNL     1       5.013   4.571  16.409  0.00  0.00    +0.000 A 
ATOM      6  C   UNL     1       4.924   4.047  17.698  0.00  0.00    +0.000 A 
ATOM      7  C   UNL     1       5.602   4.688  18.742  0.00  0.00    +0.000 A 
ATOM      8  C   UNL     1       6.357   5.843  18.498  0.00  0.00    +0.000 A 
BRANCH   3  11
ATOM      9  C   UNL     1       7.979   8.089  17.868  0.00  0.00    +0.000 C 
ATOM     10  O   UNL     1       8.462   7.448  18.797  0.00  0.00    +0.000 OA
ATOM     11  N   UNL     1       7.027   7.613  16.979  0.00  0.00    +0.000 N 
ATOM     12  H   UNL     1       7.073   7.949  16.026  0.00  0.00    +0.000 HD
BRANCH   9  13
ATOM     13  C   UNL     1       8.355   9.532  17.650  0.00  0.00    +0.000 C 
BRANCH  13  14
ATOM     14  C   UNL     1       8.970  10.128  18.913  0.00  0.00    +0.000 C 
BRANCH  14  15
ATOM     15  C   UNL     1      10.176  11.060  18.709  0.00  0.00    +0.000 C 
BRANCH  15  17
ATOM     16  C   UNL     1       8.730  13.180  18.202  0.00  0.00    +0.000 C 
ATOM     17  C   UNL     1       9.966  12.572  18.842  0.00  0.00    +0.000 C 
ENDBRANCH  15  17
ENDBRANCH  14  15
ENDBRANCH  13  14
ENDBRANCH   9  13
ENDBRANCH   3  11
ENDBRANCH   2   6
ENDBRANCH   1   2
BRANCH   1  18
ATOM     18  C   UNL     1       2.002   3.338  19.017  0.00  0.00    +0.000 C 
BRANCH  18  19
ATOM     19  O   UNL     1       1.190   2.527  19.876  0.00  0.00    +0.000 OA
ATOM     20  H   UNL     1       1.707   1.715  20.043  0.00  0.00    +0.000 HD
ENDBRANCH  18  19
BRANCH  18  21
ATOM     21  C   UNL     1       1.655   4.816  19.249  0.00  0.00    +0.000 C 
BRANCH  21  22
ATOM     22  N   UNL     1       2.249   5.701  18.242  0.00  0.00    +0.000 NA
ATOM     23  H   UNL     1       1.540   5.958  17.554  0.00  0.00    +0.000 HD
BRANCH  22  24
ATOM     24  C   UNL     1       2.800   6.929  18.827  0.00  0.00    +0.000 C 
BRANCH  24  25
ATOM     25  C   UNL     1       2.015   8.194  18.450  0.00  0.00    +0.000 C 
BRANCH  25  26
ATOM     26  C   UNL     1       1.423   8.865  19.667  0.00  0.00    +0.000 A 
ATOM     27  C   UNL     1       0.842  10.133  19.558  0.00  0.00    +0.000 A 
ATOM     28  C   UNL     1       0.289  10.753  20.680  0.00  0.00    +0.000 A 
ATOM     29  C   UNL     1       0.330  10.100  21.907  0.00  0.00    +0.000 A 
ATOM     30  C   UNL     1       0.917   8.848  22.034  0.00  0.00    +0.000 A 
ATOM     31  C   UNL     1       1.464   8.226  20.911  0.00  0.00    +0.000 A 
BRANCH  29  32
ATOM     32  O   UNL     1      -0.197  10.664  23.026  0.00  0.00    +0.000 OA
ATOM     33  H   UNL     1       0.441  11.308  23.377  0.00  0.00    +0.000 HD
ENDBRANCH  29  32
ENDBRANCH  25  26
ENDBRANCH  24  25
ENDBRANCH  22  24
ENDBRANCH  21  22
ENDBRANCH  18  21
ENDBRANCH   1  18
TORSDOF 15
ENDMDL
MODEL 6
REMARK VINA RESULT:      -6.3      1.658      2.558
REMARK  Name = 
REMARK  16 active torsions:
REMARK  status: ('A' for Active; 'I' for Inactive)
REMARK    1  A    between atoms: C_1  and  C_2
REMARK    2  A    between atoms: C_2  and  C_3
REMARK    3  A    between atoms: C_3  and  C_4
REMARK    4  A    between atoms: C_4  and  C_5
REMARK    5  A    between atoms: C_5  and  C_6
REMARK    6  A    between atoms: N_8  and  C_9
REMARK    7  A    between atoms: C_12  and  O_13
REMARK    8  A    between atoms: O_13  and  C_14
REMARK    9  A    between atoms: C_14  and  C_15
REMARK   10  A    between atoms: C_15  and  O_16
REMARK   11  A    between atoms: C_15  and  C_17
REMARK   12  A    between atoms: C_17  and  N_18
REMARK   13  A    between atoms: N_18  and  C_19
REMARK   14  A    between atoms: C_19  and  C_20
REMARK   15  A    between atoms: C_20  and  C_21
REMARK   16  A    between atoms: C_24  and  O_25
REMARK                            x       y       z     vdW  Elec       q    Type
REMARK                         _______ _______ _______ _____ _____    ______ ____
ROOT
ATOM      1  C   UNL     1       2.274   5.096  21.219  0.00  0.00    +0.000 C 
ENDROOT
BRANCH   1   2
ATOM      2  O   UNL     1       2.812   5.555  19.967  0.00  0.00    +0.000 OA
BRANCH   2   6
ATOM      3  C   UNL     1       1.592   9.312  18.630  0.00  0.00    +0.000 A 
ATOM      4  C   UNL     1       1.205   8.885  19.899  0.00  0.00    +0.000 A 
ATOM      5  C   UNL     1       1.572   7.629  20.361  0.00  0.00    +0.000 A 
ATOM      6  C   UNL     1       2.355   6.788  19.570  0.00  0.00    +0.000 A 
ATOM      7  C   UNL     1       2.720   7.206  18.286  0.00  0.00    +0.000 A 
ATOM      8  C   UNL     1       2.307   8.454  17.798  0.00  0.00    +0.000 A 
BRANCH   3  11
ATOM      9  C   UNL     1       1.135  11.642  19.118  0.00  0.00    +0.000 C 
ATOM     10  O   UNL     1       1.463  11.584  20.300  0.00  0.00    +0.000 OA
ATOM     11  N   UNL     1       1.266  10.608  18.202  0.00  0.00    +0.000 N 
ATOM     12  H   UNL     1       1.471  10.861  17.245  0.00  0.00    +0.000 HD
BRANCH   9  13
ATOM     13  C   UNL     1       0.477  12.878  18.560  0.00  0.00    +0.000 C 
BRANCH  13  14
ATOM     14  C   UNL     1       1.364  14.103  18.764  0.00  0.00    +0.000 C 
BRANCH  14  15
ATOM     15  C   UNL     1       2.752  14.056  18.102  0.00  0.00    +0.000 C 
BRANCH  15  17
ATOM     16  C   UNL     1       4.674  15.813  18.347  0.00  0.00    +0.000 C 
ATOM     17  C   UNL     1       3.396  15.372  17.654  0.00  0.00    +0.000 C 
ENDBRANCH  15  17
ENDBRANCH  14  15
ENDBRANCH  13  14
ENDBRANCH   9  13
ENDBRANCH   3  11
ENDBRANCH   2   6
ENDBRANCH   1   2
BRANCH   1  18
ATOM     18  C   UNL     1       1.600   3.731  21.057  0.00  0.00    +0.000 C 
BRANCH  18  19
ATOM     19  O   UNL     1       0.462   3.858  20.196  0.00  0.00    +0.000 OA
ATOM     20  H   UNL     1       0.550   4.729  19.764  0.00  0.00    +0.000 HD
ENDBRANCH  18  19
BRANCH  18  21
ATOM     21  C   UNL     1       2.548   2.669  20.480  0.00  0.00    +0.000 C 
BRANCH  21  22
ATOM     22  N   UNL     1       2.606   2.698  19.016  0.00  0.00    +0.000 NA
ATOM     23  H   UNL     1       2.163   3.552  18.674  0.00  0.00    +0.000 HD
BRANCH  22  24
ATOM     24  C   UNL     1       3.981   2.650  18.506  0.00  0.00    +0.000 C 
BRANCH  24  25
ATOM     25  C   UNL     1       4.140   3.261  17.107  0.00  0.00    +0.000 C 
BRANCH  25  26
ATOM     26  C   UNL     1       4.999   4.504  17.136  0.00  0.00    +0.000 A 
ATOM     27  C   UNL     1       4.965   5.408  16.068  0.00  0.00    +0.000 A 
ATOM     28  C   UNL     1       5.754   6.559  16.096  0.00  0.00    +0.000 A 
ATOM     29  C   UNL     1       6.580   6.792  17.191  0.00  0.00    +0.000 A 
ATOM     30  C   UNL     1       6.636   5.896  18.249  0.00  0.00    +0.000 A 
ATOM     31  C   UNL     1       5.843   4.748  18.225  0.00  0.00    +0.000 A 
BRANCH  29  32
ATOM     32  O   UNL     1       7.365   7.900  17.261  0.00  0.00    +0.000 OA
ATOM     33  H   UNL     1       6.946   8.537  17.863  0.00  0.00    +0.000 HD
ENDBRANCH  29  32
ENDBRANCH  25  26
ENDBRANCH  24  25
ENDBRANCH  22  24
ENDBRANCH  21  22
ENDBRANCH  18  21
ENDBRANCH   1  18
TORSDOF 15
ENDMDL
MODEL 7
REMARK VINA RESULT:      -6.3      1.935      4.358
REMARK  Name = 
REMARK  16 active torsions:
REMARK  status: ('A' for Active; 'I' for Inactive)
REMARK    1  A    between atoms: C_1  and  C_2
REMARK    2  A    between atoms: C_2  and  C_3
REMARK    3  A    between atoms: C_3  and  C_4
REMARK    4  A    between atoms: C_4  and  C_5
REMARK    5  A    between atoms: C_5  and  C_6
REMARK    6  A    between atoms: N_8  and  C_9
REMARK    7  A    between atoms: C_12  and  O_13
REMARK    8  A    between atoms: O_13  and  C_14
REMARK    9  A    between atoms: C_14  and  C_15
REMARK   10  A    between atoms: C_15  and  O_16
REMARK   11  A    between atoms: C_15  and  C_17
REMARK   12  A    between atoms: C_17  and  N_18
REMARK   13  A    between atoms: N_18  and  C_19
REMARK   14  A    between atoms: C_19  and  C_20
REMARK   15  A    between atoms: C_20  and  C_21
REMARK   16  A    between atoms: C_24  and  O_25
REMARK                            x       y       z     vdW  Elec       q    Type
REMARK                         _______ _______ _______ _____ _____    ______ ____
ROOT
ATOM      1  C   UNL     1       4.136   7.601  17.427  0.00  0.00    +0.000 C 
ENDROOT
BRANCH   1   2
ATOM      2  O   UNL     1       3.090   6.941  18.161  0.00  0.00    +0.000 OA
BRANCH   2   6
ATOM      3  C   UNL     1       0.559   9.670  20.040  0.00  0.00    +0.000 A 
ATOM      4  C   UNL     1       1.102   8.625  20.785  0.00  0.00    +0.000 A 
ATOM      5  C   UNL     1       1.925   7.685  20.181  0.00  0.00    +0.000 A 
ATOM      6  C   UNL     1       2.241   7.790  18.827  0.00  0.00    +0.000 A 
ATOM      7  C   UNL     1       1.673   8.823  18.074  0.00  0.00    +0.000 A 
ATOM      8  C   UNL     1       0.800   9.744  18.670  0.00  0.00    +0.000 A 
BRANCH   3  11
ATOM      9  C   UNL     1       0.372  11.767  21.242  0.00  0.00    +0.000 C 
ATOM     10  O   UNL     1       1.543  12.102  21.083  0.00  0.00    +0.000 OA
ATOM     11  N   UNL     1      -0.221  10.648  20.677  0.00  0.00    +0.000 N 
ATOM     12  H   UNL     1      -1.198  10.720  20.424  0.00  0.00    +0.000 HD
BRANCH   9  13
ATOM     13  C   UNL     1      -0.536  12.549  22.156  0.00  0.00    +0.000 C 
BRANCH  13  14
ATOM     14  C   UNL     1      -1.647  11.659  22.707  0.00  0.00    +0.000 C 
BRANCH  14  15
ATOM     15  C   UNL     1      -3.050  12.285  22.773  0.00  0.00    +0.000 C 
BRANCH  15  17
ATOM     16  C   UNL     1      -5.175  12.899  24.170  0.00  0.00    +0.000 C 
ATOM     17  C   UNL     1      -3.746  12.385  24.135  0.00  0.00    +0.000 C 
ENDBRANCH  15  17
ENDBRANCH  14  15
ENDBRANCH  13  14
ENDBRANCH   9  13
ENDBRANCH   3  11
ENDBRANCH   2   6
ENDBRANCH   1   2
BRANCH   1  18
ATOM     18  C   UNL     1       5.259   6.621  17.075  0.00  0.00    +0.000 C 
BRANCH  18  19
ATOM     19  O   UNL     1       5.743   5.998  18.270  0.00  0.00    +0.000 OA
ATOM     20  H   UNL     1       5.615   5.038  18.142  0.00  0.00    +0.000 HD
ENDBRANCH  18  19
BRANCH  18  21
ATOM     21  C   UNL     1       4.805   5.533  16.091  0.00  0.00    +0.000 C 
BRANCH  21  22
ATOM     22  N   UNL     1       5.509   4.262  16.289  0.00  0.00    +0.000 NA
ATOM     23  H   UNL     1       6.418   4.440  16.717  0.00  0.00    +0.000 HD
BRANCH  22  24
ATOM     24  C   UNL     1       4.763   3.334  17.147  0.00  0.00    +0.000 C 
BRANCH  24  25
ATOM     25  C   UNL     1       3.261   3.643  17.225  0.00  0.00    +0.000 C 
BRANCH  25  26
ATOM     26  C   UNL     1       2.714   3.398  18.612  0.00  0.00    +0.000 A 
ATOM     27  C   UNL     1       1.448   3.880  18.965  0.00  0.00    +0.000 A 
ATOM     28  C   UNL     1       0.939   3.650  20.244  0.00  0.00    +0.000 A 
ATOM     29  C   UNL     1       1.707   2.946  21.166  0.00  0.00    +0.000 A 
ATOM     30  C   UNL     1       2.970   2.476  20.836  0.00  0.00    +0.000 A 
ATOM     31  C   UNL     1       3.477   2.700  19.555  0.00  0.00    +0.000 A 
BRANCH  29  32
ATOM     32  O   UNL     1       1.251   2.698  22.422  0.00  0.00    +0.000 OA
ATOM     33  H   UNL     1       0.326   2.409  22.364  0.00  0.00    +0.000 HD
ENDBRANCH  29  32
ENDBRANCH  25  26
ENDBRANCH  24  25
ENDBRANCH  22  24
ENDBRANCH  21  22
ENDBRANCH  18  21
ENDBRANCH   1  18
TORSDOF 15
ENDMDL
MODEL 8
REMARK VINA RESULT:      -6.2      3.020      8.874
REMARK  Name = 
REMARK  16 active torsions:
REMARK  status: ('A' for Active; 'I' for Inactive)
REMARK    1  A    between atoms: C_1  and  C_2
REMARK    2  A    between atoms: C_2  and  C_3
REMARK    3  A    between atoms: C_3  and  C_4
REMARK    4  A    between atoms: C_4  and  C_5
REMARK    5  A    between atoms: C_5  and  C_6
REMARK    6  A    between atoms: N_8  and  C_9
REMARK    7  A    between atoms: C_12  and  O_13
REMARK    8  A    between atoms: O_13  and  C_14
REMARK    9  A    between atoms: C_14  and  C_15
REMARK   10  A    between atoms: C_15  and  O_16
REMARK   11  A    between atoms: C_15  and  C_17
REMARK   12  A    between atoms: C_17  and  N_18
REMARK   13  A    between atoms: N_18  and  C_19
REMARK   14  A    between atoms: C_19  and  C_20
REMARK   15  A    between atoms: C_20  and  C_21
REMARK   16  A    between atoms: C_24  and  O_25
REMARK                            x       y       z     vdW  Elec       q    Type
REMARK                         _______ _______ _______ _____ _____    ______ ____
ROOT
ATOM      1  C   UNL     1       0.942  10.631  21.477  0.00  0.00    +0.000 C 
ENDROOT
BRANCH   1   2
ATOM      2  O   UNL     1       0.833  10.354  20.070  0.00  0.00    +0.000 OA
BRANCH   2   6
ATOM      3  C   UNL     1       2.337   6.710  18.713  0.00  0.00    +0.000 A 
ATOM      4  C   UNL     1       2.022   6.853  20.063  0.00  0.00    +0.000 A 
ATOM      5  C   UNL     1       1.545   8.062  20.550  0.00  0.00    +0.000 A 
ATOM      6  C   UNL     1       1.352   9.142  19.688  0.00  0.00    +0.000 A 
ATOM      7  C   UNL     1       1.695   9.005  18.339  0.00  0.00    +0.000 A 
ATOM      8  C   UNL     1       2.225   7.801  17.855  0.00  0.00    +0.000 A 
BRANCH   3  11
ATOM      9  C   UNL     1       4.073   5.049  18.387  0.00  0.00    +0.000 C 
ATOM     10  O   UNL     1       4.905   5.603  19.100  0.00  0.00    +0.000 OA
ATOM     11  N   UNL     1       2.759   5.463  18.225  0.00  0.00    +0.000 N 
ATOM     12  H   UNL     1       2.061   4.744  18.086  0.00  0.00    +0.000 HD
BRANCH   9  13
ATOM     13  C   UNL     1       4.450   3.857  17.545  0.00  0.00    +0.000 C 
BRANCH  13  14
ATOM     14  C   UNL     1       3.921   2.567  18.166  0.00  0.00    +0.000 C 
BRANCH  14  15
ATOM     15  C   UNL     1       2.537   2.099  17.687  0.00  0.00    +0.000 C 
BRANCH  15  17
ATOM     16  C   UNL     1       1.625   2.544  20.099  0.00  0.00    +0.000 C 
ATOM     17  C   UNL     1       1.342   2.253  18.634  0.00  0.00    +0.000 C 
ENDBRANCH  15  17
ENDBRANCH  14  15
ENDBRANCH  13  14
ENDBRANCH   9  13
ENDBRANCH   3  11
ENDBRANCH   2   6
ENDBRANCH   1   2
BRANCH   1  18
ATOM     18  C   UNL     1      -0.418  10.492  22.168  0.00  0.00    +0.000 C 
BRANCH  18  19
ATOM     19  O   UNL     1      -0.225  10.364  23.582  0.00  0.00    +0.000 OA
ATOM     20  H   UNL     1       0.209  11.191  23.868  0.00  0.00    +0.000 HD
ENDBRANCH  18  19
BRANCH  18  21
ATOM     21  C   UNL     1      -1.344  11.686  21.894  0.00  0.00    +0.000 C 
BRANCH  21  22
ATOM     22  N   UNL     1      -1.316  12.114  20.492  0.00  0.00    +0.000 NA
ATOM     23  H   UNL     1      -1.306  11.293  19.886  0.00  0.00    +0.000 HD
BRANCH  22  24
ATOM     24  C   UNL     1      -2.472  12.944  20.134  0.00  0.00    +0.000 C 
BRANCH  24  25
ATOM     25  C   UNL     1      -3.688  12.133  19.662  0.00  0.00    +0.000 C 
BRANCH  25  26
ATOM     26  C   UNL     1      -3.444  11.499  18.313  0.00  0.00    +0.000 A 
ATOM     27  C   UNL     1      -2.275  10.765  18.081  0.00  0.00    +0.000 A 
ATOM     28  C   UNL     1      -2.051  10.173  16.837  0.00  0.00    +0.000 A 
ATOM     29  C   UNL     1      -2.997  10.329  15.829  0.00  0.00    +0.000 A 
ATOM     30  C   UNL     1      -4.152  11.068  16.039  0.00  0.00    +0.000 A 
ATOM     31  C   UNL     1      -4.380  11.655  17.285  0.00  0.00    +0.000 A 
BRANCH  29  32
ATOM     32  O   UNL     1      -2.821   9.770  14.602  0.00  0.00    +0.000 OA
ATOM     33  H   UNL     1      -2.142  10.278  14.126  0.00  0.00    +0.000 HD
ENDBRANCH  29  32
ENDBRANCH  25  26
ENDBRANCH  24  25
ENDBRANCH  22  24
ENDBRANCH  21  22
ENDBRANCH  18  21
ENDBRANCH   1  18
TORSDOF 15
ENDMDL
MODEL 9
REMARK VINA RESULT:      -6.2      4.337      6.136
REMARK  Name = 
REMARK  16 active torsions:
REMARK  status: ('A' for Active; 'I' for Inactive)
REMARK    1  A    between atoms: C_1  and  C_2
REMARK    2  A    between atoms: C_2  and  C_3
REMARK    3  A    between atoms: C_3  and  C_4
REMARK    4  A    between atoms: C_4  and  C_5
REMARK    5  A    between atoms: C_5  and  C_6
REMARK    6  A    between atoms: N_8  and  C_9
REMARK    7  A    between atoms: C_12  and  O_13
REMARK    8  A    between atoms: O_13  and  C_14
REMARK    9  A    between atoms: C_14  and  C_15
REMARK   10  A    between atoms: C_15  and  O_16
REMARK   11  A    between atoms: C_15  and  C_17
REMARK   12  A    between atoms: C_17  and  N_18
REMARK   13  A    between atoms: N_18  and  C_19
REMARK   14  A    between atoms: C_19  and  C_20
REMARK   15  A    between atoms: C_20  and  C_21
REMARK   16  A    between atoms: C_24  and  O_25
REMARK                            x       y       z     vdW  Elec       q    Type
REMARK                         _______ _______ _______ _____ _____    ______ ____
ROOT
ATOM      1  C   UNL     1       6.796   5.007  16.236  0.00  0.00    +0.000 C 
ENDROOT
BRANCH   1   2
ATOM      2  O   UNL     1       5.445   4.517  16.184  0.00  0.00    +0.000 OA
BRANCH   2   6
ATOM      3  C   UNL     1       2.890   6.747  18.610  0.00  0.00    +0.000 A 
ATOM      4  C   UNL     1       2.952   5.365  18.780  0.00  0.00    +0.000 A 
ATOM      5  C   UNL     1       3.772   4.593  17.969  0.00  0.00    +0.000 A 
ATOM      6  C   UNL     1       4.564   5.194  16.991  0.00  0.00    +0.000 A 
ATOM      7  C   UNL     1       4.479   6.578  16.802  0.00  0.00    +0.000 A 
ATOM      8  C   UNL     1       3.614   7.353  17.586  0.00  0.00    +0.000 A 
BRANCH   3  11
ATOM      9  C   UNL     1       1.484   8.677  19.028  0.00  0.00    +0.000 C 
ATOM     10  O   UNL     1       1.398   9.021  17.852  0.00  0.00    +0.000 OA
ATOM     11  N   UNL     1       2.103   7.521  19.478  0.00  0.00    +0.000 N 
ATOM     12  H   UNL     1       1.707   7.071  20.292  0.00  0.00    +0.000 HD
BRANCH   9  13
ATOM     13  C   UNL     1       0.952   9.558  20.129  0.00  0.00    +0.000 C 
BRANCH  13  14
ATOM     14  C   UNL     1       0.528  10.917  19.578  0.00  0.00    +0.000 C 
BRANCH  14  15
ATOM     15  C   UNL     1      -0.880  10.995  18.965  0.00  0.00    +0.000 C 
BRANCH  15  17
ATOM     16  C   UNL     1      -0.438  13.504  18.373  0.00  0.00    +0.000 C 
ATOM     17  C   UNL     1      -1.428  12.366  18.556  0.00  0.00    +0.000 C 
ENDBRANCH  15  17
ENDBRANCH  14  15
ENDBRANCH  13  14
ENDBRANCH   9  13
ENDBRANCH   3  11
ENDBRANCH   2   6
ENDBRANCH   1   2
BRANCH   1  18
ATOM     18  C   UNL     1       7.328   4.989  17.672  0.00  0.00    +0.000 C 
BRANCH  18  19
ATOM     19  O   UNL     1       8.392   4.035  17.777  0.00  0.00    +0.000 OA
ATOM     20  H   UNL     1       8.528   3.687  16.875  0.00  0.00    +0.000 HD
ENDBRANCH  18  19
BRANCH  18  21
ATOM     21  C   UNL     1       7.840   6.363  18.130  0.00  0.00    +0.000 C 
BRANCH  21  22
ATOM     22  N   UNL     1       7.672   7.398  17.106  0.00  0.00    +0.000 NA
ATOM     23  H   UNL     1       6.752   7.304  16.674  0.00  0.00    +0.000 HD
BRANCH  22  24
ATOM     24  C   UNL     1       7.794   8.755  17.653  0.00  0.00    +0.000 C 
BRANCH  24  25
ATOM     25  C   UNL     1       8.732   8.846  18.865  0.00  0.00    +0.000 C 
BRANCH  25  26
ATOM     26  C   UNL     1       9.241  10.254  19.071  0.00  0.00    +0.000 A 
ATOM     27  C   UNL     1       9.384  11.117  17.979  0.00  0.00    +0.000 A 
ATOM     28  C   UNL     1       9.848  12.419  18.167  0.00  0.00    +0.000 A 
ATOM     29  C   UNL     1      10.176  12.846  19.450  0.00  0.00    +0.000 A 
ATOM     30  C   UNL     1      10.055  11.996  20.541  0.00  0.00    +0.000 A 
ATOM     31  C   UNL     1       9.585  10.695  20.353  0.00  0.00    +0.000 A 
BRANCH  29  32
ATOM     32  O   UNL     1      10.632  14.106  19.681  0.00  0.00    +0.000 OA
ATOM     33  H   UNL     1      10.165  14.716  19.087  0.00  0.00    +0.000 HD
ENDBRANCH  29  32
ENDBRANCH  25  26
ENDBRANCH  24  25
ENDBRANCH  22  24
ENDBRANCH  21  22
ENDBRANCH  18  21
ENDBRANCH   1  18
TORSDOF 15
ENDMDL
