MODEL 1
REMARK VINA RESULT:      -7.4      0.000      0.000
REMARK  Name = 
REMARK  12 active torsions:
REMARK  status: ('A' for Active; 'I' for Inactive)
REMARK    1  A    between atoms: C_1  and  C_2
REMARK    2  A    between atoms: C_2  and  C_3
REMARK    3  A    between atoms: C_3  and  C_4
REMARK    4  A    between atoms: C_4  and  N_5
REMARK    5  A    between atoms: C_6  and  C_7
REMARK    6  A    between atoms: C_10  and  N_11
REMARK    7  A    between atoms: N_11  and  S_12
REMARK    8  A    between atoms: S_12  and  C_13
REMARK    9  A    between atoms: C_21  and  O_22
REMARK   10  A    between atoms: O_22  and  C_23
REMARK   11  A    between atoms: C_24  and  O_25
REMARK   12  A    between atoms: O_25  and  C_26
REMARK                            x       y       z     vdW  Elec       q    Type
REMARK                         _______ _______ _______ _____ _____    ______ ____
ROOT
ATOM      1  N   UNL     1       3.330   5.655  19.131  0.00  0.00    +0.000 N 
ATOM      2  C   UNL     1       3.649   6.215  17.884  0.00  0.00    +0.000 A 
ATOM      3  N   UNL     1       3.257   7.403  17.533  0.00  0.00    +0.000 NA
ATOM      4  C   UNL     1       2.448   8.154  18.394  0.00  0.00    +0.000 A 
ATOM      5  C   UNL     1       2.050   9.438  18.005  0.00  0.00    +0.000 A 
ATOM      6  C   UNL     1       1.174  10.210  18.792  0.00  0.00    +0.000 A 
ATOM      7  C   UNL     1       0.703   9.673  20.004  0.00  0.00    +0.000 A 
ATOM      8  C   UNL     1       1.142   8.406  20.411  0.00  0.00    +0.000 A 
ATOM      9  C   UNL     1       2.007   7.660  19.605  0.00  0.00    +0.000 A 
ATOM     10  C   UNL     1       2.491   6.343  20.027  0.00  0.00    +0.000 A 
ATOM     11  O   UNL     1       2.154   5.919  21.129  0.00  0.00    +0.000 OA
ENDROOT
BRANCH   2  12
ATOM     12  C   UNL     1       4.523   5.492  16.891  0.00  0.00    +0.000 A 
ATOM     13  C   UNL     1       5.450   6.133  16.063  0.00  0.00    +0.000 A 
ATOM     14  C   UNL     1       6.108   5.425  15.051  0.00  0.00    +0.000 A 
ATOM     15  C   UNL     1       5.916   4.053  14.922  0.00  0.00    +0.000 A 
ATOM     16  C   UNL     1       5.107   3.375  15.827  0.00  0.00    +0.000 A 
ATOM     17  C   UNL     1       4.402   4.095  16.799  0.00  0.00    +0.000 A 
BRANCH  15  18
ATOM     18  N   UNL     1       6.615   3.350  13.899  0.00  0.00    +0.000 N 
ATOM     19  H   UNL     1       7.633   3.451  13.912  0.00  0.00    +0.000 HD
BRANCH  18  20
ATOM     20  S   UNL     1       6.065   3.539  12.309  0.00  0.00    +0.000 S 
ATOM     21  C   UNL     1       6.428   1.945  11.611  0.00  0.00    +0.000 C 
ATOM     22  O   UNL     1       4.637   3.753  12.306  0.00  0.00    +0.000 OA
ATOM     23  O   UNL     1       6.966   4.497  11.707  0.00  0.00    +0.000 OA
ENDBRANCH  18  20
ENDBRANCH  15  18
ENDBRANCH   2  12
BRANCH   6  24
ATOM     24  O   UNL     1       0.754  11.461  18.434  0.00  0.00    +0.000 OA
ATOM     25  C   UNL     1       1.562  12.577  18.780  0.00  0.00    +0.000 C 
ENDBRANCH   6  24
BRANCH   7  26
ATOM     26  O   UNL     1      -0.167  10.224  20.908  0.00  0.00    +0.000 OA
ATOM     27  C   UNL     1      -0.087   9.839  22.271  0.00  0.00    +0.000 C 
ENDBRANCH   7  26
BRANCH   1  28
ATOM     28  C   UNL     1       3.861   4.385  19.656  0.00  0.00    +0.000 C 
BRANCH  28  29
ATOM     29  C   UNL     1       2.833   3.249  19.668  0.00  0.00    +0.000 C 
BRANCH  29  31
ATOM     30  C   UNL     1       1.426   2.679  21.665  0.00  0.00    +0.000 C 
ATOM     31  C   UNL     1       2.800   2.555  21.026  0.00  0.00    +0.000 C 
ENDBRANCH  29  31
ENDBRANCH  28  29
ENDBRANCH   1  28
TORSDOF 8
ENDMDL
MODEL 2
REMARK VINA RESULT:      -7.4      0.826      1.305
REMARK  Name = 
REMARK  12 active torsions:
REMARK  status: ('A' for Active; 'I' for Inactive)
REMARK    1  A    between atoms: C_1  and  C_2
REMARK    2  A    between atoms: C_2  and  C_3
REMARK    3  A    between atoms: C_3  and  C_4
REMARK    4  A    between atoms: C_4  and  N_5
REMARK    5  A    between atoms: C_6  and  C_7
REMARK    6  A    between atoms: C_10  and  N_11
REMARK    7  A    between atoms: N_11  and  S_12
REMARK    8  A    between atoms: S_12  and  C_13
REMARK    9  A    between atoms: C_21  and  O_22
REMARK   10  A    between atoms: O_22  and  C_23
REMARK   11  A    between atoms: C_24  and  O_25
REMARK   12  A    between atoms: O_25  and  C_26
REMARK                            x       y       z     vdW  Elec       q    Type
REMARK                         _______ _______ _______ _____ _____    ______ ____
ROOT
ATOM      1  N   UNL     1       3.359   5.248  19.198  0.00  0.00    +0.000 N 
ATOM      2  C   UNL     1       3.530   5.868  17.950  0.00  0.00    +0.000 A 
ATOM      3  N   UNL     1       3.083   7.062  17.698  0.00  0.00    +0.000 NA
ATOM      4  C   UNL     1       2.364   7.759  18.677  0.00  0.00    +0.000 A 
ATOM      5  C   UNL     1       1.907   9.051  18.393  0.00  0.00    +0.000 A 
ATOM      6  C   UNL     1       1.112   9.770  19.306  0.00  0.00    +0.000 A 
ATOM      7  C   UNL     1       0.786   9.172  20.537  0.00  0.00    +0.000 A 
ATOM      8  C   UNL     1       1.287   7.897  20.835  0.00  0.00    +0.000 A 
ATOM      9  C   UNL     1       2.068   7.204  19.906  0.00  0.00    +0.000 A 
ATOM     10  C   UNL     1       2.616   5.880  20.211  0.00  0.00    +0.000 A 
ATOM     11  O   UNL     1       2.409   5.402  21.323  0.00  0.00    +0.000 OA
ENDROOT
BRANCH   2  12
ATOM     12  C   UNL     1       4.299   5.207  16.835  0.00  0.00    +0.000 A 
ATOM     13  C   UNL     1       4.279   3.831  16.589  0.00  0.00    +0.000 A 
ATOM     14  C   UNL     1       5.142   3.265  15.644  0.00  0.00    +0.000 A 
ATOM     15  C   UNL     1       5.962   4.081  14.870  0.00  0.00    +0.000 A 
ATOM     16  C   UNL     1       5.891   5.463  15.003  0.00  0.00    +0.000 A 
ATOM     17  C   UNL     1       5.072   6.023  15.992  0.00  0.00    +0.000 A 
BRANCH  15  18
ATOM     18  N   UNL     1       6.815   3.484  13.899  0.00  0.00    +0.000 N 
ATOM     19  H   UNL     1       7.806   3.728  13.974  0.00  0.00    +0.000 HD
BRANCH  18  20
ATOM     20  S   UNL     1       6.344   3.592  12.277  0.00  0.00    +0.000 S 
ATOM     21  C   UNL     1       6.868   2.015  11.645  0.00  0.00    +0.000 C 
ATOM     22  O   UNL     1       4.906   3.693  12.189  0.00  0.00    +0.000 OA
ATOM     23  O   UNL     1       7.202   4.603  11.699  0.00  0.00    +0.000 OA
ENDBRANCH  18  20
ENDBRANCH  15  18
ENDBRANCH   2  12
BRANCH   6  24
ATOM     24  O   UNL     1       0.636  11.026  19.054  0.00  0.00    +0.000 OA
ATOM     25  C   UNL     1      -0.685  11.167  18.548  0.00  0.00    +0.000 C 
ENDBRANCH   6  24
BRANCH   7  26
ATOM     26  O   UNL     1       0.013   9.666  21.555  0.00  0.00    +0.000 OA
ATOM     27  C   UNL     1       0.298   9.280  22.890  0.00  0.00    +0.000 C 
ENDBRANCH   7  26
BRANCH   1  28
ATOM     28  C   UNL     1       3.965   3.968  19.603  0.00  0.00    +0.000 C 
BRANCH  28  29
ATOM     29  C   UNL     1       2.937   2.903  20.003  0.00  0.00    +0.000 C 
BRANCH  29  31
ATOM     30  C   UNL     1       0.761   2.462  18.835  0.00  0.00    +0.000 C 
ATOM     31  C   UNL     1       2.271   2.295  18.772  0.00  0.00    +0.000 C 
ENDBRANCH  29  31
ENDBRANCH  28  29
ENDBRANCH   1  28
TORSDOF 8
ENDMDL
MODEL 3
REMARK VINA RESULT:      -7.3      3.796      7.074
REMARK  Name = 
REMARK  12 active torsions:
REMARK  status: ('A' for Active; 'I' for Inactive)
REMARK    1  A    between atoms: C_1  and  C_2
REMARK    2  A    between atoms: C_2  and  C_3
REMARK    3  A    between atoms: C_3  and  C_4
REMARK    4  A    between atoms: C_4  and  N_5
REMARK    5  A    between atoms: C_6  and  C_7
REMARK    6  A    between atoms: C_10  and  N_11
REMARK    7  A    between atoms: N_11  and  S_12
REMARK    8  A    between atoms: S_12  and  C_13
REMARK    9  A    between atoms: C_21  and  O_22
REMARK   10  A    between atoms: O_22  and  C_23
REMARK   11  A    between atoms: C_24  and  O_25
REMARK   12  A    between atoms: O_25  and  C_26
REMARK                            x       y       z     vdW  Elec       q    Type
REMARK                         _______ _______ _______ _____ _____    ______ ____
ROOT
ATOM      1  N   UNL     1      -0.451  11.241  18.749  0.00  0.00    +0.000 N 
ATOM      2  C   UNL     1       0.904  10.915  18.920  0.00  0.00    +0.000 A 
ATOM      3  N   UNL     1       1.818  11.818  19.114  0.00  0.00    +0.000 NA
ATOM      4  C   UNL     1       1.471  13.174  19.113  0.00  0.00    +0.000 A 
ATOM      5  C   UNL     1       2.467  14.130  19.342  0.00  0.00    +0.000 A 
ATOM      6  C   UNL     1       2.194  15.510  19.275  0.00  0.00    +0.000 A 
ATOM      7  C   UNL     1       0.884  15.928  18.983  0.00  0.00    +0.000 A 
ATOM      8  C   UNL     1      -0.120  14.966  18.802  0.00  0.00    +0.000 A 
ATOM      9  C   UNL     1       0.182  13.603  18.868  0.00  0.00    +0.000 A 
ATOM     10  C   UNL     1      -0.860  12.586  18.701  0.00  0.00    +0.000 A 
ATOM     11  O   UNL     1      -2.020  12.955  18.543  0.00  0.00    +0.000 OA
ENDROOT
BRANCH   2  12
ATOM     12  C   UNL     1       1.378   9.484  18.949  0.00  0.00    +0.000 A 
ATOM     13  C   UNL     1       1.339   8.677  20.089  0.00  0.00    +0.000 A 
ATOM     14  C   UNL     1       1.946   7.416  20.089  0.00  0.00    +0.000 A 
ATOM     15  C   UNL     1       2.511   6.914  18.921  0.00  0.00    +0.000 A 
ATOM     16  C   UNL     1       2.433   7.645  17.740  0.00  0.00    +0.000 A 
ATOM     17  C   UNL     1       1.881   8.932  17.758  0.00  0.00    +0.000 A 
BRANCH  15  18
ATOM     18  N   UNL     1       3.102   5.618  18.939  0.00  0.00    +0.000 N 
ATOM     19  H   UNL     1       3.890   5.485  18.301  0.00  0.00    +0.000 HD
BRANCH  18  20
ATOM     20  S   UNL     1       2.064   4.287  18.815  0.00  0.00    +0.000 S 
ATOM     21  C   UNL     1       3.219   2.941  18.691  0.00  0.00    +0.000 C 
ATOM     22  O   UNL     1       1.293   4.150  20.029  0.00  0.00    +0.000 OA
ATOM     23  O   UNL     1       1.416   4.429  17.530  0.00  0.00    +0.000 OA
ENDBRANCH  18  20
ENDBRANCH  15  18
ENDBRANCH   2  12
BRANCH   6  24
ATOM     24  O   UNL     1       3.147  16.470  19.478  0.00  0.00    +0.000 OA
ATOM     25  C   UNL     1       4.278  16.502  18.617  0.00  0.00    +0.000 C 
ENDBRANCH   6  24
BRANCH   7  26
ATOM     26  O   UNL     1       0.398  17.202  18.842  0.00  0.00    +0.000 OA
ATOM     27  C   UNL     1      -0.346  17.535  17.681  0.00  0.00    +0.000 C 
ENDBRANCH   7  26
BRANCH   1  28
ATOM     28  C   UNL     1      -1.557  10.271  18.675  0.00  0.00    +0.000 C 
BRANCH  28  29
ATOM     29  C   UNL     1      -1.778   9.698  17.271  0.00  0.00    +0.000 C 
BRANCH  29  31
ATOM     30  C   UNL     1      -3.058  10.863  15.454  0.00  0.00    +0.000 C 
ATOM     31  C   UNL     1      -3.163  10.063  16.743  0.00  0.00    +0.000 C 
ENDBRANCH  29  31
ENDBRANCH  28  29
ENDBRANCH   1  28
TORSDOF 8
ENDMDL
MODEL 4
REMARK VINA RESULT:      -7.3      4.063      8.998
REMARK  Name = 
REMARK  12 active torsions:
REMARK  status: ('A' for Active; 'I' for Inactive)
REMARK    1  A    between atoms: C_1  and  C_2
REMARK    2  A    between atoms: C_2  and  C_3
REMARK    3  A    between atoms: C_3  and  C_4
REMARK    4  A    between atoms: C_4  and  N_5
REMARK    5  A    between atoms: C_6  and  C_7
REMARK    6  A    between atoms: C_10  and  N_11
REMARK    7  A    between atoms: N_11  and  S_12
REMARK    8  A    between atoms: S_12  and  C_13
REMARK    9  A    between atoms: C_21  and  O_22
REMARK   10  A    between atoms: O_22  and  C_23
REMARK   11  A    between atoms: C_24  and  O_25
REMARK   12  A    between atoms: O_25  and  C_26
REMARK                            x       y       z     vdW  Elec       q    Type
REMARK                         _______ _______ _______ _____ _____    ______ ____
ROOT
ATOM      1  N   UNL     1       1.235   8.224  20.125  0.00  0.00    +0.000 N 
ATOM      2  C   UNL     1       1.576   9.062  19.050  0.00  0.00    +0.000 A 
ATOM      3  N   UNL     1       2.394   8.691  18.111  0.00  0.00    +0.000 NA
ATOM      4  C   UNL     1       3.005   7.433  18.174  0.00  0.00    +0.000 A 
ATOM      5  C   UNL     1       3.869   7.045  17.143  0.00  0.00    +0.000 A 
ATOM      6  C   UNL     1       4.573   5.826  17.190  0.00  0.00    +0.000 A 
ATOM      7  C   UNL     1       4.386   4.979  18.296  0.00  0.00    +0.000 A 
ATOM      8  C   UNL     1       3.484   5.350  19.302  0.00  0.00    +0.000 A 
ATOM      9  C   UNL     1       2.804   6.570  19.232  0.00  0.00    +0.000 A 
ATOM     10  C   UNL     1       1.842   6.963  20.265  0.00  0.00    +0.000 A 
ATOM     11  O   UNL     1       1.610   6.178  21.180  0.00  0.00    +0.000 OA
ENDROOT
BRANCH   2  12
ATOM     12  C   UNL     1       0.965  10.429  18.886  0.00  0.00    +0.000 A 
ATOM     13  C   UNL     1       1.711  11.610  18.821  0.00  0.00    +0.000 A 
ATOM     14  C   UNL     1       1.074  12.856  18.835  0.00  0.00    +0.000 A 
ATOM     15  C   UNL     1      -0.316  12.928  18.814  0.00  0.00    +0.000 A 
ATOM     16  C   UNL     1      -1.072  11.765  18.734  0.00  0.00    +0.000 A 
ATOM     17  C   UNL     1      -0.434  10.519  18.784  0.00  0.00    +0.000 A 
BRANCH  15  18
ATOM     18  N   UNL     1      -0.942  14.208  18.804  0.00  0.00    +0.000 N 
ATOM     19  H   UNL     1      -0.550  14.884  18.143  0.00  0.00    +0.000 HD
BRANCH  18  20
ATOM     20  S   UNL     1      -1.176  14.972  20.296  0.00  0.00    +0.000 S 
ATOM     21  C   UNL     1      -2.683  14.214  20.855  0.00  0.00    +0.000 C 
ATOM     22  O   UNL     1      -0.100  14.629  21.198  0.00  0.00    +0.000 OA
ATOM     23  O   UNL     1      -1.472  16.351  19.975  0.00  0.00    +0.000 OA
ENDBRANCH  18  20
ENDBRANCH  15  18
ENDBRANCH   2  12
BRANCH   6  24
ATOM     24  O   UNL     1       5.436   5.425  16.208  0.00  0.00    +0.000 OA
ATOM     25  C   UNL     1       6.824   5.686  16.370  0.00  0.00    +0.000 C 
ENDBRANCH   6  24
BRANCH   7  26
ATOM     26  O   UNL     1       4.979   3.772  18.565  0.00  0.00    +0.000 OA
ATOM     27  C   UNL     1       4.345   2.874  19.461  0.00  0.00    +0.000 C 
ENDBRANCH   7  26
BRANCH   1  28
ATOM     28  C   UNL     1       0.207   8.516  21.139  0.00  0.00    +0.000 C 
BRANCH  28  29
ATOM     29  C   UNL     1       0.717   9.379  22.298  0.00  0.00    +0.000 C 
BRANCH  29  31
ATOM     30  C   UNL     1      -0.717  11.427  22.498  0.00  0.00    +0.000 C 
ATOM     31  C   UNL     1      -0.442  10.035  23.043  0.00  0.00    +0.000 C 
ENDBRANCH  29  31
ENDBRANCH  28  29
ENDBRANCH   1  28
TORSDOF 8
ENDMDL
MODEL 5
REMARK VINA RESULT:      -7.2      4.761     10.379
REMARK  Name = 
REMARK  12 active torsions:
REMARK  status: ('A' for Active; 'I' for Inactive)
REMARK    1  A    between atoms: C_1  and  C_2
REMARK    2  A    between atoms: C_2  and  C_3
REMARK    3  A    between atoms: C_3  and  C_4
REMARK    4  A    between atoms: C_4  and  N_5
REMARK    5  A    between atoms: C_6  and  C_7
REMARK    6  A    between atoms: C_10  and  N_11
REMARK    7  A    between atoms: N_11  and  S_12
REMARK    8  A    between atoms: S_12  and  C_13
REMARK    9  A    between atoms: C_21  and  O_22
REMARK   10  A    between atoms: O_22  and  C_23
REMARK   11  A    between atoms: C_24  and  O_25
REMARK   12  A    between atoms: O_25  and  C_26
REMARK                            x       y       z     vdW  Elec       q    Type
REMARK                         _______ _______ _______ _____ _____    ______ ____
ROOT
ATOM      1  N   UNL     1       1.141   9.798  18.974  0.00  0.00    +0.000 N 
ATOM      2  C   UNL     1       0.541   9.435  20.190  0.00  0.00    +0.000 A 
ATOM      3  N   UNL     1       0.782   8.299  20.773  0.00  0.00    +0.000 NA
ATOM      4  C   UNL     1       1.631   7.368  20.164  0.00  0.00    +0.000 A 
ATOM      5  C   UNL     1       1.891   6.157  20.816  0.00  0.00    +0.000 A 
ATOM      6  C   UNL     1       2.674   5.150  20.219  0.00  0.00    +0.000 A 
ATOM      7  C   UNL     1       3.213   5.381  18.940  0.00  0.00    +0.000 A 
ATOM      8  C   UNL     1       2.989   6.614  18.313  0.00  0.00    +0.000 A 
ATOM      9  C   UNL     1       2.203   7.592  18.928  0.00  0.00    +0.000 A 
ATOM     10  C   UNL     1       1.976   8.894  18.293  0.00  0.00    +0.000 A 
ATOM     11  O   UNL     1       2.527   9.128  17.221  0.00  0.00    +0.000 OA
ENDROOT
BRANCH   2  12
ATOM     12  C   UNL     1      -0.379  10.371  20.931  0.00  0.00    +0.000 A 
ATOM     13  C   UNL     1      -1.168  11.340  20.305  0.00  0.00    +0.000 A 
ATOM     14  C   UNL     1      -1.872  12.282  21.063  0.00  0.00    +0.000 A 
ATOM     15  C   UNL     1      -1.869  12.203  22.452  0.00  0.00    +0.000 A 
ATOM     16  C   UNL     1      -1.205  11.160  23.088  0.00  0.00    +0.000 A 
ATOM     17  C   UNL     1      -0.451  10.256  22.330  0.00  0.00    +0.000 A 
BRANCH  15  18
ATOM     18  N   UNL     1      -2.612  13.160  23.202  0.00  0.00    +0.000 N 
ATOM     19  H   UNL     1      -2.194  13.442  24.092  0.00  0.00    +0.000 HD
BRANCH  18  20
ATOM     20  S   UNL     1      -4.259  12.852  23.442  0.00  0.00    +0.000 S 
ATOM     21  C   UNL     1      -4.875  14.473  23.833  0.00  0.00    +0.000 C 
ATOM     22  O   UNL     1      -4.858  12.393  22.210  0.00  0.00    +0.000 OA
ATOM     23  O   UNL     1      -4.325  12.055  24.647  0.00  0.00    +0.000 OA
ENDBRANCH  18  20
ENDBRANCH  15  18
ENDBRANCH   2  12
BRANCH   6  24
ATOM     24  O   UNL     1       2.934   3.950  20.821  0.00  0.00    +0.000 OA
ATOM     25  C   UNL     1       1.840   3.128  21.205  0.00  0.00    +0.000 C 
ENDBRANCH   6  24
BRANCH   7  26
ATOM     26  O   UNL     1       3.972   4.545  18.163  0.00  0.00    +0.000 OA
ATOM     27  C   UNL     1       5.379   4.521  18.342  0.00  0.00    +0.000 C 
ENDBRANCH   7  26
BRANCH   1  28
ATOM     28  C   UNL     1       1.035  11.121  18.334  0.00  0.00    +0.000 C 
BRANCH  28  29
ATOM     29  C   UNL     1       2.240  12.030  18.602  0.00  0.00    +0.000 C 
BRANCH  29  31
ATOM     30  C   UNL     1       1.027  14.167  19.108  0.00  0.00    +0.000 C 
ATOM     31  C   UNL     1       1.915  13.068  19.672  0.00  0.00    +0.000 C 
ENDBRANCH  29  31
ENDBRANCH  28  29
ENDBRANCH   1  28
TORSDOF 8
ENDMDL
MODEL 6
REMARK VINA RESULT:      -7.2      3.999      8.892
REMARK  Name = 
REMARK  12 active torsions:
REMARK  status: ('A' for Active; 'I' for Inactive)
REMARK    1  A    between atoms: C_1  and  C_2
REMARK    2  A    between atoms: C_2  and  C_3
REMARK    3  A    between atoms: C_3  and  C_4
REMARK    4  A    between atoms: C_4  and  N_5
REMARK    5  A    between atoms: C_6  and  C_7
REMARK    6  A    between atoms: C_10  and  N_11
REMARK    7  A    between atoms: N_11  and  S_12
REMARK    8  A    between atoms: S_12  and  C_13
REMARK    9  A    between atoms: C_21  and  O_22
REMARK   10  A    between atoms: O_22  and  C_23
REMARK   11  A    between atoms: C_24  and  O_25
REMARK   12  A    between atoms: O_25  and  C_26
REMARK                            x       y       z     vdW  Elec       q    Type
REMARK                         _______ _______ _______ _____ _____    ______ ____
ROOT
ATOM      1  N   UNL     1       1.258   8.255  20.131  0.00  0.00    +0.000 N 
ATOM      2  C   UNL     1       1.603   9.127  19.085  0.00  0.00    +0.000 A 
ATOM      3  N   UNL     1       2.390   8.772  18.114  0.00  0.00    +0.000 NA
ATOM      4  C   UNL     1       2.963   7.495  18.111  0.00  0.00    +0.000 A 
ATOM      5  C   UNL     1       3.795   7.125  17.047  0.00  0.00    +0.000 A 
ATOM      6  C   UNL     1       4.461   5.885  17.028  0.00  0.00    +0.000 A 
ATOM      7  C   UNL     1       4.270   4.997  18.102  0.00  0.00    +0.000 A 
ATOM      8  C   UNL     1       3.399   5.352  19.141  0.00  0.00    +0.000 A 
ATOM      9  C   UNL     1       2.756   6.594  19.136  0.00  0.00    +0.000 A 
ATOM     10  C   UNL     1       1.827   6.971  20.205  0.00  0.00    +0.000 A 
ATOM     11  O   UNL     1       1.589   6.155  21.091  0.00  0.00    +0.000 OA
ENDROOT
BRANCH   2  12
ATOM     12  C   UNL     1       1.031  10.518  18.991  0.00  0.00    +0.000 A 
ATOM     13  C   UNL     1      -0.330  10.808  19.126  0.00  0.00    +0.000 A 
ATOM     14  C   UNL     1      -0.812  12.095  18.863  0.00  0.00    +0.000 A 
ATOM     15  C   UNL     1       0.075  13.124  18.560  0.00  0.00    +0.000 A 
ATOM     16  C   UNL     1       1.445  12.885  18.562  0.00  0.00    +0.000 A 
ATOM     17  C   UNL     1       1.920  11.583  18.763  0.00  0.00    +0.000 A 
BRANCH  15  18
ATOM     18  N   UNL     1      -0.438  14.431  18.320  0.00  0.00    +0.000 N 
ATOM     19  H   UNL     1      -0.347  14.770  17.359  0.00  0.00    +0.000 HD
BRANCH  18  20
ATOM     20  S   UNL     1       0.037  15.660  19.382  0.00  0.00    +0.000 S 
ATOM     21  C   UNL     1      -1.258  16.856  19.150  0.00  0.00    +0.000 C 
ATOM     22  O   UNL     1       0.006  15.174  20.742  0.00  0.00    +0.000 OA
ATOM     23  O   UNL     1       1.247  16.210  18.812  0.00  0.00    +0.000 OA
ENDBRANCH  18  20
ENDBRANCH  15  18
ENDBRANCH   2  12
BRANCH   6  24
ATOM     24  O   UNL     1       5.292   5.500  16.012  0.00  0.00    +0.000 OA
ATOM     25  C   UNL     1       6.692   5.683  16.170  0.00  0.00    +0.000 C 
ENDBRANCH   6  24
BRANCH   7  26
ATOM     26  O   UNL     1       4.830   3.763  18.307  0.00  0.00    +0.000 OA
ATOM     27  C   UNL     1       4.441   3.006  19.442  0.00  0.00    +0.000 C 
ENDBRANCH   7  26
BRANCH   1  28
ATOM     28  C   UNL     1       0.259   8.534  21.177  0.00  0.00    +0.000 C 
BRANCH  28  29
ATOM     29  C   UNL     1       0.828   9.292  22.381  0.00  0.00    +0.000 C 
BRANCH  29  31
ATOM     30  C   UNL     1      -0.931  11.036  22.779  0.00  0.00    +0.000 C 
ATOM     31  C   UNL     1      -0.288   9.763  23.309  0.00  0.00    +0.000 C 
ENDBRANCH  29  31
ENDBRANCH  28  29
ENDBRANCH   1  28
TORSDOF 8
ENDMDL
MODEL 7
REMARK VINA RESULT:      -7.2      3.877      7.005
REMARK  Name = 
REMARK  12 active torsions:
REMARK  status: ('A' for Active; 'I' for Inactive)
REMARK    1  A    between atoms: C_1  and  C_2
REMARK    2  A    between atoms: C_2  and  C_3
REMARK    3  A    between atoms: C_3  and  C_4
REMARK    4  A    between atoms: C_4  and  N_5
REMARK    5  A    between atoms: C_6  and  C_7
REMARK    6  A    between atoms: C_10  and  N_11
REMARK    7  A    between atoms: N_11  and  S_12
REMARK    8  A    between atoms: S_12  and  C_13
REMARK    9  A    between atoms: C_21  and  O_22
REMARK   10  A    between atoms: O_22  and  C_23
REMARK   11  A    between atoms: C_24  and  O_25
REMARK   12  A    between atoms: O_25  and  C_26
REMARK                            x       y       z     vdW  Elec       q    Type
REMARK                         _______ _______ _______ _____ _____    ______ ____
ROOT
ATOM      1  N   UNL     1      -0.387  11.044  18.620  0.00  0.00    +0.000 N 
ATOM      2  C   UNL     1       0.979  10.841  18.873  0.00  0.00    +0.000 A 
ATOM      3  N   UNL     1       1.787  11.818  19.159  0.00  0.00    +0.000 NA
ATOM      4  C   UNL     1       1.311  13.134  19.177  0.00  0.00    +0.000 A 
ATOM      5  C   UNL     1       2.194  14.171  19.505  0.00  0.00    +0.000 A 
ATOM      6  C   UNL     1       1.794  15.521  19.464  0.00  0.00    +0.000 A 
ATOM      7  C   UNL     1       0.471  15.824  19.096  0.00  0.00    +0.000 A 
ATOM      8  C   UNL     1      -0.421  14.780  18.816  0.00  0.00    +0.000 A 
ATOM      9  C   UNL     1       0.006  13.449  18.859  0.00  0.00    +0.000 A 
ATOM     10  C   UNL     1      -0.920  12.346  18.588  0.00  0.00    +0.000 A 
ATOM     11  O   UNL     1      -2.097  12.610  18.363  0.00  0.00    +0.000 OA
ENDROOT
BRANCH   2  12
ATOM     12  C   UNL     1       1.586   9.462  18.888  0.00  0.00    +0.000 A 
ATOM     13  C   UNL     1       2.225   8.884  17.787  0.00  0.00    +0.000 A 
ATOM     14  C   UNL     1       2.619   7.541  17.817  0.00  0.00    +0.000 A 
ATOM     15  C   UNL     1       2.465   6.796  18.982  0.00  0.00    +0.000 A 
ATOM     16  C   UNL     1       1.963   7.396  20.131  0.00  0.00    +0.000 A 
ATOM     17  C   UNL     1       1.512   8.720  20.079  0.00  0.00    +0.000 A 
BRANCH  15  18
ATOM     18  N   UNL     1       2.895   5.438  18.996  0.00  0.00    +0.000 N 
ATOM     19  H   UNL     1       3.683   5.219  18.380  0.00  0.00    +0.000 HD
BRANCH  18  20
ATOM     20  S   UNL     1       1.710   4.244  18.817  0.00  0.00    +0.000 S 
ATOM     21  C   UNL     1       2.687   2.759  18.842  0.00  0.00    +0.000 C 
ATOM     22  O   UNL     1       0.823   4.256  19.958  0.00  0.00    +0.000 OA
ATOM     23  O   UNL     1       1.201   4.411  17.473  0.00  0.00    +0.000 OA
ENDBRANCH  18  20
ENDBRANCH  15  18
ENDBRANCH   2  12
BRANCH   6  24
ATOM     24  O   UNL     1       2.634  16.558  19.762  0.00  0.00    +0.000 OA
ATOM     25  C   UNL     1       2.679  17.037  21.099  0.00  0.00    +0.000 C 
ENDBRANCH   6  24
BRANCH   7  26
ATOM     26  O   UNL     1      -0.126  17.051  18.963  0.00  0.00    +0.000 OA
ATOM     27  C   UNL     1      -0.320  17.589  17.666  0.00  0.00    +0.000 C 
ENDBRANCH   7  26
BRANCH   1  28
ATOM     28  C   UNL     1      -1.387   9.978  18.440  0.00  0.00    +0.000 C 
BRANCH  28  29
ATOM     29  C   UNL     1      -1.579   9.558  16.978  0.00  0.00    +0.000 C 
BRANCH  29  31
ATOM     30  C   UNL     1      -2.994  10.213  15.013  0.00  0.00    +0.000 C 
ATOM     31  C   UNL     1      -2.991   9.883  16.497  0.00  0.00    +0.000 C 
ENDBRANCH  29  31
ENDBRANCH  28  29
ENDBRANCH   1  28
TORSDOF 8
ENDMDL
MODEL 8
REMARK VINA RESULT:      -7.2      4.089      9.020
REMARK  Name = 
REMARK  12 active torsions:
REMARK  status: ('A' for Active; 'I' for Inactive)
REMARK    1  A    between atoms: C_1  and  C_2
REMARK    2  A    between atoms: C_2  and  C_3
REMARK    3  A    between atoms: C_3  and  C_4
REMARK    4  A    between atoms: C_4  and  N_5
REMARK    5  A    between atoms: C_6  and  C_7
REMARK    6  A    between atoms: C_10  and  N_11
REMARK    7  A    between atoms: N_11  and  S_12
REMARK    8  A    between atoms: S_12  and  C_13
REMARK    9  A    between atoms: C_21  and  O_22
REMARK   10  A    between atoms: O_22  and  C_23
REMARK   11  A    between atoms: C_24  and  O_25
REMARK   12  A    between atoms: O_25  and  C_26
REMARK                            x       y       z     vdW  Elec       q    Type
REMARK                         _______ _______ _______ _____ _____    ______ ____
ROOT
ATOM      1  N   UNL     1       1.189   8.512  20.001  0.00  0.00    +0.000 N 
ATOM      2  C   UNL     1       1.595   9.318  18.924  0.00  0.00    +0.000 A 
ATOM      3  N   UNL     1       2.404   8.891  18.002  0.00  0.00    +0.000 NA
ATOM      4  C   UNL     1       2.940   7.600  18.085  0.00  0.00    +0.000 A 
ATOM      5  C   UNL     1       3.796   7.153  17.072  0.00  0.00    +0.000 A 
ATOM      6  C   UNL     1       4.426   5.896  17.141  0.00  0.00    +0.000 A 
ATOM      7  C   UNL     1       4.174   5.071  18.252  0.00  0.00    +0.000 A 
ATOM      8  C   UNL     1       3.279   5.505  19.240  0.00  0.00    +0.000 A 
ATOM      9  C   UNL     1       2.672   6.761  19.148  0.00  0.00    +0.000 A 
ATOM     10  C   UNL     1       1.719   7.219  20.162  0.00  0.00    +0.000 A 
ATOM     11  O   UNL     1       1.427   6.458  21.080  0.00  0.00    +0.000 OA
ENDROOT
BRANCH   2  12
ATOM     12  C   UNL     1       1.067  10.717  18.738  0.00  0.00    +0.000 A 
ATOM     13  C   UNL     1       1.882  11.850  18.664  0.00  0.00    +0.000 A 
ATOM     14  C   UNL     1       1.320  13.132  18.657  0.00  0.00    +0.000 A 
ATOM     15  C   UNL     1      -0.062  13.287  18.624  0.00  0.00    +0.000 A 
ATOM     16  C   UNL     1      -0.886  12.169  18.553  0.00  0.00    +0.000 A 
ATOM     17  C   UNL     1      -0.323  10.889  18.624  0.00  0.00    +0.000 A 
BRANCH  15  18
ATOM     18  N   UNL     1      -0.611  14.601  18.594  0.00  0.00    +0.000 N 
ATOM     19  H   UNL     1      -0.208  15.230  17.894  0.00  0.00    +0.000 HD
BRANCH  18  20
ATOM     20  S   UNL     1      -0.738  15.426  20.065  0.00  0.00    +0.000 S 
ATOM     21  C   UNL     1       0.682  16.494  20.003  0.00  0.00    +0.000 C 
ATOM     22  O   UNL     1      -1.942  16.225  20.079  0.00  0.00    +0.000 OA
ATOM     23  O   UNL     1      -0.491  14.429  21.083  0.00  0.00    +0.000 OA
ENDBRANCH  18  20
ENDBRANCH  15  18
ENDBRANCH   2  12
BRANCH   6  24
ATOM     24  O   UNL     1       5.280   5.435  16.177  0.00  0.00    +0.000 OA
ATOM     25  C   UNL     1       6.671   5.693  16.317  0.00  0.00    +0.000 C 
ENDBRANCH   6  24
BRANCH   7  26
ATOM     26  O   UNL     1       4.690   3.835  18.541  0.00  0.00    +0.000 OA
ATOM     27  C   UNL     1       3.876   2.687  18.370  0.00  0.00    +0.000 C 
ENDBRANCH   7  26
BRANCH   1  28
ATOM     28  C   UNL     1       0.164   8.874  20.995  0.00  0.00    +0.000 C 
BRANCH  28  29
ATOM     29  C   UNL     1       0.734   9.555  22.244  0.00  0.00    +0.000 C 
BRANCH  29  31
ATOM     30  C   UNL     1      -1.020  11.273  22.755  0.00  0.00    +0.000 C 
ATOM     31  C   UNL     1      -0.381   9.967  23.200  0.00  0.00    +0.000 C 
ENDBRANCH  29  31
ENDBRANCH  28  29
ENDBRANCH   1  28
TORSDOF 8
ENDMDL
MODEL 9
REMARK VINA RESULT:      -7.1      4.877     10.736
REMARK  Name = 
REMARK  12 active torsions:
REMARK  status: ('A' for Active; 'I' for Inactive)
REMARK    1  A    between atoms: C_1  and  C_2
REMARK    2  A    between atoms: C_2  and  C_3
REMARK    3  A    between atoms: C_3  and  C_4
REMARK    4  A    between atoms: C_4  and  N_5
REMARK    5  A    between atoms: C_6  and  C_7
REMARK    6  A    between atoms: C_10  and  N_11
REMARK    7  A    between atoms: N_11  and  S_12
REMARK    8  A    between atoms: S_12  and  C_13
REMARK    9  A    between atoms: C_21  and  O_22
REMARK   10  A    between atoms: O_22  and  C_23
REMARK   11  A    between atoms: C_24  and  O_25
REMARK   12  A    between atoms: O_25  and  C_26
REMARK                            x       y       z     vdW  Elec       q    Type
REMARK                         _______ _______ _______ _____ _____    ______ ____
ROOT
ATOM      1  N   UNL     1       0.908  10.588  19.164  0.00  0.00    +0.000 N 
ATOM      2  C   UNL     1       0.238  10.216  20.340  0.00  0.00    +0.000 A 
ATOM      3  N   UNL     1       0.393   9.049  20.891  0.00  0.00    +0.000 NA
ATOM      4  C   UNL     1       1.218   8.095  20.283  0.00  0.00    +0.000 A 
ATOM      5  C   UNL     1       1.386   6.850  20.901  0.00  0.00    +0.000 A 
ATOM      6  C   UNL     1       2.140   5.824  20.299  0.00  0.00    +0.000 A 
ATOM      7  C   UNL     1       2.746   6.070  19.054  0.00  0.00    +0.000 A 
ATOM      8  C   UNL     1       2.613   7.334  18.463  0.00  0.00    +0.000 A 
ATOM      9  C   UNL     1       1.853   8.332  19.081  0.00  0.00    +0.000 A 
ATOM     10  C   UNL     1       1.723   9.664  18.486  0.00  0.00    +0.000 A 
ATOM     11  O   UNL     1       2.331   9.905  17.447  0.00  0.00    +0.000 OA
ENDROOT
BRANCH   2  12
ATOM     12  C   UNL     1      -0.664  11.174  21.077  0.00  0.00    +0.000 A 
ATOM     13  C   UNL     1      -0.613  11.380  22.458  0.00  0.00    +0.000 A 
ATOM     14  C   UNL     1      -1.586  12.157  23.098  0.00  0.00    +0.000 A 
ATOM     15  C   UNL     1      -2.558  12.812  22.349  0.00  0.00    +0.000 A 
ATOM     16  C   UNL     1      -2.537  12.733  20.961  0.00  0.00    +0.000 A 
ATOM     17  C   UNL     1      -1.602  11.905  20.328  0.00  0.00    +0.000 A 
BRANCH  15  18
ATOM     18  N   UNL     1      -3.523  13.616  23.020  0.00  0.00    +0.000 N 
ATOM     19  H   UNL     1      -3.185  14.109  23.850  0.00  0.00    +0.000 HD
BRANCH  18  20
ATOM     20  S   UNL     1      -5.017  12.905  23.375  0.00  0.00    +0.000 S 
ATOM     21  C   UNL     1      -6.014  14.330  23.746  0.00  0.00    +0.000 C 
ATOM     22  O   UNL     1      -5.539  12.245  22.201  0.00  0.00    +0.000 OA
ATOM     23  O   UNL     1      -4.810  12.182  24.610  0.00  0.00    +0.000 OA
ENDBRANCH  18  20
ENDBRANCH  15  18
ENDBRANCH   2  12
BRANCH   6  24
ATOM     24  O   UNL     1       2.311   4.592  20.868  0.00  0.00    +0.000 OA
ATOM     25  C   UNL     1       1.290   3.617  20.704  0.00  0.00    +0.000 C 
ENDBRANCH   6  24
BRANCH   7  26
ATOM     26  O   UNL     1       3.493   5.222  18.279  0.00  0.00    +0.000 OA
ATOM     27  C   UNL     1       4.280   5.757  17.227  0.00  0.00    +0.000 C 
ENDBRANCH   7  26
BRANCH   1  28
ATOM     28  C   UNL     1       0.899  11.936  18.569  0.00  0.00    +0.000 C 
BRANCH  28  29
ATOM     29  C   UNL     1       1.970  12.868  19.146  0.00  0.00    +0.000 C 
BRANCH  29  31
ATOM     30  C   UNL     1       0.303  14.729  18.928  0.00  0.00    +0.000 C 
ATOM     31  C   UNL     1       1.745  14.307  18.694  0.00  0.00    +0.000 C 
ENDBRANCH  29  31
ENDBRANCH  28  29
ENDBRANCH   1  28
TORSDOF 8
ENDMDL
