MODEL 1
REMARK VINA RESULT:      -8.7      0.000      0.000
REMARK  Name = 
REMARK  4 active torsions:
REMARK  status: ('A' for Active; 'I' for Inactive)
REMARK    1  A    between atoms: C_6  and  C_7
REMARK    2  A    between atoms: C_7  and  C_8
REMARK    3  A    between atoms: C_12  and  C_13
REMARK    4  A    between atoms: C_13  and  C_14
REMARK                            x       y       z     vdW  Elec       q    Type
REMARK                         _______ _______ _______ _____ _____    ______ ____
ROOT
ATOM      1  C   UNL     1       0.766  10.065  19.135  0.00  0.00    +0.000 A 
ATOM      2  C   UNL     1       0.567   9.562  20.417  0.00  0.00    +0.000 A 
ATOM      3  N   UNL     1       1.120   8.420  20.881  0.00  0.00    +0.000 NA
ATOM      4  C   UNL     1       1.921   7.742  20.029  0.00  0.00    +0.000 A 
ATOM      5  C   UNL     1       2.200   8.147  18.729  0.00  0.00    +0.000 A 
ATOM      6  C   UNL     1       1.622   9.344  18.292  0.00  0.00    +0.000 A 
ENDROOT
BRANCH   1   7
ATOM      7  C   UNL     1       0.064  11.310  18.670  0.00  0.00    +0.000 C 
BRANCH   7  13
ATOM      8  C   UNL     1      -1.859  10.136  17.499  0.00  0.00    +0.000 A 
ATOM      9  C   UNL     1      -3.223   9.947  17.251  0.00  0.00    +0.000 A 
ATOM     10  C   UNL     1      -4.113  10.776  17.896  0.00  0.00    +0.000 A 
ATOM     11  C   UNL     1      -3.690  11.759  18.758  0.00  0.00    +0.000 A 
ATOM     12  C   UNL     1      -2.353  11.968  19.025  0.00  0.00    +0.000 A 
ATOM     13  C   UNL     1      -1.413  11.140  18.391  0.00  0.00    +0.000 A 
ATOM     14  O   UNL     1      -4.726  12.461  19.292  0.00  0.00    +0.000 OA
ATOM     15  C   UNL     1      -5.847  11.826  18.643  0.00  0.00    +0.000 C 
ATOM     16  O   UNL     1      -5.467  10.736  17.778  0.00  0.00    +0.000 OA
ENDBRANCH   7  13
ENDBRANCH   1   7
BRANCH   5  17
ATOM     17  C   UNL     1       3.082   7.323  17.831  0.00  0.00    +0.000 C 
BRANCH  17  18
ATOM     18  C   UNL     1       3.072   5.844  18.148  0.00  0.00    +0.000 A 
ATOM     19  C   UNL     1       1.938   5.058  17.835  0.00  0.00    +0.000 A 
ATOM     20  C   UNL     1       1.901   3.694  18.145  0.00  0.00    +0.000 A 
ATOM     21  C   UNL     1       3.001   3.147  18.767  0.00  0.00    +0.000 A 
ATOM     22  C   UNL     1       4.108   3.902  19.072  0.00  0.00    +0.000 A 
ATOM     23  C   UNL     1       4.178   5.247  18.776  0.00  0.00    +0.000 A 
ATOM     24  O   UNL     1       5.081   3.173  19.682  0.00  0.00    +0.000 OA
ATOM     25  C   UNL     1       4.437   1.884  19.767  0.00  0.00    +0.000 C 
ATOM     26  O   UNL     1       3.134   1.850  19.151  0.00  0.00    +0.000 OA
ENDBRANCH  17  18
ENDBRANCH   5  17
TORSDOF 4
ENDMDL
MODEL 2
REMARK VINA RESULT:      -8.6      3.885      5.687
REMARK  Name = 
REMARK  4 active torsions:
REMARK  status: ('A' for Active; 'I' for Inactive)
REMARK    1  A    between atoms: C_6  and  C_7
REMARK    2  A    between atoms: C_7  and  C_8
REMARK    3  A    between atoms: C_12  and  C_13
REMARK    4  A    between atoms: C_13  and  C_14
REMARK                            x       y       z     vdW  Elec       q    Type
REMARK                         _______ _______ _______ _____ _____    ______ ____
ROOT
ATOM      1  C   UNL     1       2.296   4.938  19.168  0.00  0.00    +0.000 A 
ATOM      2  C   UNL     1       1.363   4.016  18.704  0.00  0.00    +0.000 A 
ATOM      3  N   UNL     1       1.579   3.167  17.675  0.00  0.00    +0.000 NA
ATOM      4  C   UNL     1       2.789   3.232  17.076  0.00  0.00    +0.000 A 
ATOM      5  C   UNL     1       3.802   4.105  17.454  0.00  0.00    +0.000 A 
ATOM      6  C   UNL     1       3.547   4.955  18.536  0.00  0.00    +0.000 A 
ENDROOT
BRANCH   1   7
ATOM      7  C   UNL     1       1.959   5.895  20.278  0.00  0.00    +0.000 C 
BRANCH   7  13
ATOM      8  C   UNL     1       2.027   7.713  18.507  0.00  0.00    +0.000 A 
ATOM      9  C   UNL     1       1.815   9.028  18.079  0.00  0.00    +0.000 A 
ATOM     10  C   UNL     1       1.341   9.934  19.001  0.00  0.00    +0.000 A 
ATOM     11  C   UNL     1       1.079   9.573  20.301  0.00  0.00    +0.000 A 
ATOM     12  C   UNL     1       1.275   8.284  20.752  0.00  0.00    +0.000 A 
ATOM     13  C   UNL     1       1.753   7.328  19.841  0.00  0.00    +0.000 A 
ATOM     14  O   UNL     1       0.615  10.612  21.045  0.00  0.00    +0.000 OA
ATOM     15  C   UNL     1       0.644  11.676  20.071  0.00  0.00    +0.000 C 
ATOM     16  O   UNL     1       1.076  11.247  18.763  0.00  0.00    +0.000 OA
ENDBRANCH   7  13
ENDBRANCH   1   7
BRANCH   5  17
ATOM     17  C   UNL     1       5.117   4.135  16.721  0.00  0.00    +0.000 C 
BRANCH  17  18
ATOM     18  C   UNL     1       6.113   5.121  17.287  0.00  0.00    +0.000 A 
ATOM     19  C   UNL     1       7.022   4.716  18.293  0.00  0.00    +0.000 A 
ATOM     20  C   UNL     1       7.934   5.622  18.845  0.00  0.00    +0.000 A 
ATOM     21  C   UNL     1       7.912   6.918  18.381  0.00  0.00    +0.000 A 
ATOM     22  C   UNL     1       7.035   7.320  17.402  0.00  0.00    +0.000 A 
ATOM     23  C   UNL     1       6.128   6.451  16.834  0.00  0.00    +0.000 A 
ATOM     24  O   UNL     1       7.177   8.636  17.087  0.00  0.00    +0.000 OA
ATOM     25  C   UNL     1       8.212   9.024  18.015  0.00  0.00    +0.000 C 
ATOM     26  O   UNL     1       8.712   7.930  18.810  0.00  0.00    +0.000 OA
ENDBRANCH  17  18
ENDBRANCH   5  17
TORSDOF 4
ENDMDL
MODEL 3
REMARK VINA RESULT:      -8.5      3.972      5.869
REMARK  Name = 
REMARK  4 active torsions:
REMARK  status: ('A' for Active; 'I' for Inactive)
REMARK    1  A    between atoms: C_6  and  C_7
REMARK    2  A    between atoms: C_7  and  C_8
REMARK    3  A    between atoms: C_12  and  C_13
REMARK    4  A    between atoms: C_13  and  C_14
REMARK                            x       y       z     vdW  Elec       q    Type
REMARK                         _______ _______ _______ _____ _____    ______ ____
ROOT
ATOM      1  C   UNL     1       2.294   4.718  19.473  0.00  0.00    +0.000 A 
ATOM      2  C   UNL     1       1.276   3.929  18.945  0.00  0.00    +0.000 A 
ATOM      3  N   UNL     1       1.388   3.201  17.813  0.00  0.00    +0.000 NA
ATOM      4  C   UNL     1       2.576   3.252  17.171  0.00  0.00    +0.000 A 
ATOM      5  C   UNL     1       3.667   3.998  17.603  0.00  0.00    +0.000 A 
ATOM      6  C   UNL     1       3.517   4.724  18.790  0.00  0.00    +0.000 A 
ENDROOT
BRANCH   1   7
ATOM      7  C   UNL     1       2.073   5.551  20.705  0.00  0.00    +0.000 C 
BRANCH   7  13
ATOM      8  C   UNL     1       0.931   7.713  21.389  0.00  0.00    +0.000 A 
ATOM      9  C   UNL     1       0.590   9.053  21.170  0.00  0.00    +0.000 A 
ATOM     10  C   UNL     1       1.009   9.637  19.996  0.00  0.00    +0.000 A 
ATOM     11  C   UNL     1       1.738   8.941  19.062  0.00  0.00    +0.000 A 
ATOM     12  C   UNL     1       2.091   7.621  19.250  0.00  0.00    +0.000 A 
ATOM     13  C   UNL     1       1.689   6.990  20.438  0.00  0.00    +0.000 A 
ATOM     14  O   UNL     1       2.054   9.701  17.979  0.00  0.00    +0.000 OA
ATOM     15  C   UNL     1       1.413  10.946  18.326  0.00  0.00    +0.000 C 
ATOM     16  O   UNL     1       0.773  10.922  19.618  0.00  0.00    +0.000 OA
ENDBRANCH   7  13
ENDBRANCH   1   7
BRANCH   5  17
ATOM     17  C   UNL     1       4.951   4.024  16.819  0.00  0.00    +0.000 C 
BRANCH  17  18
ATOM     18  C   UNL     1       5.969   5.013  17.340  0.00  0.00    +0.000 A 
ATOM     19  C   UNL     1       6.892   4.624  18.339  0.00  0.00    +0.000 A 
ATOM     20  C   UNL     1       7.824   5.533  18.851  0.00  0.00    +0.000 A 
ATOM     21  C   UNL     1       7.808   6.817  18.353  0.00  0.00    +0.000 A 
ATOM     22  C   UNL     1       6.918   7.203  17.381  0.00  0.00    +0.000 A 
ATOM     23  C   UNL     1       5.990   6.331  16.853  0.00  0.00    +0.000 A 
ATOM     24  O   UNL     1       7.068   8.509  17.030  0.00  0.00    +0.000 OA
ATOM     25  C   UNL     1       8.124   8.909  17.928  0.00  0.00    +0.000 C 
ATOM     26  O   UNL     1       8.627   7.830  18.741  0.00  0.00    +0.000 OA
ENDBRANCH  17  18
ENDBRANCH   5  17
TORSDOF 4
ENDMDL
MODEL 4
REMARK VINA RESULT:      -8.4      4.018      8.848
REMARK  Name = 
REMARK  4 active torsions:
REMARK  status: ('A' for Active; 'I' for Inactive)
REMARK    1  A    between atoms: C_6  and  C_7
REMARK    2  A    between atoms: C_7  and  C_8
REMARK    3  A    between atoms: C_12  and  C_13
REMARK    4  A    between atoms: C_13  and  C_14
REMARK                            x       y       z     vdW  Elec       q    Type
REMARK                         _______ _______ _______ _____ _____    ______ ____
ROOT
ATOM      1  C   UNL     1       3.737   4.175  17.537  0.00  0.00    +0.000 A 
ATOM      2  C   UNL     1       2.752   3.267  17.162  0.00  0.00    +0.000 A 
ATOM      3  N   UNL     1       1.563   3.132  17.788  0.00  0.00    +0.000 NA
ATOM      4  C   UNL     1       1.335   3.948  18.842  0.00  0.00    +0.000 A 
ATOM      5  C   UNL     1       2.238   4.897  19.306  0.00  0.00    +0.000 A 
ATOM      6  C   UNL     1       3.451   5.018  18.618  0.00  0.00    +0.000 A 
ENDROOT
BRANCH   1   7
ATOM      7  C   UNL     1       5.063   4.221  16.828  0.00  0.00    +0.000 C 
BRANCH   7  13
ATOM      8  C   UNL     1       6.965   4.803  18.405  0.00  0.00    +0.000 A 
ATOM      9  C   UNL     1       7.908   5.697  18.926  0.00  0.00    +0.000 A 
ATOM     10  C   UNL     1       7.912   6.983  18.435  0.00  0.00    +0.000 A 
ATOM     11  C   UNL     1       7.027   7.389  17.466  0.00  0.00    +0.000 A 
ATOM     12  C   UNL     1       6.088   6.532  16.931  0.00  0.00    +0.000 A 
ATOM     13  C   UNL     1       6.055   5.209  17.401  0.00  0.00    +0.000 A 
ATOM     14  O   UNL     1       7.201   8.693  17.118  0.00  0.00    +0.000 OA
ATOM     15  C   UNL     1       8.277   9.068  18.003  0.00  0.00    +0.000 C 
ATOM     16  O   UNL     1       8.754   7.979  18.821  0.00  0.00    +0.000 OA
ENDBRANCH   7  13
ENDBRANCH   1   7
BRANCH   5  17
ATOM     17  C   UNL     1       1.921   5.753  20.503  0.00  0.00    +0.000 C 
BRANCH  17  18
ATOM     18  C   UNL     1       1.679   7.208  20.171  0.00  0.00    +0.000 A 
ATOM     19  C   UNL     1       1.886   7.682  18.854  0.00  0.00    +0.000 A 
ATOM     20  C   UNL     1       1.692   9.030  18.535  0.00  0.00    +0.000 A 
ATOM     21  C   UNL     1       1.298   9.878  19.546  0.00  0.00    +0.000 A 
ATOM     22  C   UNL     1       1.091   9.427  20.828  0.00  0.00    +0.000 A 
ATOM     23  C   UNL     1       1.270   8.104  21.173  0.00  0.00    +0.000 A 
ATOM     24  O   UNL     1       0.707  10.422  21.672  0.00  0.00    +0.000 OA
ATOM     25  C   UNL     1       0.743  11.557  20.782  0.00  0.00    +0.000 C 
ATOM     26  O   UNL     1       1.076  11.213  19.422  0.00  0.00    +0.000 OA
ENDBRANCH  17  18
ENDBRANCH   5  17
TORSDOF 4
ENDMDL
MODEL 5
REMARK VINA RESULT:      -8.4      0.656      8.909
REMARK  Name = 
REMARK  4 active torsions:
REMARK  status: ('A' for Active; 'I' for Inactive)
REMARK    1  A    between atoms: C_6  and  C_7
REMARK    2  A    between atoms: C_7  and  C_8
REMARK    3  A    between atoms: C_12  and  C_13
REMARK    4  A    between atoms: C_13  and  C_14
REMARK                            x       y       z     vdW  Elec       q    Type
REMARK                         _______ _______ _______ _____ _____    ______ ____
ROOT
ATOM      1  C   UNL     1       2.285   8.188  18.598  0.00  0.00    +0.000 A 
ATOM      2  C   UNL     1       2.011   7.775  19.898  0.00  0.00    +0.000 A 
ATOM      3  N   UNL     1       1.162   8.411  20.735  0.00  0.00    +0.000 NA
ATOM      4  C   UNL     1       0.545   9.514  20.254  0.00  0.00    +0.000 A 
ATOM      5  C   UNL     1       0.733  10.018  18.972  0.00  0.00    +0.000 A 
ATOM      6  C   UNL     1       1.607   9.321  18.130  0.00  0.00    +0.000 A 
ENDROOT
BRANCH   1   7
ATOM      7  C   UNL     1       3.293   7.464  17.748  0.00  0.00    +0.000 C 
BRANCH   7  13
ATOM      8  C   UNL     1       4.622   5.431  18.486  0.00  0.00    +0.000 A 
ATOM      9  C   UNL     1       4.734   4.065  18.769  0.00  0.00    +0.000 A 
ATOM     10  C   UNL     1       3.624   3.275  18.570  0.00  0.00    +0.000 A 
ATOM     11  C   UNL     1       2.440   3.797  18.109  0.00  0.00    +0.000 A 
ATOM     12  C   UNL     1       2.297   5.139  17.824  0.00  0.00    +0.000 A 
ATOM     13  C   UNL     1       3.404   5.980  18.020  0.00  0.00    +0.000 A 
ATOM     14  O   UNL     1       1.469   2.852  17.986  0.00  0.00    +0.000 OA
ATOM     15  C   UNL     1       2.190   1.670  18.392  0.00  0.00    +0.000 C 
ATOM     16  O   UNL     1       3.550   1.936  18.792  0.00  0.00    +0.000 OA
ENDBRANCH   7  13
ENDBRANCH   1   7
BRANCH   5  17
ATOM     17  C   UNL     1       0.028  11.268  18.518  0.00  0.00    +0.000 C 
BRANCH  17  18
ATOM     18  C   UNL     1      -1.463  11.099  18.333  0.00  0.00    +0.000 A 
ATOM     19  C   UNL     1      -1.964  10.094  17.472  0.00  0.00    +0.000 A 
ATOM     20  C   UNL     1      -3.340   9.940  17.269  0.00  0.00    +0.000 A 
ATOM     21  C   UNL     1      -4.186  10.802  17.932  0.00  0.00    +0.000 A 
ATOM     22  C   UNL     1      -3.709  11.778  18.773  0.00  0.00    +0.000 A 
ATOM     23  C   UNL     1      -2.360  11.953  18.997  0.00  0.00    +0.000 A 
ATOM     24  O   UNL     1      -4.708  12.519  19.326  0.00  0.00    +0.000 OA
ATOM     25  C   UNL     1      -5.862  11.924  18.698  0.00  0.00    +0.000 C 
ATOM     26  O   UNL     1      -5.543  10.807  17.844  0.00  0.00    +0.000 OA
ENDBRANCH  17  18
ENDBRANCH   5  17
TORSDOF 4
ENDMDL
MODEL 6
REMARK VINA RESULT:      -8.4      4.045      5.870
REMARK  Name = 
REMARK  4 active torsions:
REMARK  status: ('A' for Active; 'I' for Inactive)
REMARK    1  A    between atoms: C_6  and  C_7
REMARK    2  A    between atoms: C_7  and  C_8
REMARK    3  A    between atoms: C_12  and  C_13
REMARK    4  A    between atoms: C_13  and  C_14
REMARK                            x       y       z     vdW  Elec       q    Type
REMARK                         _______ _______ _______ _____ _____    ______ ____
ROOT
ATOM      1  C   UNL     1       1.952   4.133  20.008  0.00  0.00    +0.000 A 
ATOM      2  C   UNL     1       0.979   3.179  19.726  0.00  0.00    +0.000 A 
ATOM      3  N   UNL     1       1.079   2.259  18.741  0.00  0.00    +0.000 NA
ATOM      4  C   UNL     1       2.208   2.284  17.998  0.00  0.00    +0.000 A 
ATOM      5  C   UNL     1       3.250   3.184  18.188  0.00  0.00    +0.000 A 
ATOM      6  C   UNL     1       3.117   4.108  19.231  0.00  0.00    +0.000 A 
ENDROOT
BRANCH   1   7
ATOM      7  C   UNL     1       1.740   5.166  21.081  0.00  0.00    +0.000 C 
BRANCH   7  13
ATOM      8  C   UNL     1       0.854   7.531  21.339  0.00  0.00    +0.000 A 
ATOM      9  C   UNL     1       0.715   8.852  20.899  0.00  0.00    +0.000 A 
ATOM     10  C   UNL     1       1.293   9.192  19.697  0.00  0.00    +0.000 A 
ATOM     11  C   UNL     1       1.988   8.276  18.944  0.00  0.00    +0.000 A 
ATOM     12  C   UNL     1       2.144   6.968  19.352  0.00  0.00    +0.000 A 
ATOM     13  C   UNL     1       1.574   6.582  20.576  0.00  0.00    +0.000 A 
ATOM     14  O   UNL     1       2.482   8.815  17.798  0.00  0.00    +0.000 OA
ATOM     15  C   UNL     1       1.992  10.168  17.901  0.00  0.00    +0.000 C 
ATOM     16  O   UNL     1       1.261  10.423  19.119  0.00  0.00    +0.000 OA
ENDBRANCH   7  13
ENDBRANCH   1   7
BRANCH   5  17
ATOM     17  C   UNL     1       4.466   3.164  17.302  0.00  0.00    +0.000 C 
BRANCH  17  18
ATOM     18  C   UNL     1       5.210   4.479  17.251  0.00  0.00    +0.000 A 
ATOM     19  C   UNL     1       4.889   5.441  16.264  0.00  0.00    +0.000 A 
ATOM     20  C   UNL     1       5.585   6.652  16.186  0.00  0.00    +0.000 A 
ATOM     21  C   UNL     1       6.593   6.872  17.097  0.00  0.00    +0.000 A 
ATOM     22  C   UNL     1       6.911   5.946  18.061  0.00  0.00    +0.000 A 
ATOM     23  C   UNL     1       6.242   4.745  18.167  0.00  0.00    +0.000 A 
ATOM     24  O   UNL     1       7.934   6.358  18.858  0.00  0.00    +0.000 OA
ATOM     25  C   UNL     1       8.252   7.628  18.253  0.00  0.00    +0.000 C 
ATOM     26  O   UNL     1       7.379   7.981  17.161  0.00  0.00    +0.000 OA
ENDBRANCH  17  18
ENDBRANCH   5  17
TORSDOF 4
ENDMDL
MODEL 7
REMARK VINA RESULT:      -8.4      3.712      5.549
REMARK  Name = 
REMARK  4 active torsions:
REMARK  status: ('A' for Active; 'I' for Inactive)
REMARK    1  A    between atoms: C_6  and  C_7
REMARK    2  A    between atoms: C_7  and  C_8
REMARK    3  A    between atoms: C_12  and  C_13
REMARK    4  A    between atoms: C_13  and  C_14
REMARK                            x       y       z     vdW  Elec       q    Type
REMARK                         _______ _______ _______ _____ _____    ______ ____
ROOT
ATOM      1  C   UNL     1       1.920   4.426  20.209  0.00  0.00    +0.000 A 
ATOM      2  C   UNL     1       1.109   3.296  20.266  0.00  0.00    +0.000 A 
ATOM      3  N   UNL     1       1.298   2.186  19.520  0.00  0.00    +0.000 NA
ATOM      4  C   UNL     1       2.352   2.194  18.673  0.00  0.00    +0.000 A 
ATOM      5  C   UNL     1       3.233   3.259  18.532  0.00  0.00    +0.000 A 
ATOM      6  C   UNL     1       3.015   4.384  19.336  0.00  0.00    +0.000 A 
ENDROOT
BRANCH   1   7
ATOM      7  C   UNL     1       1.607   5.650  21.025  0.00  0.00    +0.000 C 
BRANCH   7  13
ATOM      8  C   UNL     1       2.266   7.009  18.985  0.00  0.00    +0.000 A 
ATOM      9  C   UNL     1       2.296   8.201  18.252  0.00  0.00    +0.000 A 
ATOM     10  C   UNL     1       1.721   9.317  18.818  0.00  0.00    +0.000 A 
ATOM     11  C   UNL     1       1.134   9.276  20.060  0.00  0.00    +0.000 A 
ATOM     12  C   UNL     1       1.087   8.116  20.805  0.00  0.00    +0.000 A 
ATOM     13  C   UNL     1       1.657   6.954  20.260  0.00  0.00    +0.000 A 
ATOM     14  O   UNL     1       0.623  10.480  20.432  0.00  0.00    +0.000 OA
ATOM     15  C   UNL     1       0.985  11.291  19.295  0.00  0.00    +0.000 C 
ATOM     16  O   UNL     1       1.657  10.552  18.253  0.00  0.00    +0.000 OA
ENDBRANCH   7  13
ENDBRANCH   1   7
BRANCH   5  17
ATOM     17  C   UNL     1       4.371   3.202  17.548  0.00  0.00    +0.000 C 
BRANCH  17  18
ATOM     18  C   UNL     1       5.128   4.503  17.408  0.00  0.00    +0.000 A 
ATOM     19  C   UNL     1       4.796   5.413  16.377  0.00  0.00    +0.000 A 
ATOM     20  C   UNL     1       5.503   6.609  16.217  0.00  0.00    +0.000 A 
ATOM     21  C   UNL     1       6.533   6.867  17.093  0.00  0.00    +0.000 A 
ATOM     22  C   UNL     1       6.862   5.992  18.100  0.00  0.00    +0.000 A 
ATOM     23  C   UNL     1       6.182   4.807  18.287  0.00  0.00    +0.000 A 
ATOM     24  O   UNL     1       7.906   6.434  18.851  0.00  0.00    +0.000 OA
ATOM     25  C   UNL     1       8.225   7.665  18.169  0.00  0.00    +0.000 C 
ATOM     26  O   UNL     1       7.332   7.967  17.078  0.00  0.00    +0.000 OA
ENDBRANCH  17  18
ENDBRANCH   5  17
TORSDOF 4
ENDMDL
MODEL 8
REMARK VINA RESULT:      -8.4      2.619      3.847
REMARK  Name = 
REMARK  4 active torsions:
REMARK  status: ('A' for Active; 'I' for Inactive)
REMARK    1  A    between atoms: C_6  and  C_7
REMARK    2  A    between atoms: C_7  and  C_8
REMARK    3  A    between atoms: C_12  and  C_13
REMARK    4  A    between atoms: C_13  and  C_14
REMARK                            x       y       z     vdW  Elec       q    Type
REMARK                         _______ _______ _______ _____ _____    ______ ____
ROOT
ATOM      1  C   UNL     1       2.256   7.704  18.831  0.00  0.00    +0.000 A 
ATOM      2  C   UNL     1       1.688   7.675  20.101  0.00  0.00    +0.000 A 
ATOM      3  N   UNL     1       1.669   6.586  20.901  0.00  0.00    +0.000 NA
ATOM      4  C   UNL     1       2.251   5.465  20.417  0.00  0.00    +0.000 A 
ATOM      5  C   UNL     1       2.854   5.375  19.168  0.00  0.00    +0.000 A 
ATOM      6  C   UNL     1       2.869   6.529  18.377  0.00  0.00    +0.000 A 
ENDROOT
BRANCH   1   7
ATOM      7  C   UNL     1       2.181   8.938  17.974  0.00  0.00    +0.000 C 
BRANCH   7  13
ATOM      8  C   UNL     1       1.201  11.043  19.000  0.00  0.00    +0.000 A 
ATOM      9  C   UNL     1       0.133  11.908  19.260  0.00  0.00    +0.000 A 
ATOM     10  C   UNL     1      -1.111  11.552  18.789  0.00  0.00    +0.000 A 
ATOM     11  C   UNL     1      -1.310  10.388  18.086  0.00  0.00    +0.000 A 
ATOM     12  C   UNL     1      -0.277   9.516  17.812  0.00  0.00    +0.000 A 
ATOM     13  C   UNL     1       1.009   9.846  18.270  0.00  0.00    +0.000 A 
ATOM     14  O   UNL     1      -2.607  10.226  17.708  0.00  0.00    +0.000 OA
ATOM     15  C   UNL     1      -3.205  11.406  18.282  0.00  0.00    +0.000 C 
ATOM     16  O   UNL     1      -2.256  12.268  18.944  0.00  0.00    +0.000 OA
ENDBRANCH   7  13
ENDBRANCH   1   7
BRANCH   5  17
ATOM     17  C   UNL     1       3.460   4.083  18.689  0.00  0.00    +0.000 C 
BRANCH  17  18
ATOM     18  C   UNL     1       4.642   4.264  17.765  0.00  0.00    +0.000 A 
ATOM     19  C   UNL     1       5.916   4.581  18.292  0.00  0.00    +0.000 A 
ATOM     20  C   UNL     1       7.015   4.777  17.450  0.00  0.00    +0.000 A 
ATOM     21  C   UNL     1       6.813   4.656  16.093  0.00  0.00    +0.000 A 
ATOM     22  C   UNL     1       5.581   4.345  15.571  0.00  0.00    +0.000 A 
ATOM     23  C   UNL     1       4.479   4.142  16.375  0.00  0.00    +0.000 A 
ATOM     24  O   UNL     1       5.596   4.274  14.213  0.00  0.00    +0.000 OA
ATOM     25  C   UNL     1       6.970   4.622  13.941  0.00  0.00    +0.000 C 
ATOM     26  O   UNL     1       7.759   4.825  15.131  0.00  0.00    +0.000 OA
ENDBRANCH  17  18
ENDBRANCH   5  17
TORSDOF 4
ENDMDL
MODEL 9
REMARK VINA RESULT:      -8.3      4.091      8.560
REMARK  Name = 
REMARK  4 active torsions:
REMARK  status: ('A' for Active; 'I' for Inactive)
REMARK    1  A    between atoms: C_6  and  C_7
REMARK    2  A    between atoms: C_7  and  C_8
REMARK    3  A    between atoms: C_12  and  C_13
REMARK    4  A    between atoms: C_13  and  C_14
REMARK                            x       y       z     vdW  Elec       q    Type
REMARK                         _______ _______ _______ _____ _____    ______ ____
ROOT
ATOM      1  C   UNL     1       3.263   3.152  18.105  0.00  0.00    +0.000 A 
ATOM      2  C   UNL     1       2.286   2.169  17.989  0.00  0.00    +0.000 A 
ATOM      3  N   UNL     1       1.192   2.086  18.779  0.00  0.00    +0.000 NA
ATOM      4  C   UNL     1       1.057   3.034  19.733  0.00  0.00    +0.000 A 
ATOM      5  C   UNL     1       1.963   4.068  19.941  0.00  0.00    +0.000 A 
ATOM      6  C   UNL     1       3.073   4.130  19.091  0.00  0.00    +0.000 A 
ENDROOT
BRANCH   1   7
ATOM      7  C   UNL     1       4.486   3.141  17.230  0.00  0.00    +0.000 C 
BRANCH   7  13
ATOM      8  C   UNL     1       4.903   5.436  16.229  0.00  0.00    +0.000 A 
ATOM      9  C   UNL     1       5.578   6.662  16.189  0.00  0.00    +0.000 A 
ATOM     10  C   UNL     1       6.588   6.868  17.101  0.00  0.00    +0.000 A 
ATOM     11  C   UNL     1       6.934   5.912  18.025  0.00  0.00    +0.000 A 
ATOM     12  C   UNL     1       6.287   4.695  18.091  0.00  0.00    +0.000 A 
ATOM     13  C   UNL     1       5.245   4.448  17.182  0.00  0.00    +0.000 A 
ATOM     14  O   UNL     1       7.951   6.315  18.833  0.00  0.00    +0.000 OA
ATOM     15  C   UNL     1       8.226   7.623  18.289  0.00  0.00    +0.000 C 
ATOM     16  O   UNL     1       7.345   7.993  17.209  0.00  0.00    +0.000 OA
ENDBRANCH   7  13
ENDBRANCH   1   7
BRANCH   5  17
ATOM     17  C   UNL     1       1.756   5.072  21.043  0.00  0.00    +0.000 C 
BRANCH  17  18
ATOM     18  C   UNL     1       1.643   6.500  20.558  0.00  0.00    +0.000 A 
ATOM     19  C   UNL     1       0.959   7.464  21.337  0.00  0.00    +0.000 A 
ATOM     20  C   UNL     1       0.822   8.783  20.892  0.00  0.00    +0.000 A 
ATOM     21  C   UNL     1       1.370   9.108  19.671  0.00  0.00    +0.000 A 
ATOM     22  C   UNL     1       2.038   8.180  18.909  0.00  0.00    +0.000 A 
ATOM     23  C   UNL     1       2.194   6.874  19.321  0.00  0.00    +0.000 A 
ATOM     24  O   UNL     1       2.501   8.704  17.742  0.00  0.00    +0.000 OA
ATOM     25  C   UNL     1       2.005  10.056  17.839  0.00  0.00    +0.000 C 
ATOM     26  O   UNL     1       1.322  10.331  19.079  0.00  0.00    +0.000 OA
ENDBRANCH  17  18
ENDBRANCH   5  17
TORSDOF 4
ENDMDL
