MODEL 1
REMARK VINA RESULT:      -8.4      0.000      0.000
REMARK  Name = 
REMARK  7 active torsions:
REMARK  status: ('A' for Active; 'I' for Inactive)
REMARK    1  A    between atoms: C_1  and  C_2
REMARK    2  A    between atoms: N_10  and  C_11
REMARK    3  A    between atoms: C_11  and  C_12
REMARK    4  A    between atoms: C_12  and  C_13
REMARK    5  A    between atoms: C_13  and  N_14
REMARK    6  A    between atoms: N_14  and  C_15
REMARK    7  A    between atoms: C_15  and  C_16
REMARK                            x       y       z     vdW  Elec       q    Type
REMARK                         _______ _______ _______ _____ _____    ______ ____
ROOT
ATOM      1  C   UNL     1       6.613   4.473  14.375  0.00  0.00    +0.000 C 
ATOM      2  C   UNL     1       5.672   4.954  15.441  0.00  0.00    +0.000 A 
ATOM      3  C   UNL     1       5.584   6.305  15.785  0.00  0.00    +0.000 A 
ATOM      4  C   UNL     1       4.698   6.755  16.776  0.00  0.00    +0.000 A 
ATOM      5  C   UNL     1       3.888   5.811  17.428  0.00  0.00    +0.000 A 
ATOM      6  C   UNL     1       3.961   4.450  17.102  0.00  0.00    +0.000 A 
ATOM      7  C   UNL     1       4.859   4.025  16.102  0.00  0.00    +0.000 A 
ATOM      8  C   UNL     1       3.034   3.767  17.927  0.00  0.00    +0.000 A 
ATOM      9  C   UNL     1       2.401   4.706  18.717  0.00  0.00    +0.000 A 
ATOM     10  N   UNL     1       2.930   5.942  18.424  0.00  0.00    +0.000 N 
ATOM     11  C   UNL     1       1.350   4.401  19.732  0.00  0.00    +0.000 C 
ATOM     12  C   UNL     1       0.801   2.977  19.515  0.00  0.00    +0.000 C 
ATOM     13  C   UNL     1       1.924   1.961  19.247  0.00  0.00    +0.000 C 
ATOM     14  C   UNL     1       2.714   2.311  17.974  0.00  0.00    +0.000 C 
ENDROOT
BRANCH  10  15
ATOM     15  C   UNL     1       2.550   7.192  19.079  0.00  0.00    +0.000 C 
BRANCH  15  16
ATOM     16  C   UNL     1       1.556   7.997  18.245  0.00  0.00    +0.000 C 
BRANCH  16  17
ATOM     17  C   UNL     1       2.084   9.384  17.861  0.00  0.00    +0.000 C 
BRANCH  17  18
ATOM     18  N   UNL     1       1.412  10.368  18.704  0.00  0.00    +0.000 NA
ATOM     19  H   UNL     1       1.478  11.297  18.289  0.00  0.00    +0.000 HD
BRANCH  18  20
ATOM     20  C   UNL     1       0.005  10.069  18.957  0.00  0.00    +0.000 C 
BRANCH  20  21
ATOM     21  C   UNL     1      -0.294  10.202  20.437  0.00  0.00    +0.000 A 
ATOM     22  C   UNL     1       0.073   9.200  21.347  0.00  0.00    +0.000 A 
ATOM     23  C   UNL     1      -0.240   9.325  22.705  0.00  0.00    +0.000 A 
ATOM     24  C   UNL     1      -0.920  10.449  23.168  0.00  0.00    +0.000 A 
ATOM     25  C   UNL     1      -1.280  11.457  22.277  0.00  0.00    +0.000 A 
ATOM     26  C   UNL     1      -0.964  11.336  20.923  0.00  0.00    +0.000 A 
ENDBRANCH  20  21
ENDBRANCH  18  20
ENDBRANCH  17  18
ENDBRANCH  16  17
ENDBRANCH  15  16
ENDBRANCH  10  15
TORSDOF 6
ENDMDL
MODEL 2
REMARK VINA RESULT:      -8.0      0.411      1.047
REMARK  Name = 
REMARK  7 active torsions:
REMARK  status: ('A' for Active; 'I' for Inactive)
REMARK    1  A    between atoms: C_1  and  C_2
REMARK    2  A    between atoms: N_10  and  C_11
REMARK    3  A    between atoms: C_11  and  C_12
REMARK    4  A    between atoms: C_12  and  C_13
REMARK    5  A    between atoms: C_13  and  N_14
REMARK    6  A    between atoms: N_14  and  C_15
REMARK    7  A    between atoms: C_15  and  C_16
REMARK                            x       y       z     vdW  Elec       q    Type
REMARK                         _______ _______ _______ _____ _____    ______ ____
ROOT
ATOM      1  C   UNL     1       7.013   4.734  15.145  0.00  0.00    +0.000 C 
ATOM      2  C   UNL     1       5.919   5.197  16.062  0.00  0.00    +0.000 A 
ATOM      3  C   UNL     1       5.688   6.554  16.301  0.00  0.00    +0.000 A 
ATOM      4  C   UNL     1       4.659   6.987  17.153  0.00  0.00    +0.000 A 
ATOM      5  C   UNL     1       3.853   6.018  17.773  0.00  0.00    +0.000 A 
ATOM      6  C   UNL     1       4.067   4.652  17.551  0.00  0.00    +0.000 A 
ATOM      7  C   UNL     1       5.107   4.245  16.690  0.00  0.00    +0.000 A 
ATOM      8  C   UNL     1       3.105   3.943  18.312  0.00  0.00    +0.000 A 
ATOM      9  C   UNL     1       2.314   4.871  18.959  0.00  0.00    +0.000 A 
ATOM     10  N   UNL     1       2.777   6.127  18.643  0.00  0.00    +0.000 N 
ATOM     11  C   UNL     1       1.176   4.540  19.868  0.00  0.00    +0.000 C 
ATOM     12  C   UNL     1       0.768   3.064  19.688  0.00  0.00    +0.000 C 
ATOM     13  C   UNL     1       1.989   2.132  19.619  0.00  0.00    +0.000 C 
ATOM     14  C   UNL     1       2.894   2.471  18.422  0.00  0.00    +0.000 C 
ENDROOT
BRANCH  10  15
ATOM     15  C   UNL     1       2.229   7.378  19.164  0.00  0.00    +0.000 C 
BRANCH  15  16
ATOM     16  C   UNL     1       1.454   8.151  18.099  0.00  0.00    +0.000 C 
BRANCH  16  17
ATOM     17  C   UNL     1       2.004   9.564  17.868  0.00  0.00    +0.000 C 
BRANCH  17  18
ATOM     18  N   UNL     1       1.427  10.440  18.883  0.00  0.00    +0.000 NA
ATOM     19  H   UNL     1       1.642  11.415  18.675  0.00  0.00    +0.000 HD
BRANCH  18  20
ATOM     20  C   UNL     1      -0.020  10.303  19.031  0.00  0.00    +0.000 C 
BRANCH  20  21
ATOM     21  C   UNL     1      -0.399  10.376  20.497  0.00  0.00    +0.000 A 
ATOM     22  C   UNL     1      -1.025  11.511  21.033  0.00  0.00    +0.000 A 
ATOM     23  C   UNL     1      -1.337  11.572  22.395  0.00  0.00    +0.000 A 
ATOM     24  C   UNL     1      -1.032  10.503  23.234  0.00  0.00    +0.000 A 
ATOM     25  C   UNL     1      -0.422   9.365  22.713  0.00  0.00    +0.000 A 
ATOM     26  C   UNL     1      -0.113   9.300  21.353  0.00  0.00    +0.000 A 
ENDBRANCH  20  21
ENDBRANCH  18  20
ENDBRANCH  17  18
ENDBRANCH  16  17
ENDBRANCH  15  16
ENDBRANCH  10  15
TORSDOF 6
ENDMDL
MODEL 3
REMARK VINA RESULT:      -8.0      2.178      3.004
REMARK  Name = 
REMARK  7 active torsions:
REMARK  status: ('A' for Active; 'I' for Inactive)
REMARK    1  A    between atoms: C_1  and  C_2
REMARK    2  A    between atoms: N_10  and  C_11
REMARK    3  A    between atoms: C_11  and  C_12
REMARK    4  A    between atoms: C_12  and  C_13
REMARK    5  A    between atoms: C_13  and  N_14
REMARK    6  A    between atoms: N_14  and  C_15
REMARK    7  A    between atoms: C_15  and  C_16
REMARK                            x       y       z     vdW  Elec       q    Type
REMARK                         _______ _______ _______ _____ _____    ______ ____
ROOT
ATOM      1  C   UNL     1       6.950   4.529  15.456  0.00  0.00    +0.000 C 
ATOM      2  C   UNL     1       5.885   5.117  16.333  0.00  0.00    +0.000 A 
ATOM      3  C   UNL     1       5.565   6.476  16.287  0.00  0.00    +0.000 A 
ATOM      4  C   UNL     1       4.562   7.024  17.102  0.00  0.00    +0.000 A 
ATOM      5  C   UNL     1       3.874   6.171  17.981  0.00  0.00    +0.000 A 
ATOM      6  C   UNL     1       4.180   4.806  18.048  0.00  0.00    +0.000 A 
ATOM      7  C   UNL     1       5.191   4.281  17.217  0.00  0.00    +0.000 A 
ATOM      8  C   UNL     1       3.327   4.227  19.020  0.00  0.00    +0.000 A 
ATOM      9  C   UNL     1       2.508   5.226  19.509  0.00  0.00    +0.000 A 
ATOM     10  N   UNL     1       2.851   6.406  18.889  0.00  0.00    +0.000 N 
ATOM     11  C   UNL     1       1.460   5.038  20.555  0.00  0.00    +0.000 C 
ATOM     12  C   UNL     1       1.158   3.537  20.736  0.00  0.00    +0.000 C 
ATOM     13  C   UNL     1       2.441   2.690  20.776  0.00  0.00    +0.000 C 
ATOM     14  C   UNL     1       3.239   2.808  19.466  0.00  0.00    +0.000 C 
ENDROOT
BRANCH  10  15
ATOM     15  C   UNL     1       2.241   7.705  19.165  0.00  0.00    +0.000 C 
BRANCH  15  16
ATOM     16  C   UNL     1       1.777   8.403  17.889  0.00  0.00    +0.000 C 
BRANCH  16  17
ATOM     17  C   UNL     1       1.737   9.930  18.025  0.00  0.00    +0.000 C 
BRANCH  17  18
ATOM     18  N   UNL     1       0.343  10.328  18.195  0.00  0.00    +0.000 NA
ATOM     19  H   UNL     1       0.191  11.262  17.817  0.00  0.00    +0.000 HD
BRANCH  18  20
ATOM     20  C   UNL     1      -0.614   9.414  17.576  0.00  0.00    +0.000 C 
BRANCH  20  21
ATOM     21  C   UNL     1      -1.911  10.142  17.286  0.00  0.00    +0.000 A 
ATOM     22  C   UNL     1      -2.523  10.954  18.252  0.00  0.00    +0.000 A 
ATOM     23  C   UNL     1      -3.737  11.591  17.978  0.00  0.00    +0.000 A 
ATOM     24  C   UNL     1      -4.351  11.429  16.738  0.00  0.00    +0.000 A 
ATOM     25  C   UNL     1      -3.748  10.636  15.765  0.00  0.00    +0.000 A 
ATOM     26  C   UNL     1      -2.535  10.002  16.036  0.00  0.00    +0.000 A 
ENDBRANCH  20  21
ENDBRANCH  18  20
ENDBRANCH  17  18
ENDBRANCH  16  17
ENDBRANCH  15  16
ENDBRANCH  10  15
TORSDOF 6
ENDMDL
MODEL 4
REMARK VINA RESULT:      -7.8      1.301      1.722
REMARK  Name = 
REMARK  7 active torsions:
REMARK  status: ('A' for Active; 'I' for Inactive)
REMARK    1  A    between atoms: C_1  and  C_2
REMARK    2  A    between atoms: N_10  and  C_11
REMARK    3  A    between atoms: C_11  and  C_12
REMARK    4  A    between atoms: C_12  and  C_13
REMARK    5  A    between atoms: C_13  and  N_14
REMARK    6  A    between atoms: N_14  and  C_15
REMARK    7  A    between atoms: C_15  and  C_16
REMARK                            x       y       z     vdW  Elec       q    Type
REMARK                         _______ _______ _______ _____ _____    ______ ____
ROOT
ATOM      1  C   UNL     1       6.359   4.257  14.367  0.00  0.00    +0.000 C 
ATOM      2  C   UNL     1       5.511   4.776  15.492  0.00  0.00    +0.000 A 
ATOM      3  C   UNL     1       5.535   6.121  15.868  0.00  0.00    +0.000 A 
ATOM      4  C   UNL     1       4.735   6.607  16.914  0.00  0.00    +0.000 A 
ATOM      5  C   UNL     1       3.897   5.705  17.589  0.00  0.00    +0.000 A 
ATOM      6  C   UNL     1       3.859   4.350  17.233  0.00  0.00    +0.000 A 
ATOM      7  C   UNL     1       4.671   3.889  16.177  0.00  0.00    +0.000 A 
ATOM      8  C   UNL     1       2.932   3.712  18.093  0.00  0.00    +0.000 A 
ATOM      9  C   UNL     1       2.407   4.673  18.935  0.00  0.00    +0.000 A 
ATOM     10  N   UNL     1       3.004   5.877  18.638  0.00  0.00    +0.000 N 
ATOM     11  C   UNL     1       1.392   4.416  19.998  0.00  0.00    +0.000 C 
ATOM     12  C   UNL     1       0.736   3.038  19.782  0.00  0.00    +0.000 C 
ATOM     13  C   UNL     1       1.771   1.955  19.434  0.00  0.00    +0.000 C 
ATOM     14  C   UNL     1       2.515   2.281  18.127  0.00  0.00    +0.000 C 
ENDROOT
BRANCH  10  15
ATOM     15  C   UNL     1       2.746   7.134  19.338  0.00  0.00    +0.000 C 
BRANCH  15  16
ATOM     16  C   UNL     1       1.648   7.951  18.661  0.00  0.00    +0.000 C 
BRANCH  16  17
ATOM     17  C   UNL     1       2.201   9.081  17.783  0.00  0.00    +0.000 C 
BRANCH  17  18
ATOM     18  N   UNL     1       1.195  10.138  17.728  0.00  0.00    +0.000 NA
ATOM     19  H   UNL     1       0.263   9.736  17.627  0.00  0.00    +0.000 HD
BRANCH  18  20
ATOM     20  C   UNL     1       1.197  11.020  18.893  0.00  0.00    +0.000 C 
BRANCH  20  21
ATOM     21  C   UNL     1      -0.217  11.471  19.202  0.00  0.00    +0.000 A 
ATOM     22  C   UNL     1      -0.565  11.962  20.469  0.00  0.00    +0.000 A 
ATOM     23  C   UNL     1      -1.881  12.342  20.745  0.00  0.00    +0.000 A 
ATOM     24  C   UNL     1      -2.863  12.241  19.762  0.00  0.00    +0.000 A 
ATOM     25  C   UNL     1      -2.529  11.767  18.496  0.00  0.00    +0.000 A 
ATOM     26  C   UNL     1      -1.214  11.391  18.217  0.00  0.00    +0.000 A 
ENDBRANCH  20  21
ENDBRANCH  18  20
ENDBRANCH  17  18
ENDBRANCH  16  17
ENDBRANCH  15  16
ENDBRANCH  10  15
TORSDOF 6
ENDMDL
MODEL 5
REMARK VINA RESULT:      -7.8      1.806      2.729
REMARK  Name = 
REMARK  7 active torsions:
REMARK  status: ('A' for Active; 'I' for Inactive)
REMARK    1  A    between atoms: C_1  and  C_2
REMARK    2  A    between atoms: N_10  and  C_11
REMARK    3  A    between atoms: C_11  and  C_12
REMARK    4  A    between atoms: C_12  and  C_13
REMARK    5  A    between atoms: C_13  and  N_14
REMARK    6  A    between atoms: N_14  and  C_15
REMARK    7  A    between atoms: C_15  and  C_16
REMARK                            x       y       z     vdW  Elec       q    Type
REMARK                         _______ _______ _______ _____ _____    ______ ____
ROOT
ATOM      1  C   UNL     1       6.340   3.922  13.790  0.00  0.00    +0.000 C 
ATOM      2  C   UNL     1       5.595   4.533  14.941  0.00  0.00    +0.000 A 
ATOM      3  C   UNL     1       5.721   5.887  15.260  0.00  0.00    +0.000 A 
ATOM      4  C   UNL     1       5.017   6.459  16.331  0.00  0.00    +0.000 A 
ATOM      5  C   UNL     1       4.171   5.635  17.092  0.00  0.00    +0.000 A 
ATOM      6  C   UNL     1       4.031   4.273  16.793  0.00  0.00    +0.000 A 
ATOM      7  C   UNL     1       4.749   3.725  15.711  0.00  0.00    +0.000 A 
ATOM      8  C   UNL     1       3.124   3.724  17.732  0.00  0.00    +0.000 A 
ATOM      9  C   UNL     1       2.709   4.746  18.564  0.00  0.00    +0.000 A 
ATOM     10  N   UNL     1       3.356   5.899  18.184  0.00  0.00    +0.000 N 
ATOM     11  C   UNL     1       1.748   4.591  19.696  0.00  0.00    +0.000 C 
ATOM     12  C   UNL     1       1.001   3.248  19.575  0.00  0.00    +0.000 C 
ATOM     13  C   UNL     1       1.947   2.092  19.210  0.00  0.00    +0.000 C 
ATOM     14  C   UNL     1       2.627   2.323  17.849  0.00  0.00    +0.000 C 
ENDROOT
BRANCH  10  15
ATOM     15  C   UNL     1       3.216   7.195  18.846  0.00  0.00    +0.000 C 
BRANCH  15  16
ATOM     16  C   UNL     1       2.582   8.240  17.931  0.00  0.00    +0.000 C 
BRANCH  16  17
ATOM     17  C   UNL     1       1.071   8.387  18.148  0.00  0.00    +0.000 C 
BRANCH  17  18
ATOM     18  N   UNL     1       0.707   9.767  17.846  0.00  0.00    +0.000 NA
ATOM     19  H   UNL     1       0.318   9.835  16.906  0.00  0.00    +0.000 HD
BRANCH  18  20
ATOM     20  C   UNL     1      -0.248  10.348  18.787  0.00  0.00    +0.000 C 
BRANCH  20  21
ATOM     21  C   UNL     1      -1.577  10.583  18.096  0.00  0.00    +0.000 A 
ATOM     22  C   UNL     1      -2.523  11.477  18.619  0.00  0.00    +0.000 A 
ATOM     23  C   UNL     1      -3.756  11.655  17.985  0.00  0.00    +0.000 A 
ATOM     24  C   UNL     1      -4.059  10.948  16.824  0.00  0.00    +0.000 A 
ATOM     25  C   UNL     1      -3.124  10.066  16.287  0.00  0.00    +0.000 A 
ATOM     26  C   UNL     1      -1.890   9.890  16.915  0.00  0.00    +0.000 A 
ENDBRANCH  20  21
ENDBRANCH  18  20
ENDBRANCH  17  18
ENDBRANCH  16  17
ENDBRANCH  15  16
ENDBRANCH  10  15
TORSDOF 6
ENDMDL
MODEL 6
REMARK VINA RESULT:      -7.7      0.792      1.333
REMARK  Name = 
REMARK  7 active torsions:
REMARK  status: ('A' for Active; 'I' for Inactive)
REMARK    1  A    between atoms: C_1  and  C_2
REMARK    2  A    between atoms: N_10  and  C_11
REMARK    3  A    between atoms: C_11  and  C_12
REMARK    4  A    between atoms: C_12  and  C_13
REMARK    5  A    between atoms: C_13  and  N_14
REMARK    6  A    between atoms: N_14  and  C_15
REMARK    7  A    between atoms: C_15  and  C_16
REMARK                            x       y       z     vdW  Elec       q    Type
REMARK                         _______ _______ _______ _____ _____    ______ ____
ROOT
ATOM      1  C   UNL     1       6.394   4.064  14.163  0.00  0.00    +0.000 C 
ATOM      2  C   UNL     1       5.574   4.616  15.292  0.00  0.00    +0.000 A 
ATOM      3  C   UNL     1       5.630   5.965  15.647  0.00  0.00    +0.000 A 
ATOM      4  C   UNL     1       4.856   6.483  16.698  0.00  0.00    +0.000 A 
ATOM      5  C   UNL     1       4.012   5.608  17.400  0.00  0.00    +0.000 A 
ATOM      6  C   UNL     1       3.941   4.249  17.064  0.00  0.00    +0.000 A 
ATOM      7  C   UNL     1       4.727   3.756  16.004  0.00  0.00    +0.000 A 
ATOM      8  C   UNL     1       3.015   3.642  17.948  0.00  0.00    +0.000 A 
ATOM      9  C   UNL     1       2.523   4.626  18.783  0.00  0.00    +0.000 A 
ATOM     10  N   UNL     1       3.139   5.813  18.459  0.00  0.00    +0.000 N 
ATOM     11  C   UNL     1       1.519   4.405  19.866  0.00  0.00    +0.000 C 
ATOM     12  C   UNL     1       0.833   3.037  19.681  0.00  0.00    +0.000 C 
ATOM     13  C   UNL     1       1.840   1.929  19.333  0.00  0.00    +0.000 C 
ATOM     14  C   UNL     1       2.571   2.220  18.011  0.00  0.00    +0.000 C 
ENDROOT
BRANCH  10  15
ATOM     15  C   UNL     1       2.917   7.085  19.144  0.00  0.00    +0.000 C 
BRANCH  15  16
ATOM     16  C   UNL     1       1.903   7.961  18.411  0.00  0.00    +0.000 C 
BRANCH  16  17
ATOM     17  C   UNL     1       2.344   9.426  18.309  0.00  0.00    +0.000 C 
BRANCH  17  18
ATOM     18  N   UNL     1       1.313  10.154  17.575  0.00  0.00    +0.000 NA
ATOM     19  H   UNL     1       1.283   9.845  16.604  0.00  0.00    +0.000 HD
BRANCH  18  20
ATOM     20  C   UNL     1      -0.026  10.022  18.146  0.00  0.00    +0.000 C 
BRANCH  20  21
ATOM     21  C   UNL     1      -0.132  10.850  19.411  0.00  0.00    +0.000 A 
ATOM     22  C   UNL     1       0.121  12.229  19.403  0.00  0.00    +0.000 A 
ATOM     23  C   UNL     1       0.050  12.971  20.586  0.00  0.00    +0.000 A 
ATOM     24  C   UNL     1      -0.276  12.346  21.788  0.00  0.00    +0.000 A 
ATOM     25  C   UNL     1      -0.542  10.979  21.808  0.00  0.00    +0.000 A 
ATOM     26  C   UNL     1      -0.475  10.238  20.627  0.00  0.00    +0.000 A 
ENDBRANCH  20  21
ENDBRANCH  18  20
ENDBRANCH  17  18
ENDBRANCH  16  17
ENDBRANCH  15  16
ENDBRANCH  10  15
TORSDOF 6
ENDMDL
MODEL 7
REMARK VINA RESULT:      -7.6      2.294      4.688
REMARK  Name = 
REMARK  7 active torsions:
REMARK  status: ('A' for Active; 'I' for Inactive)
REMARK    1  A    between atoms: C_1  and  C_2
REMARK    2  A    between atoms: N_10  and  C_11
REMARK    3  A    between atoms: C_11  and  C_12
REMARK    4  A    between atoms: C_12  and  C_13
REMARK    5  A    between atoms: C_13  and  N_14
REMARK    6  A    between atoms: N_14  and  C_15
REMARK    7  A    between atoms: C_15  and  C_16
REMARK                            x       y       z     vdW  Elec       q    Type
REMARK                         _______ _______ _______ _____ _____    ______ ____
ROOT
ATOM      1  C   UNL     1       1.587   2.738  21.489  0.00  0.00    +0.000 C 
ATOM      2  C   UNL     1       2.019   3.887  20.625  0.00  0.00    +0.000 A 
ATOM      3  C   UNL     1       1.612   5.196  20.890  0.00  0.00    +0.000 A 
ATOM      4  C   UNL     1       2.023   6.272  20.087  0.00  0.00    +0.000 A 
ATOM      5  C   UNL     1       2.863   6.006  18.993  0.00  0.00    +0.000 A 
ATOM      6  C   UNL     1       3.282   4.700  18.706  0.00  0.00    +0.000 A 
ATOM      7  C   UNL     1       2.856   3.639  19.529  0.00  0.00    +0.000 A 
ATOM      8  C   UNL     1       4.106   4.763  17.555  0.00  0.00    +0.000 A 
ATOM      9  C   UNL     1       4.198   6.087  17.174  0.00  0.00    +0.000 A 
ATOM     10  N   UNL     1       3.432   6.837  18.038  0.00  0.00    +0.000 N 
ATOM     11  C   UNL     1       4.974   6.589  16.002  0.00  0.00    +0.000 C 
ATOM     12  C   UNL     1       5.951   5.502  15.511  0.00  0.00    +0.000 C 
ATOM     13  C   UNL     1       5.291   4.115  15.455  0.00  0.00    +0.000 C 
ATOM     14  C   UNL     1       4.811   3.658  16.843  0.00  0.00    +0.000 C 
ENDROOT
BRANCH  10  15
ATOM     15  C   UNL     1       3.238   8.282  17.944  0.00  0.00    +0.000 C 
BRANCH  15  16
ATOM     16  C   UNL     1       1.769   8.651  17.743  0.00  0.00    +0.000 C 
BRANCH  16  17
ATOM     17  C   UNL     1       1.410  10.018  18.340  0.00  0.00    +0.000 C 
BRANCH  17  18
ATOM     18  N   UNL     1      -0.040  10.073  18.492  0.00  0.00    +0.000 NA
ATOM     19  H   UNL     1      -0.344  11.031  18.662  0.00  0.00    +0.000 HD
BRANCH  18  20
ATOM     20  C   UNL     1      -0.777   9.548  17.344  0.00  0.00    +0.000 C 
BRANCH  20  21
ATOM     21  C   UNL     1      -2.102  10.273  17.205  0.00  0.00    +0.000 A 
ATOM     22  C   UNL     1      -2.643  11.011  18.267  0.00  0.00    +0.000 A 
ATOM     23  C   UNL     1      -3.882  11.646  18.131  0.00  0.00    +0.000 A 
ATOM     24  C   UNL     1      -4.591  11.552  16.936  0.00  0.00    +0.000 A 
ATOM     25  C   UNL     1      -4.059  10.832  15.869  0.00  0.00    +0.000 A 
ATOM     26  C   UNL     1      -2.821  10.201  16.002  0.00  0.00    +0.000 A 
ENDBRANCH  20  21
ENDBRANCH  18  20
ENDBRANCH  17  18
ENDBRANCH  16  17
ENDBRANCH  15  16
ENDBRANCH  10  15
TORSDOF 6
ENDMDL
MODEL 8
REMARK VINA RESULT:      -7.6      2.265      2.921
REMARK  Name = 
REMARK  7 active torsions:
REMARK  status: ('A' for Active; 'I' for Inactive)
REMARK    1  A    between atoms: C_1  and  C_2
REMARK    2  A    between atoms: N_10  and  C_11
REMARK    3  A    between atoms: C_11  and  C_12
REMARK    4  A    between atoms: C_12  and  C_13
REMARK    5  A    between atoms: C_13  and  N_14
REMARK    6  A    between atoms: N_14  and  C_15
REMARK    7  A    between atoms: C_15  and  C_16
REMARK                            x       y       z     vdW  Elec       q    Type
REMARK                         _______ _______ _______ _____ _____    ______ ____
ROOT
ATOM      1  C   UNL     1       6.339   3.984  14.028  0.00  0.00    +0.000 C 
ATOM      2  C   UNL     1       5.537   4.589  15.143  0.00  0.00    +0.000 A 
ATOM      3  C   UNL     1       5.585   5.956  15.423  0.00  0.00    +0.000 A 
ATOM      4  C   UNL     1       4.827   6.523  16.461  0.00  0.00    +0.000 A 
ATOM      5  C   UNL     1       4.008   5.678  17.227  0.00  0.00    +0.000 A 
ATOM      6  C   UNL     1       3.946   4.302  16.968  0.00  0.00    +0.000 A 
ATOM      7  C   UNL     1       4.716   3.760  15.919  0.00  0.00    +0.000 A 
ATOM      8  C   UNL     1       3.046   3.735  17.903  0.00  0.00    +0.000 A 
ATOM      9  C   UNL     1       2.560   4.757  18.694  0.00  0.00    +0.000 A 
ATOM     10  N   UNL     1       3.155   5.932  18.293  0.00  0.00    +0.000 N 
ATOM     11  C   UNL     1       1.583   4.586  19.809  0.00  0.00    +0.000 C 
ATOM     12  C   UNL     1       0.908   3.203  19.713  0.00  0.00    +0.000 C 
ATOM     13  C   UNL     1       1.921   2.088  19.404  0.00  0.00    +0.000 C 
ATOM     14  C   UNL     1       2.620   2.314  18.053  0.00  0.00    +0.000 C 
ENDROOT
BRANCH  10  15
ATOM     15  C   UNL     1       2.933   7.237  18.911  0.00  0.00    +0.000 C 
BRANCH  15  16
ATOM     16  C   UNL     1       2.022   8.124  18.066  0.00  0.00    +0.000 C 
BRANCH  16  17
ATOM     17  C   UNL     1       1.292   9.190  18.893  0.00  0.00    +0.000 C 
BRANCH  17  18
ATOM     18  N   UNL     1       1.434  10.468  18.202  0.00  0.00    +0.000 NA
ATOM     19  H   UNL     1       1.206  10.365  17.213  0.00  0.00    +0.000 HD
BRANCH  18  20
ATOM     20  C   UNL     1       0.611  11.538  18.760  0.00  0.00    +0.000 C 
BRANCH  20  21
ATOM     21  C   UNL     1       1.331  12.866  18.627  0.00  0.00    +0.000 A 
ATOM     22  C   UNL     1       2.674  12.931  18.231  0.00  0.00    +0.000 A 
ATOM     23  C   UNL     1       3.330  14.162  18.145  0.00  0.00    +0.000 A 
ATOM     24  C   UNL     1       2.654  15.341  18.452  0.00  0.00    +0.000 A 
ATOM     25  C   UNL     1       1.316  15.292  18.835  0.00  0.00    +0.000 A 
ATOM     26  C   UNL     1       0.658  14.064  18.917  0.00  0.00    +0.000 A 
ENDBRANCH  20  21
ENDBRANCH  18  20
ENDBRANCH  17  18
ENDBRANCH  16  17
ENDBRANCH  15  16
ENDBRANCH  10  15
TORSDOF 6
ENDMDL
MODEL 9
REMARK VINA RESULT:      -7.6      2.648      7.691
REMARK  Name = 
REMARK  7 active torsions:
REMARK  status: ('A' for Active; 'I' for Inactive)
REMARK    1  A    between atoms: C_1  and  C_2
REMARK    2  A    between atoms: N_10  and  C_11
REMARK    3  A    between atoms: C_11  and  C_12
REMARK    4  A    between atoms: C_12  and  C_13
REMARK    5  A    between atoms: C_13  and  N_14
REMARK    6  A    between atoms: N_14  and  C_15
REMARK    7  A    between atoms: C_15  and  C_16
REMARK                            x       y       z     vdW  Elec       q    Type
REMARK                         _______ _______ _______ _____ _____    ______ ____
ROOT
ATOM      1  C   UNL     1       1.344   9.736  18.572  0.00  0.00    +0.000 C 
ATOM      2  C   UNL     1       2.114   8.450  18.490  0.00  0.00    +0.000 A 
ATOM      3  C   UNL     1       3.178   8.287  17.601  0.00  0.00    +0.000 A 
ATOM      4  C   UNL     1       3.903   7.087  17.531  0.00  0.00    +0.000 A 
ATOM      5  C   UNL     1       3.533   6.033  18.383  0.00  0.00    +0.000 A 
ATOM      6  C   UNL     1       2.467   6.171  19.281  0.00  0.00    +0.000 A 
ATOM      7  C   UNL     1       1.757   7.388  19.331  0.00  0.00    +0.000 A 
ATOM      8  C   UNL     1       2.345   4.948  19.985  0.00  0.00    +0.000 A 
ATOM      9  C   UNL     1       3.337   4.101  19.533  0.00  0.00    +0.000 A 
ATOM     10  N   UNL     1       4.046   4.754  18.552  0.00  0.00    +0.000 N 
ATOM     11  C   UNL     1       3.558   2.707  20.018  0.00  0.00    +0.000 C 
ATOM     12  C   UNL     1       2.792   2.477  21.336  0.00  0.00    +0.000 C 
ATOM     13  C   UNL     1       1.367   3.052  21.283  0.00  0.00    +0.000 C 
ATOM     14  C   UNL     1       1.377   4.574  21.056  0.00  0.00    +0.000 C 
ENDROOT
BRANCH  10  15
ATOM     15  C   UNL     1       5.155   4.177  17.795  0.00  0.00    +0.000 C 
BRANCH  15  16
ATOM     16  C   UNL     1       6.500   4.410  18.482  0.00  0.00    +0.000 C 
BRANCH  16  17
ATOM     17  C   UNL     1       7.373   5.438  17.752  0.00  0.00    +0.000 C 
BRANCH  17  18
ATOM     18  N   UNL     1       7.629   4.934  16.406  0.00  0.00    +0.000 NA
ATOM     19  H   UNL     1       7.247   3.994  16.300  0.00  0.00    +0.000 HD
BRANCH  18  20
ATOM     20  C   UNL     1       7.087   5.778  15.344  0.00  0.00    +0.000 C 
BRANCH  20  21
ATOM     21  C   UNL     1       6.682   4.922  14.160  0.00  0.00    +0.000 A 
ATOM     22  C   UNL     1       5.464   4.226  14.146  0.00  0.00    +0.000 A 
ATOM     23  C   UNL     1       5.123   3.416  13.059  0.00  0.00    +0.000 A 
ATOM     24  C   UNL     1       5.989   3.292  11.975  0.00  0.00    +0.000 A 
ATOM     25  C   UNL     1       7.196   3.988  11.970  0.00  0.00    +0.000 A 
ATOM     26  C   UNL     1       7.537   4.801  13.052  0.00  0.00    +0.000 A 
ENDBRANCH  20  21
ENDBRANCH  18  20
ENDBRANCH  17  18
ENDBRANCH  16  17
ENDBRANCH  15  16
ENDBRANCH  10  15
TORSDOF 6
ENDMDL
