MODEL 1
REMARK VINA RESULT:      -7.8      0.000      0.000
REMARK  Name = 
REMARK  12 active torsions:
REMARK  status: ('A' for Active; 'I' for Inactive)
REMARK    1  A    between atoms: C_1  and  O_2
REMARK    2  A    between atoms: O_2  and  C_3
REMARK    3  A    between atoms: C_6  and  C_7
REMARK    4  A    between atoms: N_9  and  C_10
REMARK    5  A    between atoms: C_10  and  C_11
REMARK    6  A    between atoms: C_14  and  O_15
REMARK    7  A    between atoms: O_15  and  C_16
REMARK    8  A    between atoms: C_17  and  O_18
REMARK    9  A    between atoms: O_18  and  C_19
REMARK   10  A    between atoms: C_22  and  C_23
REMARK   11  A    between atoms: C_23  and  N_24
REMARK   12  A    between atoms: C_25  and  C_27
REMARK                            x       y       z     vdW  Elec       q    Type
REMARK                         _______ _______ _______ _____ _____    ______ ____
ROOT
ATOM      1  C   UNL     1       0.455  10.326  20.056  0.00  0.00    +0.000 C 
ATOM      2  C   UNL     1       0.709  11.442  21.098  0.00  0.00    +0.000 C 
ATOM      3  N   UNL     1      -0.331  11.300  22.138  0.00  0.00    +0.000 NA
ATOM      4  C   UNL     1      -0.523   9.835  22.233  0.00  0.00    +0.000 C 
ATOM      5  C   UNL     1       0.157   9.160  21.019  0.00  0.00    +0.000 C 
ENDROOT
BRANCH   1   9
ATOM      6  C   UNL     1      -2.464  11.123  16.907  0.00  0.00    +0.000 A 
ATOM      7  C   UNL     1      -2.351   9.883  17.521  0.00  0.00    +0.000 A 
ATOM      8  C   UNL     1      -1.466   9.683  18.583  0.00  0.00    +0.000 A 
ATOM      9  C   UNL     1      -0.591  10.692  19.001  0.00  0.00    +0.000 A 
ATOM     10  C   UNL     1      -0.727  11.959  18.391  0.00  0.00    +0.000 A 
ATOM     11  C   UNL     1      -1.661  12.172  17.350  0.00  0.00    +0.000 A 
BRANCH   6  13
ATOM     12  C   UNL     1      -3.143  10.266  14.794  0.00  0.00    +0.000 C 
ATOM     13  O   UNL     1      -3.361  11.159  15.877  0.00  0.00    +0.000 OA
ENDBRANCH   6  13
ENDBRANCH   1   9
BRANCH   3  14
ATOM     14  C   UNL     1      -1.606  11.997  21.803  0.00  0.00    +0.000 C 
BRANCH  14  15
ATOM     15  C   UNL     1      -2.040  13.082  22.791  0.00  0.00    +0.000 A 
ATOM     16  C   UNL     1      -1.088  13.835  23.491  0.00  0.00    +0.000 A 
ATOM     17  C   UNL     1      -1.492  14.838  24.387  0.00  0.00    +0.000 A 
ATOM     18  C   UNL     1      -2.852  15.135  24.583  0.00  0.00    +0.000 A 
ATOM     19  C   UNL     1      -3.814  14.381  23.893  0.00  0.00    +0.000 A 
ATOM     20  C   UNL     1      -3.402  13.324  23.059  0.00  0.00    +0.000 A 
BRANCH  18  21
ATOM     21  O   UNL     1      -3.062  16.181  25.449  0.00  0.00    +0.000 OA
ATOM     22  C   UNL     1      -3.403  17.444  24.891  0.00  0.00    +0.000 C 
ENDBRANCH  18  21
BRANCH  19  23
ATOM     23  O   UNL     1      -5.145  14.636  24.107  0.00  0.00    +0.000 OA
ATOM     24  C   UNL     1      -6.002  14.670  22.972  0.00  0.00    +0.000 C 
ENDBRANCH  19  23
ENDBRANCH  14  15
ENDBRANCH   3  14
BRANCH   5  25
ATOM     25  C   UNL     1       1.480   8.468  21.423  0.00  0.00    +0.000 C 
BRANCH  25  26
ATOM     26  N   UNL     1       1.478   7.051  21.144  0.00  0.00    +0.000 N 
ATOM     27  C   UNL     1       2.066   6.538  20.025  0.00  0.00    +0.000 C 
ATOM     28  O   UNL     1       2.627   7.254  19.185  0.00  0.00    +0.000 OA
ATOM     29  H   UNL     1       1.130   6.422  21.862  0.00  0.00    +0.000 HD
BRANCH  27  30
ATOM     30  C   UNL     1       2.037   5.075  19.838  0.00  0.00    +0.000 A 
ATOM     31  C   UNL     1       1.219   4.326  20.685  0.00  0.00    +0.000 A 
ATOM     32  C   UNL     1       1.173   2.939  20.566  0.00  0.00    +0.000 A 
ATOM     33  C   UNL     1       1.959   2.302  19.607  0.00  0.00    +0.000 A 
ATOM     34  C   UNL     1       2.788   3.057  18.771  0.00  0.00    +0.000 A 
ATOM     35 CL   UNL     1       3.778   2.263  17.612  0.00  0.00    +0.000 Cl
ATOM     36  C   UNL     1       2.831   4.451  18.878  0.00  0.00    +0.000 A 
ENDBRANCH  27  30
ENDBRANCH  25  26
ENDBRANCH   5  25
TORSDOF 9
ENDMDL
MODEL 2
REMARK VINA RESULT:      -7.6      1.187      1.917
REMARK  Name = 
REMARK  12 active torsions:
REMARK  status: ('A' for Active; 'I' for Inactive)
REMARK    1  A    between atoms: C_1  and  O_2
REMARK    2  A    between atoms: O_2  and  C_3
REMARK    3  A    between atoms: C_6  and  C_7
REMARK    4  A    between atoms: N_9  and  C_10
REMARK    5  A    between atoms: C_10  and  C_11
REMARK    6  A    between atoms: C_14  and  O_15
REMARK    7  A    between atoms: O_15  and  C_16
REMARK    8  A    between atoms: C_17  and  O_18
REMARK    9  A    between atoms: O_18  and  C_19
REMARK   10  A    between atoms: C_22  and  C_23
REMARK   11  A    between atoms: C_23  and  N_24
REMARK   12  A    between atoms: C_25  and  C_27
REMARK                            x       y       z     vdW  Elec       q    Type
REMARK                         _______ _______ _______ _____ _____    ______ ____
ROOT
ATOM      1  C   UNL     1       0.001  10.513  20.175  0.00  0.00    +0.000 C 
ATOM      2  C   UNL     1       0.320  11.556  21.273  0.00  0.00    +0.000 C 
ATOM      3  N   UNL     1      -0.432  11.150  22.479  0.00  0.00    +0.000 NA
ATOM      4  C   UNL     1      -0.389   9.672  22.428  0.00  0.00    +0.000 C 
ATOM      5  C   UNL     1       0.092   9.231  21.026  0.00  0.00    +0.000 C 
ENDROOT
BRANCH   1   9
ATOM      6  C   UNL     1      -3.560  11.241  17.753  0.00  0.00    +0.000 A 
ATOM      7  C   UNL     1      -2.797  10.088  17.627  0.00  0.00    +0.000 A 
ATOM      8  C   UNL     1      -1.713   9.845  18.474  0.00  0.00    +0.000 A 
ATOM      9  C   UNL     1      -1.295  10.797  19.412  0.00  0.00    +0.000 A 
ATOM     10  C   UNL     1      -2.089  11.957  19.553  0.00  0.00    +0.000 A 
ATOM     11  C   UNL     1      -3.217  12.175  18.728  0.00  0.00    +0.000 A 
BRANCH   6  13
ATOM     12  C   UNL     1      -5.641  12.229  17.158  0.00  0.00    +0.000 C 
ATOM     13  O   UNL     1      -4.577  11.342  16.846  0.00  0.00    +0.000 OA
ENDBRANCH   6  13
ENDBRANCH   1   9
BRANCH   3  14
ATOM     14  C   UNL     1      -1.834  11.655  22.503  0.00  0.00    +0.000 C 
BRANCH  14  15
ATOM     15  C   UNL     1      -2.053  12.948  23.292  0.00  0.00    +0.000 A 
ATOM     16  C   UNL     1      -3.302  13.239  23.856  0.00  0.00    +0.000 A 
ATOM     17  C   UNL     1      -3.494  14.421  24.590  0.00  0.00    +0.000 A 
ATOM     18  C   UNL     1      -2.439  15.324  24.807  0.00  0.00    +0.000 A 
ATOM     19  C   UNL     1      -1.186  15.045  24.240  0.00  0.00    +0.000 A 
ATOM     20  C   UNL     1      -1.025  13.899  23.438  0.00  0.00    +0.000 A 
BRANCH  18  21
ATOM     21  O   UNL     1      -2.791  16.394  25.594  0.00  0.00    +0.000 OA
ATOM     22  C   UNL     1      -3.335  17.539  24.948  0.00  0.00    +0.000 C 
ENDBRANCH  18  21
BRANCH  19  23
ATOM     23  O   UNL     1      -0.159  15.939  24.412  0.00  0.00    +0.000 OA
ATOM     24  C   UNL     1       0.320  16.626  23.263  0.00  0.00    +0.000 C 
ENDBRANCH  19  23
ENDBRANCH  14  15
ENDBRANCH   3  14
BRANCH   5  25
ATOM     25  C   UNL     1       1.556   8.733  21.059  0.00  0.00    +0.000 C 
BRANCH  25  26
ATOM     26  N   UNL     1       1.657   7.292  21.014  0.00  0.00    +0.000 N 
ATOM     27  C   UNL     1       2.119   6.639  19.908  0.00  0.00    +0.000 C 
ATOM     28  O   UNL     1       2.470   7.239  18.884  0.00  0.00    +0.000 OA
ATOM     29  H   UNL     1       1.488   6.773  21.871  0.00  0.00    +0.000 HD
BRANCH  27  30
ATOM     30  C   UNL     1       2.213   5.168  19.964  0.00  0.00    +0.000 A 
ATOM     31  C   UNL     1       2.020   4.550  21.201  0.00  0.00    +0.000 A 
ATOM     32  C   UNL     1       2.121   3.165  21.313  0.00  0.00    +0.000 A 
ATOM     33  C   UNL     1       2.430   2.402  20.188  0.00  0.00    +0.000 A 
ATOM     34  C   UNL     1       2.637   3.029  18.955  0.00  0.00    +0.000 A 
ATOM     35 CL   UNL     1       3.048   2.085  17.579  0.00  0.00    +0.000 Cl
ATOM     36  C   UNL     1       2.526   4.418  18.833  0.00  0.00    +0.000 A 
ENDBRANCH  27  30
ENDBRANCH  25  26
ENDBRANCH   5  25
TORSDOF 9
ENDMDL
MODEL 3
REMARK VINA RESULT:      -7.5      1.967      2.379
REMARK  Name = 
REMARK  12 active torsions:
REMARK  status: ('A' for Active; 'I' for Inactive)
REMARK    1  A    between atoms: C_1  and  O_2
REMARK    2  A    between atoms: O_2  and  C_3
REMARK    3  A    between atoms: C_6  and  C_7
REMARK    4  A    between atoms: N_9  and  C_10
REMARK    5  A    between atoms: C_10  and  C_11
REMARK    6  A    between atoms: C_14  and  O_15
REMARK    7  A    between atoms: O_15  and  C_16
REMARK    8  A    between atoms: C_17  and  O_18
REMARK    9  A    between atoms: O_18  and  C_19
REMARK   10  A    between atoms: C_22  and  C_23
REMARK   11  A    between atoms: C_23  and  N_24
REMARK   12  A    between atoms: C_25  and  C_27
REMARK                            x       y       z     vdW  Elec       q    Type
REMARK                         _______ _______ _______ _____ _____    ______ ____
ROOT
ATOM      1  C   UNL     1      -0.150  10.904  18.605  0.00  0.00    +0.000 C 
ATOM      2  C   UNL     1       0.415  11.710  19.799  0.00  0.00    +0.000 C 
ATOM      3  N   UNL     1       0.347  10.825  20.981  0.00  0.00    +0.000 NA
ATOM      4  C   UNL     1       0.634   9.485  20.423  0.00  0.00    +0.000 C 
ATOM      5  C   UNL     1       0.533   9.551  18.881  0.00  0.00    +0.000 C 
ENDROOT
BRANCH   1   9
ATOM      6  C   UNL     1      -4.478  10.960  18.018  0.00  0.00    +0.000 A 
ATOM      7  C   UNL     1      -3.674   9.939  17.530  0.00  0.00    +0.000 A 
ATOM      8  C   UNL     1      -2.305   9.906  17.806  0.00  0.00    +0.000 A 
ATOM      9  C   UNL     1      -1.676  10.948  18.498  0.00  0.00    +0.000 A 
ATOM     10  C   UNL     1      -2.503  11.971  19.014  0.00  0.00    +0.000 A 
ATOM     11  C   UNL     1      -3.897  11.974  18.776  0.00  0.00    +0.000 A 
BRANCH   6  13
ATOM     12  C   UNL     1      -6.736  10.609  18.683  0.00  0.00    +0.000 C 
ATOM     13  O   UNL     1      -5.791  10.862  17.652  0.00  0.00    +0.000 OA
ENDBRANCH   6  13
ENDBRANCH   1   9
BRANCH   3  14
ATOM     14  C   UNL     1      -0.974  10.857  21.673  0.00  0.00    +0.000 C 
BRANCH  14  15
ATOM     15  C   UNL     1      -1.306  12.166  22.393  0.00  0.00    +0.000 A 
ATOM     16  C   UNL     1      -0.412  13.245  22.366  0.00  0.00    +0.000 A 
ATOM     17  C   UNL     1      -0.727  14.448  23.018  0.00  0.00    +0.000 A 
ATOM     18  C   UNL     1      -1.953  14.616  23.685  0.00  0.00    +0.000 A 
ATOM     19  C   UNL     1      -2.852  13.539  23.726  0.00  0.00    +0.000 A 
ATOM     20  C   UNL     1      -2.492  12.310  23.138  0.00  0.00    +0.000 A 
BRANCH  18  21
ATOM     21  O   UNL     1      -2.117  15.872  24.216  0.00  0.00    +0.000 OA
ATOM     22  C   UNL     1      -1.182  16.877  23.839  0.00  0.00    +0.000 C 
ENDBRANCH  18  21
BRANCH  19  23
ATOM     23  O   UNL     1      -4.034  13.678  24.407  0.00  0.00    +0.000 OA
ATOM     24  C   UNL     1      -4.660  12.497  24.894  0.00  0.00    +0.000 C 
ENDBRANCH  19  23
ENDBRANCH  14  15
ENDBRANCH   3  14
BRANCH   5  25
ATOM     25  C   UNL     1       1.931   9.531  18.220  0.00  0.00    +0.000 C 
BRANCH  25  26
ATOM     26  N   UNL     1       2.290   8.227  17.710  0.00  0.00    +0.000 N 
ATOM     27  C   UNL     1       2.650   7.205  18.540  0.00  0.00    +0.000 C 
ATOM     28  O   UNL     1       2.696   7.337  19.770  0.00  0.00    +0.000 OA
ATOM     29  H   UNL     1       2.154   8.046  16.720  0.00  0.00    +0.000 HD
BRANCH  27  30
ATOM     30  C   UNL     1       2.973   5.901  17.931  0.00  0.00    +0.000 A 
ATOM     31  C   UNL     1       2.026   4.881  18.035  0.00  0.00    +0.000 A 
ATOM     32  C   UNL     1       2.291   3.624  17.497  0.00  0.00    +0.000 A 
ATOM     33  C   UNL     1       3.513   3.386  16.868  0.00  0.00    +0.000 A 
ATOM     34  C   UNL     1       4.463   4.408  16.780  0.00  0.00    +0.000 A 
ATOM     35 CL   UNL     1       5.978   4.098  16.031  0.00  0.00    +0.000 Cl
ATOM     36  C   UNL     1       4.199   5.676  17.309  0.00  0.00    +0.000 A 
ENDBRANCH  27  30
ENDBRANCH  25  26
ENDBRANCH   5  25
TORSDOF 9
ENDMDL
MODEL 4
REMARK VINA RESULT:      -7.5      3.215      5.292
REMARK  Name = 
REMARK  12 active torsions:
REMARK  status: ('A' for Active; 'I' for Inactive)
REMARK    1  A    between atoms: C_1  and  O_2
REMARK    2  A    between atoms: O_2  and  C_3
REMARK    3  A    between atoms: C_6  and  C_7
REMARK    4  A    between atoms: N_9  and  C_10
REMARK    5  A    between atoms: C_10  and  C_11
REMARK    6  A    between atoms: C_14  and  O_15
REMARK    7  A    between atoms: O_15  and  C_16
REMARK    8  A    between atoms: C_17  and  O_18
REMARK    9  A    between atoms: O_18  and  C_19
REMARK   10  A    between atoms: C_22  and  C_23
REMARK   11  A    between atoms: C_23  and  N_24
REMARK   12  A    between atoms: C_25  and  C_27
REMARK                            x       y       z     vdW  Elec       q    Type
REMARK                         _______ _______ _______ _____ _____    ______ ____
ROOT
ATOM      1  C   UNL     1       1.322  11.083  20.678  0.00  0.00    +0.000 C 
ATOM      2  C   UNL     1       0.048  11.148  21.553  0.00  0.00    +0.000 C 
ATOM      3  N   UNL     1      -1.103  10.954  20.646  0.00  0.00    +0.000 NA
ATOM      4  C   UNL     1      -0.594   9.985  19.649  0.00  0.00    +0.000 C 
ATOM      5  C   UNL     1       0.942   9.884  19.787  0.00  0.00    +0.000 C 
ENDROOT
BRANCH   1   9
ATOM      6  C   UNL     1       2.116  14.995  18.905  0.00  0.00    +0.000 A 
ATOM      7  C   UNL     1       1.846  14.831  20.257  0.00  0.00    +0.000 A 
ATOM      8  C   UNL     1       1.680  13.559  20.810  0.00  0.00    +0.000 A 
ATOM      9  C   UNL     1       1.679  12.411  20.007  0.00  0.00    +0.000 A 
ATOM     10  C   UNL     1       1.979  12.581  18.637  0.00  0.00    +0.000 A 
ATOM     11  C   UNL     1       2.198  13.868  18.091  0.00  0.00    +0.000 A 
BRANCH   6  13
ATOM     12  C   UNL     1       3.239  16.594  17.547  0.00  0.00    +0.000 C 
ATOM     13  O   UNL     1       2.239  16.298  18.512  0.00  0.00    +0.000 OA
ENDBRANCH   6  13
ENDBRANCH   1   9
BRANCH   3  14
ATOM     14  C   UNL     1      -1.567  12.213  19.996  0.00  0.00    +0.000 C 
BRANCH  14  15
ATOM     15  C   UNL     1      -2.913  12.121  19.273  0.00  0.00    +0.000 A 
ATOM     16  C   UNL     1      -4.097  12.509  19.913  0.00  0.00    +0.000 A 
ATOM     17  C   UNL     1      -5.328  12.435  19.241  0.00  0.00    +0.000 A 
ATOM     18  C   UNL     1      -5.404  12.003  17.905  0.00  0.00    +0.000 A 
ATOM     19  C   UNL     1      -4.224  11.604  17.258  0.00  0.00    +0.000 A 
ATOM     20  C   UNL     1      -3.007  11.605  17.966  0.00  0.00    +0.000 A 
BRANCH  18  21
ATOM     21  O   UNL     1      -6.676  12.048  17.389  0.00  0.00    +0.000 OA
ATOM     22  C   UNL     1      -7.173  13.311  16.964  0.00  0.00    +0.000 C 
ENDBRANCH  18  21
BRANCH  19  23
ATOM     23  O   UNL     1      -4.291  11.143  15.967  0.00  0.00    +0.000 OA
ATOM     24  C   UNL     1      -3.140  10.500  15.433  0.00  0.00    +0.000 C 
ENDBRANCH  19  23
ENDBRANCH  14  15
ENDBRANCH   3  14
BRANCH   5  25
ATOM     25  C   UNL     1       1.363   8.567  20.481  0.00  0.00    +0.000 C 
BRANCH  25  26
ATOM     26  N   UNL     1       2.109   7.689  19.608  0.00  0.00    +0.000 N 
ATOM     27  C   UNL     1       2.190   6.346  19.839  0.00  0.00    +0.000 C 
ATOM     28  O   UNL     1       1.637   5.807  20.807  0.00  0.00    +0.000 OA
ATOM     29  H   UNL     1       2.479   8.074  18.744  0.00  0.00    +0.000 HD
BRANCH  27  30
ATOM     30  C   UNL     1       2.951   5.525  18.879  0.00  0.00    +0.000 A 
ATOM     31  C   UNL     1       3.706   6.188  17.910  0.00  0.00    +0.000 A 
ATOM     32  C   UNL     1       4.425   5.460  16.965  0.00  0.00    +0.000 A 
ATOM     33  C   UNL     1       4.373   4.066  16.982  0.00  0.00    +0.000 A 
ATOM     34  C   UNL     1       3.602   3.409  17.947  0.00  0.00    +0.000 A 
ATOM     35 CL   UNL     1       3.519   1.692  17.942  0.00  0.00    +0.000 Cl
ATOM     36  C   UNL     1       2.887   4.134  18.905  0.00  0.00    +0.000 A 
ENDBRANCH  27  30
ENDBRANCH  25  26
ENDBRANCH   5  25
TORSDOF 9
ENDMDL
MODEL 5
REMARK VINA RESULT:      -7.5      3.273      5.432
REMARK  Name = 
REMARK  12 active torsions:
REMARK  status: ('A' for Active; 'I' for Inactive)
REMARK    1  A    between atoms: C_1  and  O_2
REMARK    2  A    between atoms: O_2  and  C_3
REMARK    3  A    between atoms: C_6  and  C_7
REMARK    4  A    between atoms: N_9  and  C_10
REMARK    5  A    between atoms: C_10  and  C_11
REMARK    6  A    between atoms: C_14  and  O_15
REMARK    7  A    between atoms: O_15  and  C_16
REMARK    8  A    between atoms: C_17  and  O_18
REMARK    9  A    between atoms: O_18  and  C_19
REMARK   10  A    between atoms: C_22  and  C_23
REMARK   11  A    between atoms: C_23  and  N_24
REMARK   12  A    between atoms: C_25  and  C_27
REMARK                            x       y       z     vdW  Elec       q    Type
REMARK                         _______ _______ _______ _____ _____    ______ ____
ROOT
ATOM      1  C   UNL     1       1.196  11.099  20.917  0.00  0.00    +0.000 C 
ATOM      2  C   UNL     1      -0.043  11.082  21.842  0.00  0.00    +0.000 C 
ATOM      3  N   UNL     1      -1.212  10.787  20.987  0.00  0.00    +0.000 NA
ATOM      4  C   UNL     1      -0.671   9.843  19.983  0.00  0.00    +0.000 C 
ATOM      5  C   UNL     1       0.874   9.860  20.058  0.00  0.00    +0.000 C 
ENDROOT
BRANCH   1   9
ATOM      6  C   UNL     1       2.101  14.820  18.816  0.00  0.00    +0.000 A 
ATOM      7  C   UNL     1       2.266  13.574  18.228  0.00  0.00    +0.000 A 
ATOM      8  C   UNL     1       1.888  12.406  18.894  0.00  0.00    +0.000 A 
ATOM      9  C   UNL     1       1.424  12.439  20.215  0.00  0.00    +0.000 A 
ATOM     10  C   UNL     1       1.235  13.711  20.800  0.00  0.00    +0.000 A 
ATOM     11  C   UNL     1       1.570  14.895  20.102  0.00  0.00    +0.000 A 
BRANCH   6  13
ATOM     12  C   UNL     1       3.624  15.624  17.175  0.00  0.00    +0.000 C 
ATOM     13  O   UNL     1       2.529  15.865  18.047  0.00  0.00    +0.000 OA
ENDBRANCH   6  13
ENDBRANCH   1   9
BRANCH   3  14
ATOM     14  C   UNL     1      -1.796  11.996  20.340  0.00  0.00    +0.000 C 
BRANCH  14  15
ATOM     15  C   UNL     1      -2.468  11.757  18.986  0.00  0.00    +0.000 A 
ATOM     16  C   UNL     1      -1.700  11.555  17.832  0.00  0.00    +0.000 A 
ATOM     17  C   UNL     1      -2.323  11.323  16.594  0.00  0.00    +0.000 A 
ATOM     18  C   UNL     1      -3.722  11.256  16.483  0.00  0.00    +0.000 A 
ATOM     19  C   UNL     1      -4.500  11.465  17.632  0.00  0.00    +0.000 A 
ATOM     20  C   UNL     1      -3.870  11.777  18.852  0.00  0.00    +0.000 A 
BRANCH  18  21
ATOM     21  O   UNL     1      -4.155  10.965  15.212  0.00  0.00    +0.000 OA
ATOM     22  C   UNL     1      -3.329  10.133  14.406  0.00  0.00    +0.000 C 
ENDBRANCH  18  21
BRANCH  19  23
ATOM     23  O   UNL     1      -5.869  11.440  17.529  0.00  0.00    +0.000 OA
ATOM     24  C   UNL     1      -6.594  10.729  18.523  0.00  0.00    +0.000 C 
ENDBRANCH  19  23
ENDBRANCH  14  15
ENDBRANCH   3  14
BRANCH   5  25
ATOM     25  C   UNL     1       1.421   8.591  20.751  0.00  0.00    +0.000 C 
BRANCH  25  26
ATOM     26  N   UNL     1       2.138   7.724  19.844  0.00  0.00    +0.000 N 
ATOM     27  C   UNL     1       2.118   6.366  19.981  0.00  0.00    +0.000 C 
ATOM     28  O   UNL     1       1.491   5.802  20.887  0.00  0.00    +0.000 OA
ATOM     29  H   UNL     1       2.568   8.140  19.023  0.00  0.00    +0.000 HD
BRANCH  27  30
ATOM     30  C   UNL     1       2.858   5.561  18.991  0.00  0.00    +0.000 A 
ATOM     31  C   UNL     1       3.609   6.240  18.030  0.00  0.00    +0.000 A 
ATOM     32  C   UNL     1       4.309   5.528  17.058  0.00  0.00    +0.000 A 
ATOM     33  C   UNL     1       4.241   4.135  17.041  0.00  0.00    +0.000 A 
ATOM     34  C   UNL     1       3.474   3.462  17.998  0.00  0.00    +0.000 A 
ATOM     35 CL   UNL     1       3.371   1.747  17.951  0.00  0.00    +0.000 Cl
ATOM     36  C   UNL     1       2.779   4.171  18.983  0.00  0.00    +0.000 A 
ENDBRANCH  27  30
ENDBRANCH  25  26
ENDBRANCH   5  25
TORSDOF 9
ENDMDL
MODEL 6
REMARK VINA RESULT:      -7.4      1.973      2.467
REMARK  Name = 
REMARK  12 active torsions:
REMARK  status: ('A' for Active; 'I' for Inactive)
REMARK    1  A    between atoms: C_1  and  O_2
REMARK    2  A    between atoms: O_2  and  C_3
REMARK    3  A    between atoms: C_6  and  C_7
REMARK    4  A    between atoms: N_9  and  C_10
REMARK    5  A    between atoms: C_10  and  C_11
REMARK    6  A    between atoms: C_14  and  O_15
REMARK    7  A    between atoms: O_15  and  C_16
REMARK    8  A    between atoms: C_17  and  O_18
REMARK    9  A    between atoms: O_18  and  C_19
REMARK   10  A    between atoms: C_22  and  C_23
REMARK   11  A    between atoms: C_23  and  N_24
REMARK   12  A    between atoms: C_25  and  C_27
REMARK                            x       y       z     vdW  Elec       q    Type
REMARK                         _______ _______ _______ _____ _____    ______ ____
ROOT
ATOM      1  C   UNL     1       0.583  10.127  20.151  0.00  0.00    +0.000 C 
ATOM      2  C   UNL     1       0.871  11.160  21.266  0.00  0.00    +0.000 C 
ATOM      3  N   UNL     1      -0.177  10.982  22.294  0.00  0.00    +0.000 NA
ATOM      4  C   UNL     1      -0.417   9.522  22.288  0.00  0.00    +0.000 C 
ATOM      5  C   UNL     1       0.243   8.908  21.031  0.00  0.00    +0.000 C 
ENDROOT
BRANCH   1   9
ATOM      6  C   UNL     1      -2.303  11.234  17.065  0.00  0.00    +0.000 A 
ATOM      7  C   UNL     1      -2.249   9.959  17.611  0.00  0.00    +0.000 A 
ATOM      8  C   UNL     1      -1.373   9.659  18.656  0.00  0.00    +0.000 A 
ATOM      9  C   UNL     1      -0.447  10.600  19.123  0.00  0.00    +0.000 A 
ATOM     10  C   UNL     1      -0.522  11.902  18.580  0.00  0.00    +0.000 A 
ATOM     11  C   UNL     1      -1.447  12.216  17.558  0.00  0.00    +0.000 A 
BRANCH   6  13
ATOM     12  C   UNL     1      -3.168  10.387  15.017  0.00  0.00    +0.000 C 
ATOM     13  O   UNL     1      -3.200  11.368  16.043  0.00  0.00    +0.000 OA
ENDBRANCH   6  13
ENDBRANCH   1   9
BRANCH   3  14
ATOM     14  C   UNL     1      -1.426  11.743  22.006  0.00  0.00    +0.000 C 
BRANCH  14  15
ATOM     15  C   UNL     1      -1.336  13.256  22.215  0.00  0.00    +0.000 A 
ATOM     16  C   UNL     1      -1.232  13.796  23.504  0.00  0.00    +0.000 A 
ATOM     17  C   UNL     1      -1.137  15.185  23.689  0.00  0.00    +0.000 A 
ATOM     18  C   UNL     1      -1.110  16.066  22.594  0.00  0.00    +0.000 A 
ATOM     19  C   UNL     1      -1.222  15.537  21.299  0.00  0.00    +0.000 A 
ATOM     20  C   UNL     1      -1.398  14.150  21.128  0.00  0.00    +0.000 A 
BRANCH  18  21
ATOM     21  O   UNL     1      -0.956  17.382  22.957  0.00  0.00    +0.000 OA
ATOM     22  C   UNL     1      -2.075  18.046  23.531  0.00  0.00    +0.000 C 
ENDBRANCH  18  21
BRANCH  19  23
ATOM     23  O   UNL     1      -1.236  16.390  20.225  0.00  0.00    +0.000 OA
ATOM     24  C   UNL     1      -0.120  16.364  19.344  0.00  0.00    +0.000 C 
ENDBRANCH  19  23
ENDBRANCH  14  15
ENDBRANCH   3  14
BRANCH   5  25
ATOM     25  C   UNL     1       1.541   8.147  21.388  0.00  0.00    +0.000 C 
BRANCH  25  26
ATOM     26  N   UNL     1       2.114   7.457  20.254  0.00  0.00    +0.000 N 
ATOM     27  C   UNL     1       2.118   6.096  20.168  0.00  0.00    +0.000 C 
ATOM     28  O   UNL     1       1.638   5.376  21.054  0.00  0.00    +0.000 OA
ATOM     29  H   UNL     1       2.412   8.012  19.458  0.00  0.00    +0.000 HD
BRANCH  27  30
ATOM     30  C   UNL     1       2.701   5.481  18.961  0.00  0.00    +0.000 A 
ATOM     31  C   UNL     1       2.203   4.241  18.557  0.00  0.00    +0.000 A 
ATOM     32  C   UNL     1       2.735   3.607  17.436  0.00  0.00    +0.000 A 
ATOM     33  C   UNL     1       3.776   4.209  16.730  0.00  0.00    +0.000 A 
ATOM     34  C   UNL     1       4.280   5.445  17.150  0.00  0.00    +0.000 A 
ATOM     35 CL   UNL     1       5.583   6.166  16.294  0.00  0.00    +0.000 Cl
ATOM     36  C   UNL     1       3.743   6.092  18.268  0.00  0.00    +0.000 A 
ENDBRANCH  27  30
ENDBRANCH  25  26
ENDBRANCH   5  25
TORSDOF 9
ENDMDL
MODEL 7
REMARK VINA RESULT:      -7.4      1.531      2.302
REMARK  Name = 
REMARK  12 active torsions:
REMARK  status: ('A' for Active; 'I' for Inactive)
REMARK    1  A    between atoms: C_1  and  O_2
REMARK    2  A    between atoms: O_2  and  C_3
REMARK    3  A    between atoms: C_6  and  C_7
REMARK    4  A    between atoms: N_9  and  C_10
REMARK    5  A    between atoms: C_10  and  C_11
REMARK    6  A    between atoms: C_14  and  O_15
REMARK    7  A    between atoms: O_15  and  C_16
REMARK    8  A    between atoms: C_17  and  O_18
REMARK    9  A    between atoms: O_18  and  C_19
REMARK   10  A    between atoms: C_22  and  C_23
REMARK   11  A    between atoms: C_23  and  N_24
REMARK   12  A    between atoms: C_25  and  C_27
REMARK                            x       y       z     vdW  Elec       q    Type
REMARK                         _______ _______ _______ _____ _____    ______ ____
ROOT
ATOM      1  C   UNL     1       0.547  10.199  20.210  0.00  0.00    +0.000 C 
ATOM      2  C   UNL     1       0.789  11.241  21.328  0.00  0.00    +0.000 C 
ATOM      3  N   UNL     1      -0.272  11.038  22.337  0.00  0.00    +0.000 NA
ATOM      4  C   UNL     1      -0.475   9.572  22.331  0.00  0.00    +0.000 C 
ATOM      5  C   UNL     1       0.223   8.974  21.087  0.00  0.00    +0.000 C 
ENDROOT
BRANCH   1   9
ATOM      6  C   UNL     1      -2.307  11.228  17.068  0.00  0.00    +0.000 A 
ATOM      7  C   UNL     1      -2.212   9.949  17.597  0.00  0.00    +0.000 A 
ATOM      8  C   UNL     1      -1.349   9.670  18.660  0.00  0.00    +0.000 A 
ATOM      9  C   UNL     1      -0.477  10.643  19.163  0.00  0.00    +0.000 A 
ATOM     10  C   UNL     1      -0.595  11.949  18.639  0.00  0.00    +0.000 A 
ATOM     11  C   UNL     1      -1.508  12.239  17.597  0.00  0.00    +0.000 A 
BRANCH   6  13
ATOM     12  C   UNL     1      -3.057  10.403  14.966  0.00  0.00    +0.000 C 
ATOM     13  O   UNL     1      -3.184  11.340  16.026  0.00  0.00    +0.000 OA
ENDBRANCH   6  13
ENDBRANCH   1   9
BRANCH   3  14
ATOM     14  C   UNL     1      -1.535  11.766  22.026  0.00  0.00    +0.000 C 
BRANCH  14  15
ATOM     15  C   UNL     1      -1.760  13.058  22.816  0.00  0.00    +0.000 A 
ATOM     16  C   UNL     1      -2.776  13.142  23.777  0.00  0.00    +0.000 A 
ATOM     17  C   UNL     1      -2.970  14.326  24.507  0.00  0.00    +0.000 A 
ATOM     18  C   UNL     1      -2.136  15.442  24.320  0.00  0.00    +0.000 A 
ATOM     19  C   UNL     1      -1.121  15.371  23.354  0.00  0.00    +0.000 A 
ATOM     20  C   UNL     1      -0.986  14.209  22.570  0.00  0.00    +0.000 A 
BRANCH  18  21
ATOM     21  O   UNL     1      -2.433  16.490  25.157  0.00  0.00    +0.000 OA
ATOM     22  C   UNL     1      -3.730  17.066  25.062  0.00  0.00    +0.000 C 
ENDBRANCH  18  21
BRANCH  19  23
ATOM     23  O   UNL     1      -0.326  16.469  23.135  0.00  0.00    +0.000 OA
ATOM     24  C   UNL     1       1.019  16.241  22.733  0.00  0.00    +0.000 C 
ENDBRANCH  19  23
ENDBRANCH  14  15
ENDBRANCH   3  14
BRANCH   5  25
ATOM     25  C   UNL     1       1.533   8.246  21.468  0.00  0.00    +0.000 C 
BRANCH  25  26
ATOM     26  N   UNL     1       2.143   7.568  20.347  0.00  0.00    +0.000 N 
ATOM     27  C   UNL     1       1.999   6.225  20.155  0.00  0.00    +0.000 C 
ATOM     28  O   UNL     1       1.347   5.512  20.929  0.00  0.00    +0.000 OA
ATOM     29  H   UNL     1       2.588   8.134  19.630  0.00  0.00    +0.000 HD
BRANCH  27  30
ATOM     30  C   UNL     1       2.635   5.625  18.967  0.00  0.00    +0.000 A 
ATOM     31  C   UNL     1       2.207   4.357  18.571  0.00  0.00    +0.000 A 
ATOM     32  C   UNL     1       2.791   3.735  17.468  0.00  0.00    +0.000 A 
ATOM     33  C   UNL     1       3.814   4.379  16.774  0.00  0.00    +0.000 A 
ATOM     34  C   UNL     1       4.248   5.644  17.187  0.00  0.00    +0.000 A 
ATOM     35 CL   UNL     1       5.531   6.418  16.345  0.00  0.00    +0.000 Cl
ATOM     36  C   UNL     1       3.658   6.278  18.285  0.00  0.00    +0.000 A 
ENDBRANCH  27  30
ENDBRANCH  25  26
ENDBRANCH   5  25
TORSDOF 9
ENDMDL
MODEL 8
REMARK VINA RESULT:      -7.4      2.113      5.667
REMARK  Name = 
REMARK  12 active torsions:
REMARK  status: ('A' for Active; 'I' for Inactive)
REMARK    1  A    between atoms: C_1  and  O_2
REMARK    2  A    between atoms: O_2  and  C_3
REMARK    3  A    between atoms: C_6  and  C_7
REMARK    4  A    between atoms: N_9  and  C_10
REMARK    5  A    between atoms: C_10  and  C_11
REMARK    6  A    between atoms: C_14  and  O_15
REMARK    7  A    between atoms: O_15  and  C_16
REMARK    8  A    between atoms: C_17  and  O_18
REMARK    9  A    between atoms: O_18  and  C_19
REMARK   10  A    between atoms: C_22  and  C_23
REMARK   11  A    between atoms: C_23  and  N_24
REMARK   12  A    between atoms: C_25  and  C_27
REMARK                            x       y       z     vdW  Elec       q    Type
REMARK                         _______ _______ _______ _____ _____    ______ ____
ROOT
ATOM      1  C   UNL     1      -0.252   9.800  21.521  0.00  0.00    +0.000 C 
ATOM      2  C   UNL     1      -0.970   9.318  20.238  0.00  0.00    +0.000 C 
ATOM      3  N   UNL     1      -0.209   9.860  19.093  0.00  0.00    +0.000 NA
ATOM      4  C   UNL     1       1.195   9.809  19.561  0.00  0.00    +0.000 C 
ATOM      5  C   UNL     1       1.207   9.558  21.087  0.00  0.00    +0.000 C 
ENDROOT
BRANCH   1   9
ATOM      6  C   UNL     1      -1.145  13.856  22.875  0.00  0.00    +0.000 A 
ATOM      7  C   UNL     1      -0.034  13.558  22.096  0.00  0.00    +0.000 A 
ATOM      8  C   UNL     1       0.178  12.266  21.608  0.00  0.00    +0.000 A 
ATOM      9  C   UNL     1      -0.662  11.205  21.967  0.00  0.00    +0.000 A 
ATOM     10  C   UNL     1      -1.803  11.518  22.738  0.00  0.00    +0.000 A 
ATOM     11  C   UNL     1      -2.043  12.838  23.187  0.00  0.00    +0.000 A 
BRANCH   6  13
ATOM     12  C   UNL     1      -0.301  16.072  22.689  0.00  0.00    +0.000 C 
ATOM     13  O   UNL     1      -1.207  15.157  23.287  0.00  0.00    +0.000 OA
ENDBRANCH   6  13
ENDBRANCH   1   9
BRANCH   3  14
ATOM     14  C   UNL     1      -0.608  11.245  18.715  0.00  0.00    +0.000 C 
BRANCH  14  15
ATOM     15  C   UNL     1      -2.067  11.413  18.283  0.00  0.00    +0.000 A 
ATOM     16  C   UNL     1      -2.999  12.025  19.132  0.00  0.00    +0.000 A 
ATOM     17  C   UNL     1      -4.334  12.188  18.725  0.00  0.00    +0.000 A 
ATOM     18  C   UNL     1      -4.764  11.772  17.453  0.00  0.00    +0.000 A 
ATOM     19  C   UNL     1      -3.840  11.150  16.599  0.00  0.00    +0.000 A 
ATOM     20  C   UNL     1      -2.525  10.919  17.046  0.00  0.00    +0.000 A 
BRANCH  18  21
ATOM     21  O   UNL     1      -6.084  12.061  17.203  0.00  0.00    +0.000 OA
ATOM     22  C   UNL     1      -7.048  11.621  18.151  0.00  0.00    +0.000 C 
ENDBRANCH  18  21
BRANCH  19  23
ATOM     23  O   UNL     1      -4.258  10.705  15.369  0.00  0.00    +0.000 OA
ATOM     24  C   UNL     1      -3.274  10.184  14.485  0.00  0.00    +0.000 C 
ENDBRANCH  19  23
ENDBRANCH  14  15
ENDBRANCH   3  14
BRANCH   5  25
ATOM     25  C   UNL     1       1.612   8.102  21.418  0.00  0.00    +0.000 C 
BRANCH  25  26
ATOM     26  N   UNL     1       2.247   7.432  20.306  0.00  0.00    +0.000 N 
ATOM     27  C   UNL     1       2.098   6.092  20.095  0.00  0.00    +0.000 C 
ATOM     28  O   UNL     1       1.419   5.376  20.843  0.00  0.00    +0.000 OA
ATOM     29  H   UNL     1       2.716   8.002  19.608  0.00  0.00    +0.000 HD
BRANCH  27  30
ATOM     30  C   UNL     1       2.761   5.500  18.918  0.00  0.00    +0.000 A 
ATOM     31  C   UNL     1       2.453   4.178  18.594  0.00  0.00    +0.000 A 
ATOM     32  C   UNL     1       3.069   3.564  17.505  0.00  0.00    +0.000 A 
ATOM     33  C   UNL     1       4.006   4.271  16.752  0.00  0.00    +0.000 A 
ATOM     34  C   UNL     1       4.321   5.591  17.093  0.00  0.00    +0.000 A 
ATOM     35 CL   UNL     1       5.499   6.446  16.179  0.00  0.00    +0.000 Cl
ATOM     36  C   UNL     1       3.698   6.217  18.177  0.00  0.00    +0.000 A 
ENDBRANCH  27  30
ENDBRANCH  25  26
ENDBRANCH   5  25
TORSDOF 9
ENDMDL
MODEL 9
REMARK VINA RESULT:      -7.3      1.448      2.440
REMARK  Name = 
REMARK  12 active torsions:
REMARK  status: ('A' for Active; 'I' for Inactive)
REMARK    1  A    between atoms: C_1  and  O_2
REMARK    2  A    between atoms: O_2  and  C_3
REMARK    3  A    between atoms: C_6  and  C_7
REMARK    4  A    between atoms: N_9  and  C_10
REMARK    5  A    between atoms: C_10  and  C_11
REMARK    6  A    between atoms: C_14  and  O_15
REMARK    7  A    between atoms: O_15  and  C_16
REMARK    8  A    between atoms: C_17  and  O_18
REMARK    9  A    between atoms: O_18  and  C_19
REMARK   10  A    between atoms: C_22  and  C_23
REMARK   11  A    between atoms: C_23  and  N_24
REMARK   12  A    between atoms: C_25  and  C_27
REMARK                            x       y       z     vdW  Elec       q    Type
REMARK                         _______ _______ _______ _____ _____    ______ ____
ROOT
ATOM      1  C   UNL     1       0.097  10.373  19.794  0.00  0.00    +0.000 C 
ATOM      2  C   UNL     1       0.348  11.489  20.837  0.00  0.00    +0.000 C 
ATOM      3  N   UNL     1      -0.375  11.097  22.065  0.00  0.00    +0.000 NA
ATOM      4  C   UNL     1      -0.234   9.623  22.088  0.00  0.00    +0.000 C 
ATOM      5  C   UNL     1       0.273   9.145  20.708  0.00  0.00    +0.000 C 
ENDROOT
BRANCH   1   9
ATOM      6  C   UNL     1      -3.769  10.929  17.840  0.00  0.00    +0.000 A 
ATOM      7  C   UNL     1      -3.205  11.895  18.661  0.00  0.00    +0.000 A 
ATOM      8  C   UNL     1      -1.929  11.724  19.204  0.00  0.00    +0.000 A 
ATOM      9  C   UNL     1      -1.215  10.532  19.023  0.00  0.00    +0.000 A 
ATOM     10  C   UNL     1      -1.783   9.563  18.167  0.00  0.00    +0.000 A 
ATOM     11  C   UNL     1      -3.054   9.763  17.577  0.00  0.00    +0.000 A 
BRANCH   6  13
ATOM     12  C   UNL     1      -5.555  12.500  17.764  0.00  0.00    +0.000 C 
ATOM     13  O   UNL     1      -5.026  11.234  17.397  0.00  0.00    +0.000 OA
ENDBRANCH   6  13
ENDBRANCH   1   9
BRANCH   3  14
ATOM     14  C   UNL     1      -1.807  11.509  22.069  0.00  0.00    +0.000 C 
BRANCH  14  15
ATOM     15  C   UNL     1      -2.141  12.712  22.953  0.00  0.00    +0.000 A 
ATOM     16  C   UNL     1      -3.459  12.956  23.362  0.00  0.00    +0.000 A 
ATOM     17  C   UNL     1      -3.758  14.055  24.185  0.00  0.00    +0.000 A 
ATOM     18  C   UNL     1      -2.748  14.918  24.644  0.00  0.00    +0.000 A 
ATOM     19  C   UNL     1      -1.426  14.687  24.233  0.00  0.00    +0.000 A 
ATOM     20  C   UNL     1      -1.148  13.631  23.344  0.00  0.00    +0.000 A 
BRANCH  18  21
ATOM     21  O   UNL     1      -3.212  15.902  25.483  0.00  0.00    +0.000 OA
ATOM     22  C   UNL     1      -4.165  16.820  24.961  0.00  0.00    +0.000 C 
ENDBRANCH  18  21
BRANCH  19  23
ATOM     23  O   UNL     1      -0.437  15.546  24.643  0.00  0.00    +0.000 OA
ATOM     24  C   UNL     1      -0.183  16.694  23.843  0.00  0.00    +0.000 C 
ENDBRANCH  19  23
ENDBRANCH  14  15
ENDBRANCH   3  14
BRANCH   5  25
ATOM     25  C   UNL     1       1.766   8.746  20.761  0.00  0.00    +0.000 C 
BRANCH  25  26
ATOM     26  N   UNL     1       2.015   7.436  20.203  0.00  0.00    +0.000 N 
ATOM     27  C   UNL     1       2.406   7.270  18.906  0.00  0.00    +0.000 C 
ATOM     28  O   UNL     1       2.564   8.227  18.135  0.00  0.00    +0.000 OA
ATOM     29  H   UNL     1       2.008   6.639  20.831  0.00  0.00    +0.000 HD
BRANCH  27  30
ATOM     30  C   UNL     1       2.664   5.897  18.432  0.00  0.00    +0.000 A 
ATOM     31  C   UNL     1       3.767   5.691  17.603  0.00  0.00    +0.000 A 
ATOM     32  C   UNL     1       4.042   4.418  17.109  0.00  0.00    +0.000 A 
ATOM     33  C   UNL     1       3.200   3.355  17.434  0.00  0.00    +0.000 A 
ATOM     34  C   UNL     1       2.087   3.572  18.253  0.00  0.00    +0.000 A 
ATOM     35 CL   UNL     1       1.037   2.263  18.625  0.00  0.00    +0.000 Cl
ATOM     36  C   UNL     1       1.812   4.846  18.762  0.00  0.00    +0.000 A 
ENDBRANCH  27  30
ENDBRANCH  25  26
ENDBRANCH   5  25
TORSDOF 9
ENDMDL
