MODEL 1
REMARK VINA RESULT:      -8.1      0.000      0.000
REMARK  Name = 
REMARK  8 active torsions:
REMARK  status: ('A' for Active; 'I' for Inactive)
REMARK    1  A    between atoms: C_1  and  O_2
REMARK    2  A    between atoms: O_2  and  C_3
REMARK    3  A    between atoms: C_6  and  C_7
REMARK    4  A    between atoms: N_10  and  C_11
REMARK    5  A    between atoms: C_22  and  O_23
REMARK    6  A    between atoms: O_23  and  C_24
REMARK    7  A    between atoms: C_24  and  C_25
REMARK    8  A    between atoms: C_25  and  N_26
REMARK                            x       y       z     vdW  Elec       q    Type
REMARK                         _______ _______ _______ _____ _____    ______ ____
ROOT
ATOM      1  C   UNL     1       5.270   5.465  16.219  0.00  0.00    +0.000 A 
ATOM      2  C   UNL     1       4.924   6.806  15.998  0.00  0.00    +0.000 A 
ATOM      3  C   UNL     1       4.015   7.467  16.823  0.00  0.00    +0.000 A 
ATOM      4  C   UNL     1       3.454   6.797  17.911  0.00  0.00    +0.000 A 
ATOM      5  C   UNL     1       3.746   5.442  18.097  0.00  0.00    +0.000 A 
ATOM      6  C   UNL     1       4.625   4.729  17.255  0.00  0.00    +0.000 A 
ENDROOT
BRANCH   4   7
ATOM      7  C   UNL     1       2.563   7.479  18.881  0.00  0.00    +0.000 C 
ATOM      8  C   UNL     1       2.194   7.055  20.088  0.00  0.00    +0.000 C 
ATOM      9  C   UNL     1       1.319   8.091  20.748  0.00  0.00    +0.000 C 
ATOM     10  N   UNL     1       1.187   9.122  19.734  0.00  0.00    +0.000 N 
ATOM     11  C   UNL     1       1.919   8.763  18.662  0.00  0.00    +0.000 C 
ATOM     12  O   UNL     1       2.022   9.428  17.644  0.00  0.00    +0.000 OA
BRANCH  10  13
ATOM     13  C   UNL     1       0.432  10.337  19.868  0.00  0.00    +0.000 A 
ATOM     14  C   UNL     1      -0.851  10.488  19.281  0.00  0.00    +0.000 A 
ATOM     15  C   UNL     1      -1.546  11.689  19.383  0.00  0.00    +0.000 A 
ATOM     16  C   UNL     1      -0.988  12.772  20.062  0.00  0.00    +0.000 A 
ATOM     17 CL   UNL     1      -1.888  14.279  20.134  0.00  0.00    +0.000 Cl
ATOM     18  C   UNL     1       0.273  12.640  20.665  0.00  0.00    +0.000 A 
ATOM     19 CL   UNL     1       1.014  13.985  21.518  0.00  0.00    +0.000 Cl
ATOM     20  C   UNL     1       0.969  11.428  20.577  0.00  0.00    +0.000 A 
ENDBRANCH  10  13
ENDBRANCH   4   7
BRANCH   1  22
ATOM     21  C   UNL     1       6.031   4.290  14.200  0.00  0.00    +0.000 C 
ATOM     22  O   UNL     1       6.222   4.958  15.392  0.00  0.00    +0.000 OA
ENDBRANCH   1  22
BRANCH   6  23
ATOM     23  O   UNL     1       4.808   3.381  17.437  0.00  0.00    +0.000 OA
BRANCH  23  24
ATOM     24  C   UNL     1       3.778   2.451  17.252  0.00  0.00    +0.000 C 
BRANCH  24  25
ATOM     25  C   UNL     1       3.569   1.429  18.381  0.00  0.00    +0.000 C 
BRANCH  25  26
ATOM     26  N   UNL     1       2.590   1.837  19.413  0.00  0.00    +0.000 NA
ATOM     27  C   UNL     1       3.257   2.620  20.475  0.00  0.00    +0.000 C 
ATOM     28  C   UNL     1       2.253   3.092  21.530  0.00  0.00    +0.000 C 
ATOM     29  C   UNL     1       1.169   3.943  20.873  0.00  0.00    +0.000 C 
ATOM     30  C   UNL     1       0.483   3.118  19.787  0.00  0.00    +0.000 C 
ATOM     31  C   UNL     1       1.525   2.648  18.766  0.00  0.00    +0.000 C 
ENDBRANCH  25  26
ENDBRANCH  24  25
ENDBRANCH  23  24
ENDBRANCH   6  23
TORSDOF 7
ENDMDL
MODEL 2
REMARK VINA RESULT:      -8.1      0.833      1.452
REMARK  Name = 
REMARK  8 active torsions:
REMARK  status: ('A' for Active; 'I' for Inactive)
REMARK    1  A    between atoms: C_1  and  O_2
REMARK    2  A    between atoms: O_2  and  C_3
REMARK    3  A    between atoms: C_6  and  C_7
REMARK    4  A    between atoms: N_10  and  C_11
REMARK    5  A    between atoms: C_22  and  O_23
REMARK    6  A    between atoms: O_23  and  C_24
REMARK    7  A    between atoms: C_24  and  C_25
REMARK    8  A    between atoms: C_25  and  N_26
REMARK                            x       y       z     vdW  Elec       q    Type
REMARK                         _______ _______ _______ _____ _____    ______ ____
ROOT
ATOM      1  C   UNL     1       5.505   5.296  16.261  0.00  0.00    +0.000 A 
ATOM      2  C   UNL     1       5.558   6.689  16.423  0.00  0.00    +0.000 A 
ATOM      3  C   UNL     1       4.632   7.363  17.218  0.00  0.00    +0.000 A 
ATOM      4  C   UNL     1       3.646   6.644  17.892  0.00  0.00    +0.000 A 
ATOM      5  C   UNL     1       3.548   5.265  17.683  0.00  0.00    +0.000 A 
ATOM      6  C   UNL     1       4.440   4.555  16.850  0.00  0.00    +0.000 A 
ENDROOT
BRANCH   4   7
ATOM      7  C   UNL     1       2.701   7.296  18.831  0.00  0.00    +0.000 C 
ATOM      8  C   UNL     1       2.295   6.852  20.020  0.00  0.00    +0.000 C 
ATOM      9  C   UNL     1       1.368   7.861  20.653  0.00  0.00    +0.000 C 
ATOM     10  N   UNL     1       1.251   8.896  19.642  0.00  0.00    +0.000 N 
ATOM     11  C   UNL     1       2.034   8.565  18.597  0.00  0.00    +0.000 C 
ATOM     12  O   UNL     1       2.160   9.241  17.588  0.00  0.00    +0.000 OA
BRANCH  10  13
ATOM     13  C   UNL     1       0.461  10.092  19.754  0.00  0.00    +0.000 A 
ATOM     14  C   UNL     1       0.837  11.159  20.609  0.00  0.00    +0.000 A 
ATOM     15  C   UNL     1       0.035  12.287  20.738  0.00  0.00    +0.000 A 
ATOM     16  C   UNL     1      -1.163  12.388  20.029  0.00  0.00    +0.000 A 
ATOM     17 CL   UNL     1      -2.160  13.817  20.251  0.00  0.00    +0.000 Cl
ATOM     18  C   UNL     1      -1.546  11.350  19.164  0.00  0.00    +0.000 A 
ATOM     19 CL   UNL     1      -3.053  11.434  18.263  0.00  0.00    +0.000 Cl
ATOM     20  C   UNL     1      -0.733  10.220  19.020  0.00  0.00    +0.000 A 
ENDBRANCH  10  13
ENDBRANCH   4   7
BRANCH   1  22
ATOM     21  C   UNL     1       6.437   4.277  14.229  0.00  0.00    +0.000 C 
ATOM     22  O   UNL     1       6.507   4.749  15.523  0.00  0.00    +0.000 OA
ENDBRANCH   1  22
BRANCH   6  23
ATOM     23  O   UNL     1       4.244   3.217  16.617  0.00  0.00    +0.000 OA
BRANCH  23  24
ATOM     24  C   UNL     1       4.099   2.286  17.652  0.00  0.00    +0.000 C 
BRANCH  24  25
ATOM     25  C   UNL     1       2.679   1.753  17.900  0.00  0.00    +0.000 C 
BRANCH  25  26
ATOM     26  N   UNL     1       2.135   2.040  19.246  0.00  0.00    +0.000 NA
ATOM     27  C   UNL     1       3.225   2.401  20.177  0.00  0.00    +0.000 C 
ATOM     28  C   UNL     1       2.680   2.747  21.564  0.00  0.00    +0.000 C 
ATOM     29  C   UNL     1       1.692   3.906  21.461  0.00  0.00    +0.000 C 
ATOM     30  C   UNL     1       0.567   3.514  20.506  0.00  0.00    +0.000 C 
ATOM     31  C   UNL     1       1.159   3.156  19.138  0.00  0.00    +0.000 C 
ENDBRANCH  25  26
ENDBRANCH  24  25
ENDBRANCH  23  24
ENDBRANCH   6  23
TORSDOF 7
ENDMDL
MODEL 3
REMARK VINA RESULT:      -7.8      3.853      5.963
REMARK  Name = 
REMARK  8 active torsions:
REMARK  status: ('A' for Active; 'I' for Inactive)
REMARK    1  A    between atoms: C_1  and  O_2
REMARK    2  A    between atoms: O_2  and  C_3
REMARK    3  A    between atoms: C_6  and  C_7
REMARK    4  A    between atoms: N_10  and  C_11
REMARK    5  A    between atoms: C_22  and  O_23
REMARK    6  A    between atoms: O_23  and  C_24
REMARK    7  A    between atoms: C_24  and  C_25
REMARK    8  A    between atoms: C_25  and  N_26
REMARK                            x       y       z     vdW  Elec       q    Type
REMARK                         _______ _______ _______ _____ _____    ______ ____
ROOT
ATOM      1  C   UNL     1       6.521   5.412  15.889  0.00  0.00    +0.000 A 
ATOM      2  C   UNL     1       5.388   4.589  15.989  0.00  0.00    +0.000 A 
ATOM      3  C   UNL     1       4.387   4.843  16.925  0.00  0.00    +0.000 A 
ATOM      4  C   UNL     1       4.490   5.952  17.765  0.00  0.00    +0.000 A 
ATOM      5  C   UNL     1       5.646   6.738  17.714  0.00  0.00    +0.000 A 
ATOM      6  C   UNL     1       6.701   6.484  16.811  0.00  0.00    +0.000 A 
ENDROOT
BRANCH   4   7
ATOM      7  C   UNL     1       3.407   6.329  18.705  0.00  0.00    +0.000 C 
ATOM      8  C   UNL     1       2.883   5.593  19.684  0.00  0.00    +0.000 C 
ATOM      9  C   UNL     1       1.839   6.394  20.422  0.00  0.00    +0.000 C 
ATOM     10  N   UNL     1       1.794   7.649  19.694  0.00  0.00    +0.000 N 
ATOM     11  C   UNL     1       2.713   7.605  18.709  0.00  0.00    +0.000 C 
ATOM     12  O   UNL     1       2.927   8.516  17.926  0.00  0.00    +0.000 OA
BRANCH  10  13
ATOM     13  C   UNL     1       0.939   8.764  19.996  0.00  0.00    +0.000 A 
ATOM     14  C   UNL     1       0.568   9.711  19.007  0.00  0.00    +0.000 A 
ATOM     15  C   UNL     1      -0.223  10.808  19.331  0.00  0.00    +0.000 A 
ATOM     16  C   UNL     1      -0.663  11.000  20.641  0.00  0.00    +0.000 A 
ATOM     17 CL   UNL     1      -1.631  12.420  21.008  0.00  0.00    +0.000 Cl
ATOM     18  C   UNL     1      -0.322  10.066  21.632  0.00  0.00    +0.000 A 
ATOM     19 CL   UNL     1      -0.847  10.280  23.295  0.00  0.00    +0.000 Cl
ATOM     20  C   UNL     1       0.462   8.952  21.307  0.00  0.00    +0.000 A 
ENDBRANCH  10  13
ENDBRANCH   4   7
BRANCH   1  22
ATOM     21  C   UNL     1       7.082   4.667  13.616  0.00  0.00    +0.000 C 
ATOM     22  O   UNL     1       7.387   5.102  14.889  0.00  0.00    +0.000 OA
ENDBRANCH   1  22
BRANCH   6  23
ATOM     23  O   UNL     1       7.847   7.237  16.864  0.00  0.00    +0.000 OA
BRANCH  23  24
ATOM     24  C   UNL     1       8.162   8.050  17.959  0.00  0.00    +0.000 C 
BRANCH  24  25
ATOM     25  C   UNL     1       7.931   9.559  17.780  0.00  0.00    +0.000 C 
BRANCH  25  26
ATOM     26  N   UNL     1       9.076  10.412  18.170  0.00  0.00    +0.000 NA
ATOM     27  C   UNL     1       8.814  11.822  17.807  0.00  0.00    +0.000 C 
ATOM     28  C   UNL     1       9.967  12.730  18.243  0.00  0.00    +0.000 C 
ATOM     29  C   UNL     1      10.173  12.620  19.752  0.00  0.00    +0.000 C 
ATOM     30  C   UNL     1      10.452  11.162  20.109  0.00  0.00    +0.000 C 
ATOM     31  C   UNL     1       9.285  10.288  19.636  0.00  0.00    +0.000 C 
ENDBRANCH  25  26
ENDBRANCH  24  25
ENDBRANCH  23  24
ENDBRANCH   6  23
TORSDOF 7
ENDMDL
MODEL 4
REMARK VINA RESULT:      -7.5      2.290      4.345
REMARK  Name = 
REMARK  8 active torsions:
REMARK  status: ('A' for Active; 'I' for Inactive)
REMARK    1  A    between atoms: C_1  and  O_2
REMARK    2  A    between atoms: O_2  and  C_3
REMARK    3  A    between atoms: C_6  and  C_7
REMARK    4  A    between atoms: N_10  and  C_11
REMARK    5  A    between atoms: C_22  and  O_23
REMARK    6  A    between atoms: O_23  and  C_24
REMARK    7  A    between atoms: C_24  and  C_25
REMARK    8  A    between atoms: C_25  and  N_26
REMARK                            x       y       z     vdW  Elec       q    Type
REMARK                         _______ _______ _______ _____ _____    ______ ____
ROOT
ATOM      1  C   UNL     1       4.075   3.984  19.166  0.00  0.00    +0.000 A 
ATOM      2  C   UNL     1       2.706   4.099  18.881  0.00  0.00    +0.000 A 
ATOM      3  C   UNL     1       2.088   5.344  18.774  0.00  0.00    +0.000 A 
ATOM      4  C   UNL     1       2.844   6.507  18.924  0.00  0.00    +0.000 A 
ATOM      5  C   UNL     1       4.194   6.399  19.272  0.00  0.00    +0.000 A 
ATOM      6  C   UNL     1       4.843   5.155  19.433  0.00  0.00    +0.000 A 
ENDROOT
BRANCH   4   7
ATOM      7  C   UNL     1       2.262   7.855  18.718  0.00  0.00    +0.000 C 
ATOM      8  C   UNL     1       2.379   8.640  17.648  0.00  0.00    +0.000 C 
ATOM      9  C   UNL     1       1.583   9.905  17.852  0.00  0.00    +0.000 C 
ATOM     10  N   UNL     1       1.058   9.763  19.198  0.00  0.00    +0.000 N 
ATOM     11  C   UNL     1       1.448   8.569  19.686  0.00  0.00    +0.000 C 
ATOM     12  O   UNL     1       1.157   8.149  20.795  0.00  0.00    +0.000 OA
BRANCH  10  13
ATOM     13  C   UNL     1       0.230  10.720  19.881  0.00  0.00    +0.000 A 
ATOM     14  C   UNL     1       0.666  11.379  21.058  0.00  0.00    +0.000 A 
ATOM     15  C   UNL     1      -0.168  12.267  21.729  0.00  0.00    +0.000 A 
ATOM     16  C   UNL     1      -1.455  12.522  21.257  0.00  0.00    +0.000 A 
ATOM     17 CL   UNL     1      -2.484  13.625  22.158  0.00  0.00    +0.000 Cl
ATOM     18  C   UNL     1      -1.901  11.893  20.083  0.00  0.00    +0.000 A 
ATOM     19 CL   UNL     1      -3.520  12.179  19.463  0.00  0.00    +0.000 Cl
ATOM     20  C   UNL     1      -1.059  11.010  19.396  0.00  0.00    +0.000 A 
ENDBRANCH  10  13
ENDBRANCH   4   7
BRANCH   1  22
ATOM     21  C   UNL     1       4.711   1.874  20.252  0.00  0.00    +0.000 C 
ATOM     22  O   UNL     1       4.572   2.719  19.171  0.00  0.00    +0.000 OA
ENDBRANCH   1  22
BRANCH   6  23
ATOM     23  O   UNL     1       6.147   5.111  19.858  0.00  0.00    +0.000 OA
BRANCH  23  24
ATOM     24  C   UNL     1       7.225   5.039  18.968  0.00  0.00    +0.000 C 
BRANCH  24  25
ATOM     25  C   UNL     1       7.420   6.241  18.030  0.00  0.00    +0.000 C 
BRANCH  25  26
ATOM     26  N   UNL     1       7.081   5.983  16.613  0.00  0.00    +0.000 NA
ATOM     27  C   UNL     1       7.211   4.543  16.305  0.00  0.00    +0.000 C 
ATOM     28  C   UNL     1       6.820   4.247  14.855  0.00  0.00    +0.000 C 
ATOM     29  C   UNL     1       5.383   4.696  14.602  0.00  0.00    +0.000 C 
ATOM     30  C   UNL     1       5.267   6.186  14.914  0.00  0.00    +0.000 C 
ATOM     31  C   UNL     1       5.687   6.439  16.366  0.00  0.00    +0.000 C 
ENDBRANCH  25  26
ENDBRANCH  24  25
ENDBRANCH  23  24
ENDBRANCH   6  23
TORSDOF 7
ENDMDL
MODEL 5
REMARK VINA RESULT:      -7.5      2.156      4.339
REMARK  Name = 
REMARK  8 active torsions:
REMARK  status: ('A' for Active; 'I' for Inactive)
REMARK    1  A    between atoms: C_1  and  O_2
REMARK    2  A    between atoms: O_2  and  C_3
REMARK    3  A    between atoms: C_6  and  C_7
REMARK    4  A    between atoms: N_10  and  C_11
REMARK    5  A    between atoms: C_22  and  O_23
REMARK    6  A    between atoms: O_23  and  C_24
REMARK    7  A    between atoms: C_24  and  C_25
REMARK    8  A    between atoms: C_25  and  N_26
REMARK                            x       y       z     vdW  Elec       q    Type
REMARK                         _______ _______ _______ _____ _____    ______ ____
ROOT
ATOM      1  C   UNL     1       2.544   4.305  19.513  0.00  0.00    +0.000 A 
ATOM      2  C   UNL     1       2.301   5.111  20.636  0.00  0.00    +0.000 A 
ATOM      3  C   UNL     1       2.090   6.483  20.513  0.00  0.00    +0.000 A 
ATOM      4  C   UNL     1       2.091   7.073  19.249  0.00  0.00    +0.000 A 
ATOM      5  C   UNL     1       2.397   6.288  18.133  0.00  0.00    +0.000 A 
ATOM      6  C   UNL     1       2.660   4.904  18.224  0.00  0.00    +0.000 A 
ENDROOT
BRANCH   4   7
ATOM      7  C   UNL     1       1.770   8.507  19.050  0.00  0.00    +0.000 C 
ATOM      8  C   UNL     1       2.184   9.308  18.069  0.00  0.00    +0.000 C 
ATOM      9  C   UNL     1       1.572  10.677  18.234  0.00  0.00    +0.000 C 
ATOM     10  N   UNL     1       0.817  10.566  19.469  0.00  0.00    +0.000 N 
ATOM     11  C   UNL     1       0.930   9.304  19.927  0.00  0.00    +0.000 C 
ATOM     12  O   UNL     1       0.398   8.890  20.945  0.00  0.00    +0.000 OA
BRANCH  10  13
ATOM     13  C   UNL     1       0.049  11.616  20.080  0.00  0.00    +0.000 A 
ATOM     14  C   UNL     1       0.633  12.541  20.982  0.00  0.00    +0.000 A 
ATOM     15  C   UNL     1      -0.138  13.522  21.597  0.00  0.00    +0.000 A 
ATOM     16  C   UNL     1      -1.507  13.609  21.341  0.00  0.00    +0.000 A 
ATOM     17 CL   UNL     1      -2.445  14.842  22.169  0.00  0.00    +0.000 Cl
ATOM     18  C   UNL     1      -2.102  12.714  20.438  0.00  0.00    +0.000 A 
ATOM     19 CL   UNL     1      -3.825  12.784  20.099  0.00  0.00    +0.000 Cl
ATOM     20  C   UNL     1      -1.327  11.735  19.805  0.00  0.00    +0.000 A 
ENDBRANCH  10  13
ENDBRANCH   4   7
BRANCH   1  22
ATOM     21  C   UNL     1       1.736   1.985  19.484  0.00  0.00    +0.000 C 
ATOM     22  O   UNL     1       2.659   2.973  19.756  0.00  0.00    +0.000 OA
ENDBRANCH   1  22
BRANCH   6  23
ATOM     23  O   UNL     1       3.037   4.202  17.107  0.00  0.00    +0.000 OA
BRANCH  23  24
ATOM     24  C   UNL     1       4.347   3.751  16.908  0.00  0.00    +0.000 C 
BRANCH  24  25
ATOM     25  C   UNL     1       5.205   4.558  15.920  0.00  0.00    +0.000 C 
BRANCH  25  26
ATOM     26  N   UNL     1       6.419   5.169  16.508  0.00  0.00    +0.000 NA
ATOM     27  C   UNL     1       6.193   6.604  16.779  0.00  0.00    +0.000 C 
ATOM     28  C   UNL     1       7.421   7.246  17.430  0.00  0.00    +0.000 C 
ATOM     29  C   UNL     1       7.755   6.526  18.734  0.00  0.00    +0.000 C 
ATOM     30  C   UNL     1       7.994   5.048  18.436  0.00  0.00    +0.000 C 
ATOM     31  C   UNL     1       6.751   4.452  17.767  0.00  0.00    +0.000 C 
ENDBRANCH  25  26
ENDBRANCH  24  25
ENDBRANCH  23  24
ENDBRANCH   6  23
TORSDOF 7
ENDMDL
MODEL 6
REMARK VINA RESULT:      -7.4      2.173      4.840
REMARK  Name = 
REMARK  8 active torsions:
REMARK  status: ('A' for Active; 'I' for Inactive)
REMARK    1  A    between atoms: C_1  and  O_2
REMARK    2  A    between atoms: O_2  and  C_3
REMARK    3  A    between atoms: C_6  and  C_7
REMARK    4  A    between atoms: N_10  and  C_11
REMARK    5  A    between atoms: C_22  and  O_23
REMARK    6  A    between atoms: O_23  and  C_24
REMARK    7  A    between atoms: C_24  and  C_25
REMARK    8  A    between atoms: C_25  and  N_26
REMARK                            x       y       z     vdW  Elec       q    Type
REMARK                         _______ _______ _______ _____ _____    ______ ____
ROOT
ATOM      1  C   UNL     1       3.748   3.701  18.902  0.00  0.00    +0.000 A 
ATOM      2  C   UNL     1       2.439   4.016  19.297  0.00  0.00    +0.000 A 
ATOM      3  C   UNL     1       1.974   5.331  19.290  0.00  0.00    +0.000 A 
ATOM      4  C   UNL     1       2.813   6.358  18.856  0.00  0.00    +0.000 A 
ATOM      5  C   UNL     1       4.138   6.059  18.524  0.00  0.00    +0.000 A 
ATOM      6  C   UNL     1       4.656   4.746  18.563  0.00  0.00    +0.000 A 
ENDROOT
BRANCH   4   7
ATOM      7  C   UNL     1       2.341   7.758  18.729  0.00  0.00    +0.000 C 
ATOM      8  C   UNL     1       2.353   8.529  17.642  0.00  0.00    +0.000 C 
ATOM      9  C   UNL     1       1.730   9.866  17.957  0.00  0.00    +0.000 C 
ATOM     10  N   UNL     1       1.428   9.776  19.374  0.00  0.00    +0.000 N 
ATOM     11  C   UNL     1       1.775   8.549  19.808  0.00  0.00    +0.000 C 
ATOM     12  O   UNL     1       1.635   8.160  20.957  0.00  0.00    +0.000 OA
BRANCH  10  13
ATOM     13  C   UNL     1       0.825  10.810  20.170  0.00  0.00    +0.000 A 
ATOM     14  C   UNL     1       1.119  12.182  19.960  0.00  0.00    +0.000 A 
ATOM     15  C   UNL     1       0.561  13.164  20.771  0.00  0.00    +0.000 A 
ATOM     16  C   UNL     1      -0.297  12.815  21.814  0.00  0.00    +0.000 A 
ATOM     17 CL   UNL     1      -0.950  14.088  22.834  0.00  0.00    +0.000 Cl
ATOM     18  C   UNL     1      -0.615  11.465  22.030  0.00  0.00    +0.000 A 
ATOM     19 CL   UNL     1      -1.682  10.984  23.340  0.00  0.00    +0.000 Cl
ATOM     20  C   UNL     1      -0.067  10.474  21.205  0.00  0.00    +0.000 A 
ENDBRANCH  10  13
ENDBRANCH   4   7
BRANCH   1  22
ATOM     21  C   UNL     1       3.248   1.333  18.482  0.00  0.00    +0.000 C 
ATOM     22  O   UNL     1       4.055   2.377  18.883  0.00  0.00    +0.000 OA
ENDBRANCH   1  22
BRANCH   6  23
ATOM     23  O   UNL     1       5.986   4.525  18.307  0.00  0.00    +0.000 OA
BRANCH  23  24
ATOM     24  C   UNL     1       6.552   4.723  17.042  0.00  0.00    +0.000 C 
BRANCH  24  25
ATOM     25  C   UNL     1       5.734   4.221  15.841  0.00  0.00    +0.000 C 
BRANCH  25  26
ATOM     26  N   UNL     1       6.519   4.004  14.604  0.00  0.00    +0.000 NA
ATOM     27  C   UNL     1       5.632   3.585  13.498  0.00  0.00    +0.000 C 
ATOM     28  C   UNL     1       6.417   3.400  12.197  0.00  0.00    +0.000 C 
ATOM     29  C   UNL     1       7.120   4.703  11.823  0.00  0.00    +0.000 C 
ATOM     30  C   UNL     1       8.039   5.116  12.970  0.00  0.00    +0.000 C 
ATOM     31  C   UNL     1       7.217   5.269  14.255  0.00  0.00    +0.000 C 
ENDBRANCH  25  26
ENDBRANCH  24  25
ENDBRANCH  23  24
ENDBRANCH   6  23
TORSDOF 7
ENDMDL
MODEL 7
REMARK VINA RESULT:      -7.4      2.082      4.282
REMARK  Name = 
REMARK  8 active torsions:
REMARK  status: ('A' for Active; 'I' for Inactive)
REMARK    1  A    between atoms: C_1  and  O_2
REMARK    2  A    between atoms: O_2  and  C_3
REMARK    3  A    between atoms: C_6  and  C_7
REMARK    4  A    between atoms: N_10  and  C_11
REMARK    5  A    between atoms: C_22  and  O_23
REMARK    6  A    between atoms: O_23  and  C_24
REMARK    7  A    between atoms: C_24  and  C_25
REMARK    8  A    between atoms: C_25  and  N_26
REMARK                            x       y       z     vdW  Elec       q    Type
REMARK                         _______ _______ _______ _____ _____    ______ ____
ROOT
ATOM      1  C   UNL     1       2.502   4.110  19.467  0.00  0.00    +0.000 A 
ATOM      2  C   UNL     1       2.206   4.923  20.571  0.00  0.00    +0.000 A 
ATOM      3  C   UNL     1       2.037   6.300  20.434  0.00  0.00    +0.000 A 
ATOM      4  C   UNL     1       2.136   6.888  19.173  0.00  0.00    +0.000 A 
ATOM      5  C   UNL     1       2.494   6.092  18.079  0.00  0.00    +0.000 A 
ATOM      6  C   UNL     1       2.717   4.703  18.188  0.00  0.00    +0.000 A 
ENDROOT
BRANCH   4   7
ATOM      7  C   UNL     1       1.864   8.329  18.952  0.00  0.00    +0.000 C 
ATOM      8  C   UNL     1       2.265   9.089  17.935  0.00  0.00    +0.000 C 
ATOM      9  C   UNL     1       1.717  10.485  18.093  0.00  0.00    +0.000 C 
ATOM     10  N   UNL     1       1.012  10.433  19.361  0.00  0.00    +0.000 N 
ATOM     11  C   UNL     1       1.095   9.178  19.845  0.00  0.00    +0.000 C 
ATOM     12  O   UNL     1       0.592   8.810  20.894  0.00  0.00    +0.000 OA
BRANCH  10  13
ATOM     13  C   UNL     1       0.314  11.527  19.978  0.00  0.00    +0.000 A 
ATOM     14  C   UNL     1       0.981  12.470  20.802  0.00  0.00    +0.000 A 
ATOM     15  C   UNL     1       0.278  13.495  21.427  0.00  0.00    +0.000 A 
ATOM     16  C   UNL     1      -1.101  13.611  21.258  0.00  0.00    +0.000 A 
ATOM     17 CL   UNL     1      -1.950  14.901  22.095  0.00  0.00    +0.000 Cl
ATOM     18  C   UNL     1      -1.779  12.699  20.433  0.00  0.00    +0.000 A 
ATOM     19 CL   UNL     1      -3.518  12.805  20.205  0.00  0.00    +0.000 Cl
ATOM     20  C   UNL     1      -1.073  11.675  19.790  0.00  0.00    +0.000 A 
ENDBRANCH  10  13
ENDBRANCH   4   7
BRANCH   1  22
ATOM     21  C   UNL     1       1.632   1.813  19.406  0.00  0.00    +0.000 C 
ATOM     22  O   UNL     1       2.569   2.776  19.718  0.00  0.00    +0.000 OA
ENDBRANCH   1  22
BRANCH   6  23
ATOM     23  O   UNL     1       3.149   3.989  17.098  0.00  0.00    +0.000 OA
BRANCH  23  24
ATOM     24  C   UNL     1       4.445   4.112  16.584  0.00  0.00    +0.000 C 
BRANCH  24  25
ATOM     25  C   UNL     1       5.593   4.068  17.605  0.00  0.00    +0.000 C 
BRANCH  25  26
ATOM     26  N   UNL     1       6.093   5.394  18.033  0.00  0.00    +0.000 NA
ATOM     27  C   UNL     1       7.532   5.320  18.364  0.00  0.00    +0.000 C 
ATOM     28  C   UNL     1       8.080   6.691  18.765  0.00  0.00    +0.000 C 
ATOM     29  C   UNL     1       7.868   7.689  17.630  0.00  0.00    +0.000 C 
ATOM     30  C   UNL     1       6.378   7.762  17.307  0.00  0.00    +0.000 C 
ATOM     31  C   UNL     1       5.866   6.367  16.932  0.00  0.00    +0.000 C 
ENDBRANCH  25  26
ENDBRANCH  24  25
ENDBRANCH  23  24
ENDBRANCH   6  23
TORSDOF 7
ENDMDL
MODEL 8
REMARK VINA RESULT:      -7.4      4.553      9.627
REMARK  Name = 
REMARK  8 active torsions:
REMARK  status: ('A' for Active; 'I' for Inactive)
REMARK    1  A    between atoms: C_1  and  O_2
REMARK    2  A    between atoms: O_2  and  C_3
REMARK    3  A    between atoms: C_6  and  C_7
REMARK    4  A    between atoms: N_10  and  C_11
REMARK    5  A    between atoms: C_22  and  O_23
REMARK    6  A    between atoms: O_23  and  C_24
REMARK    7  A    between atoms: C_24  and  C_25
REMARK    8  A    between atoms: C_25  and  N_26
REMARK                            x       y       z     vdW  Elec       q    Type
REMARK                         _______ _______ _______ _____ _____    ______ ____
ROOT
ATOM      1  C   UNL     1      -0.563  13.008  19.101  0.00  0.00    +0.000 A 
ATOM      2  C   UNL     1       0.474  12.829  20.029  0.00  0.00    +0.000 A 
ATOM      3  C   UNL     1       1.060  11.580  20.230  0.00  0.00    +0.000 A 
ATOM      4  C   UNL     1       0.633  10.486  19.477  0.00  0.00    +0.000 A 
ATOM      5  C   UNL     1      -0.443  10.645  18.598  0.00  0.00    +0.000 A 
ATOM      6  C   UNL     1      -1.091  11.883  18.402  0.00  0.00    +0.000 A 
ENDROOT
BRANCH   4   7
ATOM      7  C   UNL     1       1.290   9.160  19.574  0.00  0.00    +0.000 C 
ATOM      8  C   UNL     1       1.279   8.317  20.606  0.00  0.00    +0.000 C 
ATOM      9  C   UNL     1       2.038   7.062  20.248  0.00  0.00    +0.000 C 
ATOM     10  N   UNL     1       2.533   7.333  18.911  0.00  0.00    +0.000 N 
ATOM     11  C   UNL     1       2.086   8.545  18.526  0.00  0.00    +0.000 C 
ATOM     12  O   UNL     1       2.323   9.055  17.443  0.00  0.00    +0.000 OA
BRANCH  10  13
ATOM     13  C   UNL     1       3.335   6.443  18.117  0.00  0.00    +0.000 A 
ATOM     14  C   UNL     1       4.319   6.925  17.217  0.00  0.00    +0.000 A 
ATOM     15  C   UNL     1       5.053   6.048  16.425  0.00  0.00    +0.000 A 
ATOM     16  C   UNL     1       4.828   4.674  16.498  0.00  0.00    +0.000 A 
ATOM     17 CL   UNL     1       5.755   3.609  15.452  0.00  0.00    +0.000 Cl
ATOM     18  C   UNL     1       3.871   4.173  17.394  0.00  0.00    +0.000 A 
ATOM     19 CL   UNL     1       3.550   2.449  17.507  0.00  0.00    +0.000 Cl
ATOM     20  C   UNL     1       3.141   5.051  18.205  0.00  0.00    +0.000 A 
ENDBRANCH  10  13
ENDBRANCH   4   7
BRANCH   1  22
ATOM     21  C   UNL     1      -0.264  15.446  19.065  0.00  0.00    +0.000 C 
ATOM     22  O   UNL     1      -0.999  14.286  18.944  0.00  0.00    +0.000 OA
ENDBRANCH   1  22
BRANCH   6  23
ATOM     23  O   UNL     1      -2.195  11.961  17.590  0.00  0.00    +0.000 OA
BRANCH  23  24
ATOM     24  C   UNL     1      -3.313  11.137  17.761  0.00  0.00    +0.000 C 
BRANCH  24  25
ATOM     25  C   UNL     1      -4.453  11.312  16.745  0.00  0.00    +0.000 C 
BRANCH  25  26
ATOM     26  N   UNL     1      -5.796  11.490  17.343  0.00  0.00    +0.000 NA
ATOM     27  C   UNL     1      -5.779  11.105  18.771  0.00  0.00    +0.000 C 
ATOM     28  C   UNL     1      -7.147  11.325  19.421  0.00  0.00    +0.000 C 
ATOM     29  C   UNL     1      -7.554  12.791  19.293  0.00  0.00    +0.000 C 
ATOM     30  C   UNL     1      -7.576  13.171  17.815  0.00  0.00    +0.000 C 
ATOM     31  C   UNL     1      -6.196  12.915  17.199  0.00  0.00    +0.000 C 
ENDBRANCH  25  26
ENDBRANCH  24  25
ENDBRANCH  23  24
ENDBRANCH   6  23
TORSDOF 7
ENDMDL
MODEL 9
REMARK VINA RESULT:      -7.4      4.292      9.423
REMARK  Name = 
REMARK  8 active torsions:
REMARK  status: ('A' for Active; 'I' for Inactive)
REMARK    1  A    between atoms: C_1  and  O_2
REMARK    2  A    between atoms: O_2  and  C_3
REMARK    3  A    between atoms: C_6  and  C_7
REMARK    4  A    between atoms: N_10  and  C_11
REMARK    5  A    between atoms: C_22  and  O_23
REMARK    6  A    between atoms: O_23  and  C_24
REMARK    7  A    between atoms: C_24  and  C_25
REMARK    8  A    between atoms: C_25  and  N_26
REMARK                            x       y       z     vdW  Elec       q    Type
REMARK                         _______ _______ _______ _____ _____    ______ ____
ROOT
ATOM      1  C   UNL     1      -0.506  12.750  19.157  0.00  0.00    +0.000 A 
ATOM      2  C   UNL     1       0.469  12.541  20.144  0.00  0.00    +0.000 A 
ATOM      3  C   UNL     1       1.059  11.292  20.329  0.00  0.00    +0.000 A 
ATOM      4  C   UNL     1       0.699  10.227  19.503  0.00  0.00    +0.000 A 
ATOM      5  C   UNL     1      -0.318  10.413  18.561  0.00  0.00    +0.000 A 
ATOM      6  C   UNL     1      -0.969  11.651  18.376  0.00  0.00    +0.000 A 
ENDROOT
BRANCH   4   7
ATOM      7  C   UNL     1       1.367   8.906  19.586  0.00  0.00    +0.000 C 
ATOM      8  C   UNL     1       1.384   8.062  20.617  0.00  0.00    +0.000 C 
ATOM      9  C   UNL     1       2.144   6.814  20.244  0.00  0.00    +0.000 C 
ATOM     10  N   UNL     1       2.610   7.089  18.897  0.00  0.00    +0.000 N 
ATOM     11  C   UNL     1       2.147   8.297  18.522  0.00  0.00    +0.000 C 
ATOM     12  O   UNL     1       2.358   8.809  17.434  0.00  0.00    +0.000 OA
BRANCH  10  13
ATOM     13  C   UNL     1       3.402   6.204  18.087  0.00  0.00    +0.000 A 
ATOM     14  C   UNL     1       2.905   4.953  17.641  0.00  0.00    +0.000 A 
ATOM     15  C   UNL     1       3.704   4.092  16.897  0.00  0.00    +0.000 A 
ATOM     16  C   UNL     1       5.016   4.442  16.579  0.00  0.00    +0.000 A 
ATOM     17 CL   UNL     1       5.998   3.306  15.667  0.00  0.00    +0.000 Cl
ATOM     18  C   UNL     1       5.523   5.684  16.996  0.00  0.00    +0.000 A 
ATOM     19 CL   UNL     1       7.175   6.157  16.625  0.00  0.00    +0.000 Cl
ATOM     20  C   UNL     1       4.717   6.560  17.732  0.00  0.00    +0.000 A 
ENDBRANCH  10  13
ENDBRANCH   4   7
BRANCH   1  22
ATOM     21  C   UNL     1      -0.194  15.182  19.005  0.00  0.00    +0.000 C 
ATOM     22  O   UNL     1      -0.949  14.028  19.027  0.00  0.00    +0.000 OA
ENDBRANCH   1  22
BRANCH   6  23
ATOM     23  O   UNL     1      -2.018  11.751  17.496  0.00  0.00    +0.000 OA
BRANCH  23  24
ATOM     24  C   UNL     1      -3.213  11.045  17.667  0.00  0.00    +0.000 C 
BRANCH  24  25
ATOM     25  C   UNL     1      -4.492  11.733  17.164  0.00  0.00    +0.000 C 
BRANCH  25  26
ATOM     26  N   UNL     1      -5.409  12.194  18.230  0.00  0.00    +0.000 NA
ATOM     27  C   UNL     1      -6.563  11.277  18.351  0.00  0.00    +0.000 C 
ATOM     28  C   UNL     1      -7.500  11.710  19.480  0.00  0.00    +0.000 C 
ATOM     29  C   UNL     1      -6.739  11.749  20.803  0.00  0.00    +0.000 C 
ATOM     30  C   UNL     1      -5.558  12.707  20.666  0.00  0.00    +0.000 C 
ATOM     31  C   UNL     1      -4.659  12.249  19.512  0.00  0.00    +0.000 C 
ENDBRANCH  25  26
ENDBRANCH  24  25
ENDBRANCH  23  24
ENDBRANCH   6  23
TORSDOF 7
ENDMDL
