MODEL 1
REMARK VINA RESULT:      -7.7      0.000      0.000
REMARK  Name = 
REMARK  3 active torsions:
REMARK  status: ('A' for Active; 'I' for Inactive)
REMARK    1  A    between atoms: C_1  and  N_2
REMARK    2  A    between atoms: N_2  and  C_3
REMARK    3  A    between atoms: C_11  and  C_12
REMARK                            x       y       z     vdW  Elec       q    Type
REMARK                         _______ _______ _______ _____ _____    ______ ____
ROOT
ATOM      1  C   UNL     1       2.091   2.216  19.489  0.00  0.00    +0.000 C 
ATOM      2  N   UNL     1       3.423   2.384  18.762  0.00  0.00    +0.000 N 
ATOM      3  C   UNL     1       3.913   0.999  18.353  0.00  0.00    +0.000 C 
ATOM      4  C   UNL     1       4.470   3.068  19.663  0.00  0.00    +0.000 C 
ATOM      5  C   UNL     1       4.603   4.483  19.158  0.00  0.00    +0.000 C 
ATOM      6  C   UNL     1       3.631   5.494  19.757  0.00  0.00    +0.000 C 
ATOM      7  N   UNL     1       3.457   6.428  18.660  0.00  0.00    +0.000 N 
ATOM      8  C   UNL     1       2.603   7.500  18.827  0.00  0.00    +0.000 A 
ATOM      9  C   UNL     1       2.446   8.460  17.839  0.00  0.00    +0.000 A 
ATOM     10  C   UNL     1       1.561   9.523  18.021  0.00  0.00    +0.000 A 
ATOM     11  C   UNL     1       0.831   9.616  19.196  0.00  0.00    +0.000 A 
ATOM     12  N   UNL     1       1.022   8.696  20.164  0.00  0.00    +0.000 NA
ATOM     13  N   UNL     1       1.913   7.645  19.977  0.00  0.00    +0.000 NA
ATOM     14  C   UNL     1       3.662   5.808  17.356  0.00  0.00    +0.000 C 
ATOM     15  C   UNL     1       4.246   4.428  17.680  0.00  0.00    +0.000 C 
ATOM     16  C   UNL     1       3.240   3.295  17.531  0.00  0.00    +0.000 C 
ENDROOT
BRANCH  11  17
ATOM     17  C   UNL     1      -0.176  10.664  19.439  0.00  0.00    +0.000 A 
ATOM     18  C   UNL     1      -0.173  11.418  20.631  0.00  0.00    +0.000 A 
ATOM     19  C   UNL     1      -1.128  12.410  20.871  0.00  0.00    +0.000 A 
ATOM     20  C   UNL     1      -2.107  12.676  19.921  0.00  0.00    +0.000 A 
ATOM     21  C   UNL     1      -2.129  11.953  18.732  0.00  0.00    +0.000 A 
ATOM     22  C   UNL     1      -1.171  10.960  18.492  0.00  0.00    +0.000 A 
ENDBRANCH  11  17
TORSDOF 1
ENDMDL
MODEL 2
REMARK VINA RESULT:      -7.6      0.127      1.022
REMARK  Name = 
REMARK  3 active torsions:
REMARK  status: ('A' for Active; 'I' for Inactive)
REMARK    1  A    between atoms: C_1  and  N_2
REMARK    2  A    between atoms: N_2  and  C_3
REMARK    3  A    between atoms: C_11  and  C_12
REMARK                            x       y       z     vdW  Elec       q    Type
REMARK                         _______ _______ _______ _____ _____    ______ ____
ROOT
ATOM      1  C   UNL     1       2.029   2.256  19.507  0.00  0.00    +0.000 C 
ATOM      2  N   UNL     1       3.357   2.412  18.770  0.00  0.00    +0.000 N 
ATOM      3  C   UNL     1       3.830   1.022  18.356  0.00  0.00    +0.000 C 
ATOM      4  C   UNL     1       4.416   3.084  19.665  0.00  0.00    +0.000 C 
ATOM      5  C   UNL     1       4.560   4.498  19.160  0.00  0.00    +0.000 C 
ATOM      6  C   UNL     1       3.601   5.518  19.767  0.00  0.00    +0.000 C 
ATOM      7  N   UNL     1       3.428   6.455  18.673  0.00  0.00    +0.000 N 
ATOM      8  C   UNL     1       2.586   7.535  18.848  0.00  0.00    +0.000 A 
ATOM      9  C   UNL     1       2.430   8.497  17.862  0.00  0.00    +0.000 A 
ATOM     10  C   UNL     1       1.557   9.569  18.052  0.00  0.00    +0.000 A 
ATOM     11  C   UNL     1       0.836   9.667  19.232  0.00  0.00    +0.000 A 
ATOM     12  N   UNL     1       1.025   8.744  20.197  0.00  0.00    +0.000 NA
ATOM     13  N   UNL     1       1.906   7.685  20.003  0.00  0.00    +0.000 NA
ATOM     14  C   UNL     1       3.618   5.835  17.367  0.00  0.00    +0.000 C 
ATOM     15  C   UNL     1       4.191   4.449  17.685  0.00  0.00    +0.000 C 
ATOM     16  C   UNL     1       3.174   3.326  17.542  0.00  0.00    +0.000 C 
ENDROOT
BRANCH  11  17
ATOM     17  C   UNL     1      -0.159  10.724  19.483  0.00  0.00    +0.000 A 
ATOM     18  C   UNL     1      -1.305  10.858  18.672  0.00  0.00    +0.000 A 
ATOM     19  C   UNL     1      -2.250  11.861  18.901  0.00  0.00    +0.000 A 
ATOM     20  C   UNL     1      -2.074  12.753  19.952  0.00  0.00    +0.000 A 
ATOM     21  C   UNL     1      -0.957  12.640  20.774  0.00  0.00    +0.000 A 
ATOM     22  C   UNL     1      -0.011  11.634  20.544  0.00  0.00    +0.000 A 
ENDBRANCH  11  17
TORSDOF 1
ENDMDL
MODEL 3
REMARK VINA RESULT:      -7.6      2.159      3.182
REMARK  Name = 
REMARK  3 active torsions:
REMARK  status: ('A' for Active; 'I' for Inactive)
REMARK    1  A    between atoms: C_1  and  N_2
REMARK    2  A    between atoms: N_2  and  C_3
REMARK    3  A    between atoms: C_11  and  C_12
REMARK                            x       y       z     vdW  Elec       q    Type
REMARK                         _______ _______ _______ _____ _____    ______ ____
ROOT
ATOM      1  C   UNL     1       6.778   6.888  17.283  0.00  0.00    +0.000 C 
ATOM      2  N   UNL     1       6.303   5.448  17.461  0.00  0.00    +0.000 N 
ATOM      3  C   UNL     1       7.457   4.524  17.088  0.00  0.00    +0.000 C 
ATOM      4  C   UNL     1       5.080   5.150  16.572  0.00  0.00    +0.000 C 
ATOM      5  C   UNL     1       3.886   5.114  17.493  0.00  0.00    +0.000 C 
ATOM      6  C   UNL     1       3.203   6.454  17.743  0.00  0.00    +0.000 C 
ATOM      7  N   UNL     1       2.698   6.286  19.093  0.00  0.00    +0.000 N 
ATOM      8  C   UNL     1       2.019   7.333  19.686  0.00  0.00    +0.000 A 
ATOM      9  C   UNL     1       1.459   7.208  20.948  0.00  0.00    +0.000 A 
ATOM     10  C   UNL     1       0.797   8.286  21.537  0.00  0.00    +0.000 A 
ATOM     11  C   UNL     1       0.704   9.490  20.856  0.00  0.00    +0.000 A 
ATOM     12  N   UNL     1       1.221   9.585  19.614  0.00  0.00    +0.000 NA
ATOM     13  N   UNL     1       1.871   8.502  19.031  0.00  0.00    +0.000 NA
ATOM     14  C   UNL     1       3.490   5.346  19.877  0.00  0.00    +0.000 C 
ATOM     15  C   UNL     1       4.427   4.694  18.852  0.00  0.00    +0.000 C 
ATOM     16  C   UNL     1       5.854   5.218  18.918  0.00  0.00    +0.000 C 
ENDROOT
BRANCH  11  17
ATOM     17  C   UNL     1       0.087  10.697  21.433  0.00  0.00    +0.000 A 
ATOM     18  C   UNL     1       0.347  11.977  20.902  0.00  0.00    +0.000 A 
ATOM     19  C   UNL     1      -0.230  13.127  21.447  0.00  0.00    +0.000 A 
ATOM     20  C   UNL     1      -1.088  13.023  22.536  0.00  0.00    +0.000 A 
ATOM     21  C   UNL     1      -1.370  11.772  23.076  0.00  0.00    +0.000 A 
ATOM     22  C   UNL     1      -0.791  10.620  22.528  0.00  0.00    +0.000 A 
ENDBRANCH  11  17
TORSDOF 1
ENDMDL
MODEL 4
REMARK VINA RESULT:      -7.6      2.118      3.142
REMARK  Name = 
REMARK  3 active torsions:
REMARK  status: ('A' for Active; 'I' for Inactive)
REMARK    1  A    between atoms: C_1  and  N_2
REMARK    2  A    between atoms: N_2  and  C_3
REMARK    3  A    between atoms: C_11  and  C_12
REMARK                            x       y       z     vdW  Elec       q    Type
REMARK                         _______ _______ _______ _____ _____    ______ ____
ROOT
ATOM      1  C   UNL     1       7.007   6.879  17.516  0.00  0.00    +0.000 C 
ATOM      2  N   UNL     1       6.510   5.437  17.589  0.00  0.00    +0.000 N 
ATOM      3  C   UNL     1       7.680   4.520  17.248  0.00  0.00    +0.000 C 
ATOM      4  C   UNL     1       5.348   5.197  16.605  0.00  0.00    +0.000 C 
ATOM      5  C   UNL     1       4.094   5.129  17.441  0.00  0.00    +0.000 C 
ATOM      6  C   UNL     1       3.406   6.462  17.711  0.00  0.00    +0.000 C 
ATOM      7  N   UNL     1       2.809   6.232  19.014  0.00  0.00    +0.000 N 
ATOM      8  C   UNL     1       2.099   7.256  19.612  0.00  0.00    +0.000 A 
ATOM      9  C   UNL     1       1.454   7.075  20.825  0.00  0.00    +0.000 A 
ATOM     10  C   UNL     1       0.761   8.129  21.421  0.00  0.00    +0.000 A 
ATOM     11  C   UNL     1       0.724   9.367  20.798  0.00  0.00    +0.000 A 
ATOM     12  N   UNL     1       1.325   9.518  19.600  0.00  0.00    +0.000 NA
ATOM     13  N   UNL     1       2.005   8.458  19.008  0.00  0.00    +0.000 NA
ATOM     14  C   UNL     1       3.539   5.246  19.801  0.00  0.00    +0.000 C 
ATOM     15  C   UNL     1       4.538   4.635  18.810  0.00  0.00    +0.000 C 
ATOM     16  C   UNL     1       5.961   5.140  18.999  0.00  0.00    +0.000 C 
ENDROOT
BRANCH  11  17
ATOM     17  C   UNL     1       0.078  10.550  21.392  0.00  0.00    +0.000 A 
ATOM     18  C   UNL     1      -0.776  10.434  22.508  0.00  0.00    +0.000 A 
ATOM     19  C   UNL     1      -1.396  11.550  23.074  0.00  0.00    +0.000 A 
ATOM     20  C   UNL     1      -1.173  12.814  22.539  0.00  0.00    +0.000 A 
ATOM     21  C   UNL     1      -0.329  12.960  21.442  0.00  0.00    +0.000 A 
ATOM     22  C   UNL     1       0.293  11.840  20.877  0.00  0.00    +0.000 A 
ENDBRANCH  11  17
TORSDOF 1
ENDMDL
MODEL 5
REMARK VINA RESULT:      -7.5      1.051      1.263
REMARK  Name = 
REMARK  3 active torsions:
REMARK  status: ('A' for Active; 'I' for Inactive)
REMARK    1  A    between atoms: C_1  and  N_2
REMARK    2  A    between atoms: N_2  and  C_3
REMARK    3  A    between atoms: C_11  and  C_12
REMARK                            x       y       z     vdW  Elec       q    Type
REMARK                         _______ _______ _______ _____ _____    ______ ____
ROOT
ATOM      1  C   UNL     1       1.824   2.426  19.687  0.00  0.00    +0.000 C 
ATOM      2  N   UNL     1       2.986   2.720  18.741  0.00  0.00    +0.000 N 
ATOM      3  C   UNL     1       3.412   1.404  18.098  0.00  0.00    +0.000 C 
ATOM      4  C   UNL     1       4.175   3.348  19.494  0.00  0.00    +0.000 C 
ATOM      5  C   UNL     1       4.181   4.811  19.130  0.00  0.00    +0.000 C 
ATOM      6  C   UNL     1       3.325   5.716  20.010  0.00  0.00    +0.000 C 
ATOM      7  N   UNL     1       2.924   6.750  19.076  0.00  0.00    +0.000 N 
ATOM      8  C   UNL     1       2.099   7.766  19.519  0.00  0.00    +0.000 A 
ATOM      9  C   UNL     1       1.735   8.815  18.690  0.00  0.00    +0.000 A 
ATOM     10  C   UNL     1       0.883   9.818  19.153  0.00  0.00    +0.000 A 
ATOM     11  C   UNL     1       0.393   9.761  20.448  0.00  0.00    +0.000 A 
ATOM     12  N   UNL     1       0.786   8.754  21.256  0.00  0.00    +0.000 NA
ATOM     13  N   UNL     1       1.644   7.763  20.789  0.00  0.00    +0.000 NA
ATOM     14  C   UNL     1       2.883   6.278  17.697  0.00  0.00    +0.000 C 
ATOM     15  C   UNL     1       3.544   4.895  17.751  0.00  0.00    +0.000 C 
ATOM     16  C   UNL     1       2.550   3.745  17.675  0.00  0.00    +0.000 C 
ENDROOT
BRANCH  11  17
ATOM     17  C   UNL     1      -0.566  10.738  20.992  0.00  0.00    +0.000 A 
ATOM     18  C   UNL     1      -0.731  10.905  22.383  0.00  0.00    +0.000 A 
ATOM     19  C   UNL     1      -1.642  11.825  22.907  0.00  0.00    +0.000 A 
ATOM     20  C   UNL     1      -2.409  12.606  22.050  0.00  0.00    +0.000 A 
ATOM     21  C   UNL     1      -2.262  12.469  20.673  0.00  0.00    +0.000 A 
ATOM     22  C   UNL     1      -1.347  11.547  20.150  0.00  0.00    +0.000 A 
ENDBRANCH  11  17
TORSDOF 1
ENDMDL
MODEL 6
REMARK VINA RESULT:      -7.3      1.253      1.793
REMARK  Name = 
REMARK  3 active torsions:
REMARK  status: ('A' for Active; 'I' for Inactive)
REMARK    1  A    between atoms: C_1  and  N_2
REMARK    2  A    between atoms: N_2  and  C_3
REMARK    3  A    between atoms: C_11  and  C_12
REMARK                            x       y       z     vdW  Elec       q    Type
REMARK                         _______ _______ _______ _____ _____    ______ ____
ROOT
ATOM      1  C   UNL     1       1.546   2.608  19.697  0.00  0.00    +0.000 C 
ATOM      2  N   UNL     1       2.719   2.913  18.769  0.00  0.00    +0.000 N 
ATOM      3  C   UNL     1       3.134   1.611  18.092  0.00  0.00    +0.000 C 
ATOM      4  C   UNL     1       3.909   3.505  19.548  0.00  0.00    +0.000 C 
ATOM      5  C   UNL     1       3.937   4.977  19.225  0.00  0.00    +0.000 C 
ATOM      6  C   UNL     1       3.085   5.868  20.123  0.00  0.00    +0.000 C 
ATOM      7  N   UNL     1       2.705   6.933  19.214  0.00  0.00    +0.000 N 
ATOM      8  C   UNL     1       1.889   7.947  19.679  0.00  0.00    +0.000 A 
ATOM      9  C   UNL     1       1.544   9.023  18.876  0.00  0.00    +0.000 A 
ATOM     10  C   UNL     1       0.701  10.023  19.360  0.00  0.00    +0.000 A 
ATOM     11  C   UNL     1       0.200   9.937  20.650  0.00  0.00    +0.000 A 
ATOM     12  N   UNL     1       0.574   8.903  21.432  0.00  0.00    +0.000 NA
ATOM     13  N   UNL     1       1.423   7.915  20.945  0.00  0.00    +0.000 NA
ATOM     14  C   UNL     1       2.668   6.499  17.823  0.00  0.00    +0.000 C 
ATOM     15  C   UNL     1       3.313   5.108  17.843  0.00  0.00    +0.000 C 
ATOM     16  C   UNL     1       2.304   3.973  17.728  0.00  0.00    +0.000 C 
ENDROOT
BRANCH  11  17
ATOM     17  C   UNL     1      -0.751  10.910  21.213  0.00  0.00    +0.000 A 
ATOM     18  C   UNL     1      -1.440  11.821  20.387  0.00  0.00    +0.000 A 
ATOM     19  C   UNL     1      -2.340  12.751  20.914  0.00  0.00    +0.000 A 
ATOM     20  C   UNL     1      -2.577  12.789  22.283  0.00  0.00    +0.000 A 
ATOM     21  C   UNL     1      -1.917  11.896  23.122  0.00  0.00    +0.000 A 
ATOM     22  C   UNL     1      -1.016  10.964  22.592  0.00  0.00    +0.000 A 
ENDBRANCH  11  17
TORSDOF 1
ENDMDL
MODEL 7
REMARK VINA RESULT:      -7.0      1.859      3.025
REMARK  Name = 
REMARK  3 active torsions:
REMARK  status: ('A' for Active; 'I' for Inactive)
REMARK    1  A    between atoms: C_1  and  N_2
REMARK    2  A    between atoms: N_2  and  C_3
REMARK    3  A    between atoms: C_11  and  C_12
REMARK                            x       y       z     vdW  Elec       q    Type
REMARK                         _______ _______ _______ _____ _____    ______ ____
ROOT
ATOM      1  C   UNL     1       7.119   6.805  17.363  0.00  0.00    +0.000 C 
ATOM      2  N   UNL     1       6.643   5.399  17.719  0.00  0.00    +0.000 N 
ATOM      3  C   UNL     1       7.832   4.453  17.588  0.00  0.00    +0.000 C 
ATOM      4  C   UNL     1       5.502   4.943  16.788  0.00  0.00    +0.000 C 
ATOM      5  C   UNL     1       4.235   5.021  17.602  0.00  0.00    +0.000 C 
ATOM      6  C   UNL     1       3.521   6.369  17.588  0.00  0.00    +0.000 C 
ATOM      7  N   UNL     1       2.906   6.396  18.901  0.00  0.00    +0.000 N 
ATOM      8  C   UNL     1       2.170   7.506  19.269  0.00  0.00    +0.000 A 
ATOM      9  C   UNL     1       1.506   7.562  20.485  0.00  0.00    +0.000 A 
ATOM     10  C   UNL     1       0.787   8.702  20.845  0.00  0.00    +0.000 A 
ATOM     11  C   UNL     1       0.741   9.787  19.983  0.00  0.00    +0.000 A 
ATOM     12  N   UNL     1       1.361   9.704  18.788  0.00  0.00    +0.000 NA
ATOM     13  N   UNL     1       2.068   8.559  18.433  0.00  0.00    +0.000 NA
ATOM     14  C   UNL     1       3.637   5.603  19.882  0.00  0.00    +0.000 C 
ATOM     15  C   UNL     1       4.662   4.823  19.050  0.00  0.00    +0.000 C 
ATOM     16  C   UNL     1       6.075   5.382  19.152  0.00  0.00    +0.000 C 
ENDROOT
BRANCH  11  17
ATOM     17  C   UNL     1       0.067  11.053  20.316  0.00  0.00    +0.000 A 
ATOM     18  C   UNL     1      -1.208  11.362  19.797  0.00  0.00    +0.000 A 
ATOM     19  C   UNL     1      -1.852  12.563  20.103  0.00  0.00    +0.000 A 
ATOM     20  C   UNL     1      -1.238  13.485  20.943  0.00  0.00    +0.000 A 
ATOM     21  C   UNL     1       0.016  13.204  21.478  0.00  0.00    +0.000 A 
ATOM     22  C   UNL     1       0.660  11.999  21.170  0.00  0.00    +0.000 A 
ENDBRANCH  11  17
TORSDOF 1
ENDMDL
MODEL 8
REMARK VINA RESULT:      -7.0      1.851      2.844
REMARK  Name = 
REMARK  3 active torsions:
REMARK  status: ('A' for Active; 'I' for Inactive)
REMARK    1  A    between atoms: C_1  and  N_2
REMARK    2  A    between atoms: N_2  and  C_3
REMARK    3  A    between atoms: C_11  and  C_12
REMARK                            x       y       z     vdW  Elec       q    Type
REMARK                         _______ _______ _______ _____ _____    ______ ____
ROOT
ATOM      1  C   UNL     1       7.008   6.741  17.221  0.00  0.00    +0.000 C 
ATOM      2  N   UNL     1       6.553   5.348  17.651  0.00  0.00    +0.000 N 
ATOM      3  C   UNL     1       7.741   4.402  17.510  0.00  0.00    +0.000 C 
ATOM      4  C   UNL     1       5.379   4.852  16.784  0.00  0.00    +0.000 C 
ATOM      5  C   UNL     1       4.145   4.958  17.644  0.00  0.00    +0.000 C 
ATOM      6  C   UNL     1       3.424   6.302  17.605  0.00  0.00    +0.000 C 
ATOM      7  N   UNL     1       2.861   6.379  18.940  0.00  0.00    +0.000 N 
ATOM      8  C   UNL     1       2.134   7.500  19.293  0.00  0.00    +0.000 A 
ATOM      9  C   UNL     1       1.519   7.601  20.531  0.00  0.00    +0.000 A 
ATOM     10  C   UNL     1       0.809   8.752  20.874  0.00  0.00    +0.000 A 
ATOM     11  C   UNL     1       0.724   9.802  19.974  0.00  0.00    +0.000 A 
ATOM     12  N   UNL     1       1.297   9.674  18.759  0.00  0.00    +0.000 NA
ATOM     13  N   UNL     1       1.995   8.519  18.421  0.00  0.00    +0.000 NA
ATOM     14  C   UNL     1       3.633   5.627  19.921  0.00  0.00    +0.000 C 
ATOM     15  C   UNL     1       4.629   4.819  19.080  0.00  0.00    +0.000 C 
ATOM     16  C   UNL     1       6.042   5.386  19.105  0.00  0.00    +0.000 C 
ENDROOT
BRANCH  11  17
ATOM     17  C   UNL     1       0.057  11.079  20.283  0.00  0.00    +0.000 A 
ATOM     18  C   UNL     1       0.702  12.075  21.046  0.00  0.00    +0.000 A 
ATOM     19  C   UNL     1       0.074  13.286  21.348  0.00  0.00    +0.000 A 
ATOM     20  C   UNL     1      -1.215  13.533  20.889  0.00  0.00    +0.000 A 
ATOM     21  C   UNL     1      -1.872  12.571  20.127  0.00  0.00    +0.000 A 
ATOM     22  C   UNL     1      -1.241  11.358  19.824  0.00  0.00    +0.000 A 
ENDBRANCH  11  17
TORSDOF 1
ENDMDL
MODEL 9
REMARK VINA RESULT:      -6.9      2.787      8.402
REMARK  Name = 
REMARK  3 active torsions:
REMARK  status: ('A' for Active; 'I' for Inactive)
REMARK    1  A    between atoms: C_1  and  N_2
REMARK    2  A    between atoms: N_2  and  C_3
REMARK    3  A    between atoms: C_11  and  C_12
REMARK                            x       y       z     vdW  Elec       q    Type
REMARK                         _______ _______ _______ _____ _____    ______ ____
ROOT
ATOM      1  C   UNL     1       2.974  14.205  21.469  0.00  0.00    +0.000 C 
ATOM      2  N   UNL     1       2.476  14.672  20.103  0.00  0.00    +0.000 N 
ATOM      3  C   UNL     1       2.762  16.166  19.986  0.00  0.00    +0.000 C 
ATOM      4  C   UNL     1       0.967  14.410  19.939  0.00  0.00    +0.000 C 
ATOM      5  C   UNL     1       0.841  13.231  19.008  0.00  0.00    +0.000 C 
ATOM      6  C   UNL     1       0.866  11.857  19.671  0.00  0.00    +0.000 C 
ATOM      7  N   UNL     1       1.473  11.038  18.640  0.00  0.00    +0.000 N 
ATOM      8  C   UNL     1       1.685   9.696  18.894  0.00  0.00    +0.000 A 
ATOM      9  C   UNL     1       2.202   8.851  17.924  0.00  0.00    +0.000 A 
ATOM     10  C   UNL     1       2.428   7.504  18.210  0.00  0.00    +0.000 A 
ATOM     11  C   UNL     1       2.139   7.011  19.473  0.00  0.00    +0.000 A 
ATOM     12  N   UNL     1       1.602   7.837  20.394  0.00  0.00    +0.000 NA
ATOM     13  N   UNL     1       1.371   9.176  20.097  0.00  0.00    +0.000 NA
ATOM     14  C   UNL     1       2.353  11.799  17.761  0.00  0.00    +0.000 C 
ATOM     15  C   UNL     1       2.085  13.262  18.133  0.00  0.00    +0.000 C 
ATOM     16  C   UNL     1       3.185  13.881  18.985  0.00  0.00    +0.000 C 
ENDROOT
BRANCH  11  17
ATOM     17  C   UNL     1       2.415   5.622  19.879  0.00  0.00    +0.000 A 
ATOM     18  C   UNL     1       3.529   4.919  19.375  0.00  0.00    +0.000 A 
ATOM     19  C   UNL     1       3.794   3.600  19.751  0.00  0.00    +0.000 A 
ATOM     20  C   UNL     1       2.952   2.952  20.647  0.00  0.00    +0.000 A 
ATOM     21  C   UNL     1       1.849   3.623  21.168  0.00  0.00    +0.000 A 
ATOM     22  C   UNL     1       1.585   4.945  20.790  0.00  0.00    +0.000 A 
ENDBRANCH  11  17
TORSDOF 1
ENDMDL
