MODEL 1
REMARK VINA RESULT:      -7.4      0.000      0.000
REMARK  Name = 
REMARK  7 active torsions:
REMARK  status: ('A' for Active; 'I' for Inactive)
REMARK    1  A    between atoms: C_1  and  C_2
REMARK    2  A    between atoms: C_2  and  C_3
REMARK    3  A    between atoms: C_2  and  C_4
REMARK    4  A    between atoms: C_2  and  O_5
REMARK    5  A    between atoms: O_5  and  C_6
REMARK    6  A    between atoms: C_11  and  C_12
REMARK    7  A    between atoms: C_12  and  C_13
REMARK                            x       y       z     vdW  Elec       q    Type
REMARK                         _______ _______ _______ _____ _____    ______ ____
ROOT
ATOM      1  C   UNL     1       4.440  15.411  19.139  0.00  0.00    +0.000 A 
ATOM      2  C   UNL     1       5.298  14.781  18.234  0.00  0.00    +0.000 A 
ATOM      3  C   UNL     1       6.677  14.696  18.728  0.00  0.00    +0.000 A 
ATOM      4  C   UNL     1       6.690  15.392  19.925  0.00  0.00    +0.000 A 
ATOM      5  S   UNL     1       5.190  15.594  20.661  0.00  0.00    +0.000 S 
ATOM      6  C   UNL     1       7.870  16.086  20.477  0.00  0.00    +0.000 C 
ATOM      7  C   UNL     1       8.828  16.339  19.298  0.00  0.00    +0.000 C 
ATOM      8  N   UNL     1       9.129  15.099  18.562  0.00  0.00    +0.000 NA
ATOM      9  C   UNL     1       9.965  14.347  19.472  0.00  0.00    +0.000 C 
ATOM     10  C   UNL     1       9.807  12.839  19.560  0.00  0.00    +0.000 A 
ATOM     11  C   UNL     1      10.769  12.342  20.447  0.00  0.00    +0.000 A 
ATOM     12  C   UNL     1      11.934  11.911  19.855  0.00  0.00    +0.000 A 
ATOM     13  C   UNL     1      11.925  11.627  18.487  0.00  0.00    +0.000 A 
ATOM     14  C   UNL     1      10.724  11.721  17.723  0.00  0.00    +0.000 A 
ATOM     15  C   UNL     1       9.599  12.320  18.290  0.00  0.00    +0.000 A 
ATOM     16  C   UNL     1       8.332  12.833  17.604  0.00  0.00    +0.000 C 
ATOM     17  C   UNL     1       7.980  14.361  17.945  0.00  0.00    +0.000 C 
ENDROOT
BRANCH   1  18
ATOM     18  C   UNL     1       3.049  15.961  19.007  0.00  0.00    +0.000 C 
BRANCH  18  24
ATOM     19  C   UNL     1      -0.514  14.170  21.949  0.00  0.00    +0.000 C 
ATOM     20  O   UNL     1      -1.594  14.757  21.985  0.00  0.00    +0.000 OA
ATOM     21  N   UNL     1       0.527  14.623  21.152  0.00  0.00    +0.000 N 
ATOM     22  C   UNL     1       0.284  15.787  20.302  0.00  0.00    +0.000 C 
ATOM     23  C   UNL     1       0.563  15.411  18.854  0.00  0.00    +0.000 C 
ATOM     24  C   UNL     1       1.993  14.856  18.698  0.00  0.00    +0.000 C 
ATOM     25  C   UNL     1       2.130  13.618  19.607  0.00  0.00    +0.000 C 
ATOM     26  C   UNL     1       1.808  13.959  21.050  0.00  0.00    +0.000 C 
BRANCH  19  27
ATOM     27  O   UNL     1      -0.245  13.002  22.573  0.00  0.00    +0.000 OA
BRANCH  27  29
ATOM     28  C   UNL     1      -2.440  12.008  23.094  0.00  0.00    +0.000 C 
ATOM     29  C   UNL     1      -1.119  11.856  22.334  0.00  0.00    +0.000 C 
ATOM     30  C   UNL     1      -0.382  10.553  22.638  0.00  0.00    +0.000 C 
ATOM     31  C   UNL     1      -1.441  11.889  20.829  0.00  0.00    +0.000 C 
ENDBRANCH  27  29
ENDBRANCH  19  27
ENDBRANCH  18  24
ENDBRANCH   1  18
TORSDOF 4
ENDMDL
MODEL 2
REMARK VINA RESULT:      -7.3      2.378      3.067
REMARK  Name = 
REMARK  7 active torsions:
REMARK  status: ('A' for Active; 'I' for Inactive)
REMARK    1  A    between atoms: C_1  and  C_2
REMARK    2  A    between atoms: C_2  and  C_3
REMARK    3  A    between atoms: C_2  and  C_4
REMARK    4  A    between atoms: C_2  and  O_5
REMARK    5  A    between atoms: O_5  and  C_6
REMARK    6  A    between atoms: C_11  and  C_12
REMARK    7  A    between atoms: C_12  and  C_13
REMARK                            x       y       z     vdW  Elec       q    Type
REMARK                         _______ _______ _______ _____ _____    ______ ____
ROOT
ATOM      1  C   UNL     1       3.565  15.020  19.121  0.00  0.00    +0.000 A 
ATOM      2  C   UNL     1       4.475  14.496  18.199  0.00  0.00    +0.000 A 
ATOM      3  C   UNL     1       5.868  14.818  18.534  0.00  0.00    +0.000 A 
ATOM      4  C   UNL     1       5.804  15.658  19.633  0.00  0.00    +0.000 A 
ATOM      5  S   UNL     1       4.371  15.591  20.512  0.00  0.00    +0.000 S 
ATOM      6  C   UNL     1       6.810  16.687  19.958  0.00  0.00    +0.000 C 
ATOM      7  C   UNL     1       7.567  16.996  18.654  0.00  0.00    +0.000 C 
ATOM      8  N   UNL     1       8.111  15.776  18.034  0.00  0.00    +0.000 NA
ATOM      9  C   UNL     1       9.187  15.385  18.920  0.00  0.00    +0.000 C 
ATOM     10  C   UNL     1       9.427  13.911  19.198  0.00  0.00    +0.000 A 
ATOM     11  C   UNL     1      10.557  13.792  20.017  0.00  0.00    +0.000 A 
ATOM     12  C   UNL     1      11.738  13.577  19.345  0.00  0.00    +0.000 A 
ATOM     13  C   UNL     1      11.685  13.110  18.029  0.00  0.00    +0.000 A 
ATOM     14  C   UNL     1      10.440  12.802  17.406  0.00  0.00    +0.000 A 
ATOM     15  C   UNL     1       9.252  13.184  18.029  0.00  0.00    +0.000 A 
ATOM     16  C   UNL     1       7.842  13.273  17.443  0.00  0.00    +0.000 C 
ATOM     17  C   UNL     1       7.141  14.702  17.646  0.00  0.00    +0.000 C 
ENDROOT
BRANCH   1  18
ATOM     18  C   UNL     1       2.074  15.192  19.092  0.00  0.00    +0.000 C 
BRANCH  18  24
ATOM     19  C   UNL     1      -0.891  11.266  18.498  0.00  0.00    +0.000 C 
ATOM     20  O   UNL     1      -0.379  10.153  18.412  0.00  0.00    +0.000 OA
ATOM     21  N   UNL     1      -0.118  12.406  18.659  0.00  0.00    +0.000 N 
ATOM     22  C   UNL     1       1.328  12.242  18.787  0.00  0.00    +0.000 C 
ATOM     23  C   UNL     1       1.785  12.866  20.097  0.00  0.00    +0.000 C 
ATOM     24  C   UNL     1       1.350  14.343  20.181  0.00  0.00    +0.000 C 
ATOM     25  C   UNL     1      -0.186  14.399  20.070  0.00  0.00    +0.000 C 
ATOM     26  C   UNL     1      -0.668  13.738  18.792  0.00  0.00    +0.000 C 
BRANCH  19  27
ATOM     27  O   UNL     1      -2.221  11.506  18.550  0.00  0.00    +0.000 OA
BRANCH  27  29
ATOM     28  C   UNL     1      -3.405   9.478  17.804  0.00  0.00    +0.000 C 
ATOM     29  C   UNL     1      -3.081  10.946  17.512  0.00  0.00    +0.000 C 
ATOM     30  C   UNL     1      -2.468  11.177  16.132  0.00  0.00    +0.000 C 
ATOM     31  C   UNL     1      -4.399  11.738  17.595  0.00  0.00    +0.000 C 
ENDBRANCH  27  29
ENDBRANCH  19  27
ENDBRANCH  18  24
ENDBRANCH   1  18
TORSDOF 4
ENDMDL
MODEL 3
REMARK VINA RESULT:      -7.3      6.814     11.291
REMARK  Name = 
REMARK  7 active torsions:
REMARK  status: ('A' for Active; 'I' for Inactive)
REMARK    1  A    between atoms: C_1  and  C_2
REMARK    2  A    between atoms: C_2  and  C_3
REMARK    3  A    between atoms: C_2  and  C_4
REMARK    4  A    between atoms: C_2  and  O_5
REMARK    5  A    between atoms: O_5  and  C_6
REMARK    6  A    between atoms: C_11  and  C_12
REMARK    7  A    between atoms: C_12  and  C_13
REMARK                            x       y       z     vdW  Elec       q    Type
REMARK                         _______ _______ _______ _____ _____    ______ ____
ROOT
ATOM      1  C   UNL     1       1.294   8.573  20.167  0.00  0.00    +0.000 A 
ATOM      2  C   UNL     1       0.727   9.008  21.368  0.00  0.00    +0.000 A 
ATOM      3  C   UNL     1       0.168  10.361  21.272  0.00  0.00    +0.000 A 
ATOM      4  C   UNL     1       0.500  10.815  20.007  0.00  0.00    +0.000 A 
ATOM      5  S   UNL     1       0.876   9.619  18.885  0.00  0.00    +0.000 S 
ATOM      6  C   UNL     1       0.703  12.233  19.653  0.00  0.00    +0.000 C 
ATOM      7  C   UNL     1       1.004  12.980  20.966  0.00  0.00    +0.000 C 
ATOM      8  N   UNL     1      -0.033  12.739  21.983  0.00  0.00    +0.000 NA
ATOM      9  C   UNL     1      -1.184  13.462  21.484  0.00  0.00    +0.000 C 
ATOM     10  C   UNL     1      -2.571  12.868  21.656  0.00  0.00    +0.000 A 
ATOM     11  C   UNL     1      -3.510  13.781  21.162  0.00  0.00    +0.000 A 
ATOM     12  C   UNL     1      -4.052  14.622  22.107  0.00  0.00    +0.000 A 
ATOM     13  C   UNL     1      -3.955  14.266  23.455  0.00  0.00    +0.000 A 
ATOM     14  C   UNL     1      -3.364  13.030  23.849  0.00  0.00    +0.000 A 
ATOM     15  C   UNL     1      -2.669  12.273  22.906  0.00  0.00    +0.000 A 
ATOM     16  C   UNL     1      -1.691  11.119  23.128  0.00  0.00    +0.000 C 
ATOM     17  C   UNL     1      -0.268  11.324  22.415  0.00  0.00    +0.000 C 
ENDROOT
BRANCH   1  18
ATOM     18  C   UNL     1       2.192   7.420  19.825  0.00  0.00    +0.000 C 
BRANCH  18  24
ATOM     19  C   UNL     1       4.795   3.964  17.410  0.00  0.00    +0.000 C 
ATOM     20  O   UNL     1       4.273   2.869  17.212  0.00  0.00    +0.000 OA
ATOM     21  N   UNL     1       4.124   4.972  18.085  0.00  0.00    +0.000 N 
ATOM     22  C   UNL     1       2.747   4.719  18.504  0.00  0.00    +0.000 C 
ATOM     23  C   UNL     1       1.841   5.783  17.902  0.00  0.00    +0.000 C 
ATOM     24  C   UNL     1       2.323   7.196  18.288  0.00  0.00    +0.000 C 
ATOM     25  C   UNL     1       3.766   7.369  17.773  0.00  0.00    +0.000 C 
ATOM     26  C   UNL     1       4.678   6.287  18.322  0.00  0.00    +0.000 C 
BRANCH  19  27
ATOM     27  O   UNL     1       5.998   4.348  16.926  0.00  0.00    +0.000 OA
BRANCH  27  29
ATOM     28  C   UNL     1       5.250   5.846  15.117  0.00  0.00    +0.000 C 
ATOM     29  C   UNL     1       6.123   4.648  15.503  0.00  0.00    +0.000 C 
ATOM     30  C   UNL     1       5.852   3.397  14.670  0.00  0.00    +0.000 C 
ATOM     31  C   UNL     1       7.593   5.057  15.295  0.00  0.00    +0.000 C 
ENDBRANCH  27  29
ENDBRANCH  19  27
ENDBRANCH  18  24
ENDBRANCH   1  18
TORSDOF 4
ENDMDL
MODEL 4
REMARK VINA RESULT:      -7.2      7.078     11.174
REMARK  Name = 
REMARK  7 active torsions:
REMARK  status: ('A' for Active; 'I' for Inactive)
REMARK    1  A    between atoms: C_1  and  C_2
REMARK    2  A    between atoms: C_2  and  C_3
REMARK    3  A    between atoms: C_2  and  C_4
REMARK    4  A    between atoms: C_2  and  O_5
REMARK    5  A    between atoms: O_5  and  C_6
REMARK    6  A    between atoms: C_11  and  C_12
REMARK    7  A    between atoms: C_12  and  C_13
REMARK                            x       y       z     vdW  Elec       q    Type
REMARK                         _______ _______ _______ _____ _____    ______ ____
ROOT
ATOM      1  C   UNL     1       0.908   9.310  18.739  0.00  0.00    +0.000 A 
ATOM      2  C   UNL     1       0.814   9.771  20.055  0.00  0.00    +0.000 A 
ATOM      3  C   UNL     1      -0.166  10.854  20.205  0.00  0.00    +0.000 A 
ATOM      4  C   UNL     1      -0.606  11.141  18.924  0.00  0.00    +0.000 A 
ATOM      5  S   UNL     1      -0.367   9.924  17.787  0.00  0.00    +0.000 S 
ATOM      6  C   UNL     1      -1.092  12.463  18.483  0.00  0.00    +0.000 C 
ATOM      7  C   UNL     1      -0.529  13.497  19.476  0.00  0.00    +0.000 C 
ATOM      8  N   UNL     1      -0.857  13.152  20.870  0.00  0.00    +0.000 NA
ATOM      9  C   UNL     1      -2.281  13.391  20.963  0.00  0.00    +0.000 C 
ATOM     10  C   UNL     1      -3.144  12.453  21.788  0.00  0.00    +0.000 A 
ATOM     11  C   UNL     1      -4.458  12.935  21.780  0.00  0.00    +0.000 A 
ATOM     12  C   UNL     1      -4.787  13.737  22.848  0.00  0.00    +0.000 A 
ATOM     13  C   UNL     1      -3.991  13.685  23.996  0.00  0.00    +0.000 A 
ATOM     14  C   UNL     1      -2.894  12.778  24.090  0.00  0.00    +0.000 A 
ATOM     15  C   UNL     1      -2.467  12.101  22.948  0.00  0.00    +0.000 A 
ATOM     16  C   UNL     1      -1.155  11.354  22.704  0.00  0.00    +0.000 C 
ATOM     17  C   UNL     1      -0.363  11.838  21.395  0.00  0.00    +0.000 C 
ENDROOT
BRANCH   1  18
ATOM     18  C   UNL     1       1.907   8.435  18.038  0.00  0.00    +0.000 C 
BRANCH  18  24
ATOM     19  C   UNL     1       3.792   3.936  17.166  0.00  0.00    +0.000 C 
ATOM     20  O   UNL     1       4.925   3.857  16.697  0.00  0.00    +0.000 OA
ATOM     21  N   UNL     1       3.204   5.164  17.427  0.00  0.00    +0.000 N 
ATOM     22  C   UNL     1       3.995   6.369  17.188  0.00  0.00    +0.000 C 
ATOM     23  C   UNL     1       4.079   7.173  18.477  0.00  0.00    +0.000 C 
ATOM     24  C   UNL     1       2.670   7.492  19.017  0.00  0.00    +0.000 C 
ATOM     25  C   UNL     1       1.938   6.158  19.265  0.00  0.00    +0.000 C 
ATOM     26  C   UNL     1       1.885   5.318  18.002  0.00  0.00    +0.000 C 
BRANCH  19  27
ATOM     27  O   UNL     1       3.043   2.885  17.568  0.00  0.00    +0.000 OA
BRANCH  27  29
ATOM     28  C   UNL     1       1.979   2.076  19.639  0.00  0.00    +0.000 C 
ATOM     29  C   UNL     1       3.292   2.303  18.884  0.00  0.00    +0.000 C 
ATOM     30  C   UNL     1       4.307   3.146  19.655  0.00  0.00    +0.000 C 
ATOM     31  C   UNL     1       3.918   0.922  18.613  0.00  0.00    +0.000 C 
ENDBRANCH  27  29
ENDBRANCH  19  27
ENDBRANCH  18  24
ENDBRANCH   1  18
TORSDOF 4
ENDMDL
MODEL 5
REMARK VINA RESULT:      -7.1      6.466     11.380
REMARK  Name = 
REMARK  7 active torsions:
REMARK  status: ('A' for Active; 'I' for Inactive)
REMARK    1  A    between atoms: C_1  and  C_2
REMARK    2  A    between atoms: C_2  and  C_3
REMARK    3  A    between atoms: C_2  and  C_4
REMARK    4  A    between atoms: C_2  and  O_5
REMARK    5  A    between atoms: O_5  and  C_6
REMARK    6  A    between atoms: C_11  and  C_12
REMARK    7  A    between atoms: C_12  and  C_13
REMARK                            x       y       z     vdW  Elec       q    Type
REMARK                         _______ _______ _______ _____ _____    ______ ____
ROOT
ATOM      1  C   UNL     1       1.009   8.892  20.787  0.00  0.00    +0.000 A 
ATOM      2  C   UNL     1       0.342   9.382  21.913  0.00  0.00    +0.000 A 
ATOM      3  C   UNL     1      -0.277  10.692  21.678  0.00  0.00    +0.000 A 
ATOM      4  C   UNL     1       0.115  11.069  20.405  0.00  0.00    +0.000 A 
ATOM      5  S   UNL     1       0.626   9.816  19.405  0.00  0.00    +0.000 S 
ATOM      6  C   UNL     1       0.269  12.466  19.956  0.00  0.00    +0.000 C 
ATOM      7  C   UNL     1       0.443  13.323  21.224  0.00  0.00    +0.000 C 
ATOM      8  N   UNL     1      -0.647  13.101  22.189  0.00  0.00    +0.000 NA
ATOM      9  C   UNL     1      -1.797  13.719  21.565  0.00  0.00    +0.000 C 
ATOM     10  C   UNL     1      -3.160  13.062  21.695  0.00  0.00    +0.000 A 
ATOM     11  C   UNL     1      -4.110  13.883  21.073  0.00  0.00    +0.000 A 
ATOM     12  C   UNL     1      -4.755  14.760  21.914  0.00  0.00    +0.000 A 
ATOM     13  C   UNL     1      -4.732  14.510  23.289  0.00  0.00    +0.000 A 
ATOM     14  C   UNL     1      -4.105  13.341  23.814  0.00  0.00    +0.000 A 
ATOM     15  C   UNL     1      -3.311  12.557  22.978  0.00  0.00    +0.000 A 
ATOM     16  C   UNL     1      -2.292  11.478  23.349  0.00  0.00    +0.000 C 
ATOM     17  C   UNL     1      -0.837  11.710  22.714  0.00  0.00    +0.000 C 
ENDROOT
BRANCH   1  18
ATOM     18  C   UNL     1       1.987   7.769  20.593  0.00  0.00    +0.000 C 
BRANCH  18  24
ATOM     19  C   UNL     1       4.845   4.618  18.054  0.00  0.00    +0.000 C 
ATOM     20  O   UNL     1       5.007   3.484  18.500  0.00  0.00    +0.000 OA
ATOM     21  N   UNL     1       4.063   5.550  18.718  0.00  0.00    +0.000 N 
ATOM     22  C   UNL     1       3.380   5.127  19.939  0.00  0.00    +0.000 C 
ATOM     23  C   UNL     1       1.885   5.356  19.776  0.00  0.00    +0.000 C 
ATOM     24  C   UNL     1       1.591   6.826  19.416  0.00  0.00    +0.000 C 
ATOM     25  C   UNL     1       2.328   7.156  18.103  0.00  0.00    +0.000 C 
ATOM     26  C   UNL     1       3.817   6.888  18.227  0.00  0.00    +0.000 C 
BRANCH  19  27
ATOM     27  O   UNL     1       5.302   5.053  16.858  0.00  0.00    +0.000 OA
BRANCH  27  29
ATOM     28  C   UNL     1       7.182   4.911  15.271  0.00  0.00    +0.000 C 
ATOM     29  C   UNL     1       6.735   5.278  16.689  0.00  0.00    +0.000 C 
ATOM     30  C   UNL     1       7.519   4.559  17.786  0.00  0.00    +0.000 C 
ATOM     31  C   UNL     1       6.939   6.794  16.864  0.00  0.00    +0.000 C 
ENDBRANCH  27  29
ENDBRANCH  19  27
ENDBRANCH  18  24
ENDBRANCH   1  18
TORSDOF 4
ENDMDL
MODEL 6
REMARK VINA RESULT:      -7.1      6.961     11.325
REMARK  Name = 
REMARK  7 active torsions:
REMARK  status: ('A' for Active; 'I' for Inactive)
REMARK    1  A    between atoms: C_1  and  C_2
REMARK    2  A    between atoms: C_2  and  C_3
REMARK    3  A    between atoms: C_2  and  C_4
REMARK    4  A    between atoms: C_2  and  O_5
REMARK    5  A    between atoms: O_5  and  C_6
REMARK    6  A    between atoms: C_11  and  C_12
REMARK    7  A    between atoms: C_12  and  C_13
REMARK                            x       y       z     vdW  Elec       q    Type
REMARK                         _______ _______ _______ _____ _____    ______ ____
ROOT
ATOM      1  C   UNL     1       0.974   8.716  21.067  0.00  0.00    +0.000 A 
ATOM      2  C   UNL     1       0.266   9.288  22.127  0.00  0.00    +0.000 A 
ATOM      3  C   UNL     1      -0.283  10.607  21.793  0.00  0.00    +0.000 A 
ATOM      4  C   UNL     1       0.195  10.903  20.527  0.00  0.00    +0.000 A 
ATOM      5  S   UNL     1       0.707   9.581  19.621  0.00  0.00    +0.000 S 
ATOM      6  C   UNL     1       0.431  12.268  20.020  0.00  0.00    +0.000 C 
ATOM      7  C   UNL     1       0.570  13.182  21.252  0.00  0.00    +0.000 C 
ATOM      8  N   UNL     1      -0.580  13.052  22.163  0.00  0.00    +0.000 NA
ATOM      9  C   UNL     1      -1.667  13.681  21.443  0.00  0.00    +0.000 C 
ATOM     10  C   UNL     1      -3.061  13.086  21.526  0.00  0.00    +0.000 A 
ATOM     11  C   UNL     1      -3.940  13.910  20.811  0.00  0.00    +0.000 A 
ATOM     12  C   UNL     1      -4.594  14.853  21.570  0.00  0.00    +0.000 A 
ATOM     13  C   UNL     1      -4.657  14.674  22.954  0.00  0.00    +0.000 A 
ATOM     14  C   UNL     1      -4.111  13.510  23.572  0.00  0.00    +0.000 A 
ATOM     15  C   UNL     1      -3.305  12.653  22.822  0.00  0.00    +0.000 A 
ATOM     16  C   UNL     1      -2.354  11.556  23.304  0.00  0.00    +0.000 C 
ATOM     17  C   UNL     1      -0.857  11.698  22.743  0.00  0.00    +0.000 C 
ENDROOT
BRANCH   1  18
ATOM     18  C   UNL     1       1.913   7.547  20.985  0.00  0.00    +0.000 C 
BRANCH  18  24
ATOM     19  C   UNL     1       4.950   4.205  18.945  0.00  0.00    +0.000 C 
ATOM     20  O   UNL     1       4.898   3.044  19.347  0.00  0.00    +0.000 OA
ATOM     21  N   UNL     1       4.132   5.190  19.478  0.00  0.00    +0.000 N 
ATOM     22  C   UNL     1       3.157   4.797  20.492  0.00  0.00    +0.000 C 
ATOM     23  C   UNL     1       1.765   5.191  20.021  0.00  0.00    +0.000 C 
ATOM     24  C   UNL     1       1.702   6.697  19.695  0.00  0.00    +0.000 C 
ATOM     25  C   UNL     1       2.742   6.995  18.597  0.00  0.00    +0.000 C 
ATOM     26  C   UNL     1       4.132   6.564  19.027  0.00  0.00    +0.000 C 
BRANCH  19  27
ATOM     27  O   UNL     1       5.703   4.633  17.907  0.00  0.00    +0.000 OA
BRANCH  27  29
ATOM     28  C   UNL     1       5.179   5.914  15.868  0.00  0.00    +0.000 C 
ATOM     29  C   UNL     1       5.157   4.546  16.556  0.00  0.00    +0.000 C 
ATOM     30  C   UNL     1       3.776   3.893  16.581  0.00  0.00    +0.000 C 
ATOM     31  C   UNL     1       6.115   3.621  15.782  0.00  0.00    +0.000 C 
ENDBRANCH  27  29
ENDBRANCH  19  27
ENDBRANCH  18  24
ENDBRANCH   1  18
TORSDOF 4
ENDMDL
MODEL 7
REMARK VINA RESULT:      -7.1      6.836     10.703
REMARK  Name = 
REMARK  7 active torsions:
REMARK  status: ('A' for Active; 'I' for Inactive)
REMARK    1  A    between atoms: C_1  and  C_2
REMARK    2  A    between atoms: C_2  and  C_3
REMARK    3  A    between atoms: C_2  and  C_4
REMARK    4  A    between atoms: C_2  and  O_5
REMARK    5  A    between atoms: O_5  and  C_6
REMARK    6  A    between atoms: C_11  and  C_12
REMARK    7  A    between atoms: C_12  and  C_13
REMARK                            x       y       z     vdW  Elec       q    Type
REMARK                         _______ _______ _______ _____ _____    ______ ____
ROOT
ATOM      1  C   UNL     1       7.997   8.580  18.068  0.00  0.00    +0.000 A 
ATOM      2  C   UNL     1       6.716   8.385  17.547  0.00  0.00    +0.000 A 
ATOM      3  C   UNL     1       6.272   6.989  17.646  0.00  0.00    +0.000 A 
ATOM      4  C   UNL     1       7.356   6.285  18.142  0.00  0.00    +0.000 A 
ATOM      5  S   UNL     1       8.513   7.209  18.943  0.00  0.00    +0.000 S 
ATOM      6  C   UNL     1       7.626   4.861  17.866  0.00  0.00    +0.000 C 
ATOM      7  C   UNL     1       6.852   4.502  16.584  0.00  0.00    +0.000 C 
ATOM      8  N   UNL     1       5.425   4.851  16.690  0.00  0.00    +0.000 NA
ATOM      9  C   UNL     1       4.901   3.890  17.636  0.00  0.00    +0.000 C 
ATOM     10  C   UNL     1       3.851   4.329  18.643  0.00  0.00    +0.000 A 
ATOM     11  C   UNL     1       3.456   3.211  19.389  0.00  0.00    +0.000 A 
ATOM     12  C   UNL     1       2.338   2.565  18.915  0.00  0.00    +0.000 A 
ATOM     13  C   UNL     1       1.489   3.249  18.040  0.00  0.00    +0.000 A 
ATOM     14  C   UNL     1       1.736   4.609  17.687  0.00  0.00    +0.000 A 
ATOM     15  C   UNL     1       2.955   5.193  18.031  0.00  0.00    +0.000 A 
ATOM     16  C   UNL     1       3.590   6.481  17.503  0.00  0.00    +0.000 C 
ATOM     17  C   UNL     1       5.078   6.288  16.934  0.00  0.00    +0.000 C 
ENDROOT
BRANCH   1  18
ATOM     18  C   UNL     1       8.971   9.719  17.971  0.00  0.00    +0.000 C 
BRANCH  18  24
ATOM     19  C   UNL     1      11.258  14.024  18.860  0.00  0.00    +0.000 C 
ATOM     20  O   UNL     1      11.470  14.781  17.915  0.00  0.00    +0.000 OA
ATOM     21  N   UNL     1      10.628  12.802  18.679  0.00  0.00    +0.000 N 
ATOM     22  C   UNL     1      10.164  12.461  17.335  0.00  0.00    +0.000 C 
ATOM     23  C   UNL     1       8.670  12.181  17.382  0.00  0.00    +0.000 C 
ATOM     24  C   UNL     1       8.350  11.079  18.412  0.00  0.00    +0.000 C 
ATOM     25  C   UNL     1       8.849  11.552  19.792  0.00  0.00    +0.000 C 
ATOM     26  C   UNL     1      10.329  11.884  19.756  0.00  0.00    +0.000 C 
BRANCH  19  27
ATOM     27  O   UNL     1      11.504  14.315  20.157  0.00  0.00    +0.000 OA
BRANCH  27  29
ATOM     28  C   UNL     1       9.572  15.827  19.925  0.00  0.00    +0.000 C 
ATOM     29  C   UNL     1      10.760  15.400  20.791  0.00  0.00    +0.000 C 
ATOM     30  C   UNL     1      11.700  16.548  21.154  0.00  0.00    +0.000 C 
ATOM     31  C   UNL     1      10.196  14.806  22.095  0.00  0.00    +0.000 C 
ENDBRANCH  27  29
ENDBRANCH  19  27
ENDBRANCH  18  24
ENDBRANCH   1  18
TORSDOF 4
ENDMDL
MODEL 8
REMARK VINA RESULT:      -7.0      7.016     11.463
REMARK  Name = 
REMARK  7 active torsions:
REMARK  status: ('A' for Active; 'I' for Inactive)
REMARK    1  A    between atoms: C_1  and  C_2
REMARK    2  A    between atoms: C_2  and  C_3
REMARK    3  A    between atoms: C_2  and  C_4
REMARK    4  A    between atoms: C_2  and  O_5
REMARK    5  A    between atoms: O_5  and  C_6
REMARK    6  A    between atoms: C_11  and  C_12
REMARK    7  A    between atoms: C_12  and  C_13
REMARK                            x       y       z     vdW  Elec       q    Type
REMARK                         _______ _______ _______ _____ _____    ______ ____
ROOT
ATOM      1  C   UNL     1       1.170   9.031  20.372  0.00  0.00    +0.000 A 
ATOM      2  C   UNL     1       0.624   9.525  21.560  0.00  0.00    +0.000 A 
ATOM      3  C   UNL     1      -0.175  10.739  21.352  0.00  0.00    +0.000 A 
ATOM      4  C   UNL     1      -0.025  11.062  20.014  0.00  0.00    +0.000 A 
ATOM      5  S   UNL     1       0.477   9.803  19.018  0.00  0.00    +0.000 S 
ATOM      6  C   UNL     1      -0.108  12.432  19.470  0.00  0.00    +0.000 C 
ATOM      7  C   UNL     1       0.149  13.393  20.645  0.00  0.00    +0.000 C 
ATOM      8  N   UNL     1      -0.751  13.123  21.780  0.00  0.00    +0.000 NA
ATOM      9  C   UNL     1      -2.046  13.564  21.310  0.00  0.00    +0.000 C 
ATOM     10  C   UNL     1      -3.287  12.773  21.688  0.00  0.00    +0.000 A 
ATOM     11  C   UNL     1      -4.409  13.437  21.178  0.00  0.00    +0.000 A 
ATOM     12  C   UNL     1      -5.023  14.297  22.060  0.00  0.00    +0.000 A 
ATOM     13  C   UNL     1      -4.765  14.153  23.426  0.00  0.00    +0.000 A 
ATOM     14  C   UNL     1      -3.932  13.101  23.911  0.00  0.00    +0.000 A 
ATOM     15  C   UNL     1      -3.183  12.350  23.005  0.00  0.00    +0.000 A 
ATOM     16  C   UNL     1      -1.999  11.420  23.271  0.00  0.00    +0.000 C 
ATOM     17  C   UNL     1      -0.693  11.763  22.404  0.00  0.00    +0.000 C 
ENDROOT
BRANCH   1  18
ATOM     18  C   UNL     1       2.235   8.011  20.090  0.00  0.00    +0.000 C 
BRANCH  18  24
ATOM     19  C   UNL     1       4.684   4.165  18.149  0.00  0.00    +0.000 C 
ATOM     20  O   UNL     1       5.078   3.280  18.905  0.00  0.00    +0.000 OA
ATOM     21  N   UNL     1       3.998   5.271  18.628  0.00  0.00    +0.000 N 
ATOM     22  C   UNL     1       3.699   5.327  20.058  0.00  0.00    +0.000 C 
ATOM     23  C   UNL     1       2.196   5.466  20.246  0.00  0.00    +0.000 C 
ATOM     24  C   UNL     1       1.660   6.695  19.484  0.00  0.00    +0.000 C 
ATOM     25  C   UNL     1       1.997   6.519  17.990  0.00  0.00    +0.000 C 
ATOM     26  C   UNL     1       3.489   6.329  17.783  0.00  0.00    +0.000 C 
BRANCH  19  27
ATOM     27  O   UNL     1       4.771   4.129  16.800  0.00  0.00    +0.000 OA
BRANCH  27  29
ATOM     28  C   UNL     1       7.186   4.515  17.098  0.00  0.00    +0.000 C 
ATOM     29  C   UNL     1       5.983   4.627  16.157  0.00  0.00    +0.000 C 
ATOM     30  C   UNL     1       5.757   6.037  15.615  0.00  0.00    +0.000 C 
ATOM     31  C   UNL     1       6.235   3.686  14.965  0.00  0.00    +0.000 C 
ENDBRANCH  27  29
ENDBRANCH  19  27
ENDBRANCH  18  24
ENDBRANCH   1  18
TORSDOF 4
ENDMDL
MODEL 9
REMARK VINA RESULT:      -6.8      6.258      9.942
REMARK  Name = 
REMARK  7 active torsions:
REMARK  status: ('A' for Active; 'I' for Inactive)
REMARK    1  A    between atoms: C_1  and  C_2
REMARK    2  A    between atoms: C_2  and  C_3
REMARK    3  A    between atoms: C_2  and  C_4
REMARK    4  A    between atoms: C_2  and  O_5
REMARK    5  A    between atoms: O_5  and  C_6
REMARK    6  A    between atoms: C_11  and  C_12
REMARK    7  A    between atoms: C_12  and  C_13
REMARK                            x       y       z     vdW  Elec       q    Type
REMARK                         _______ _______ _______ _____ _____    ______ ____
ROOT
ATOM      1  C   UNL     1       1.252   8.243  20.808  0.00  0.00    +0.000 A 
ATOM      2  C   UNL     1       1.372   9.163  19.763  0.00  0.00    +0.000 A 
ATOM      3  C   UNL     1       0.918  10.507  20.138  0.00  0.00    +0.000 A 
ATOM      4  C   UNL     1       0.400  10.385  21.417  0.00  0.00    +0.000 A 
ATOM      5  S   UNL     1       0.919   9.037  22.281  0.00  0.00    +0.000 S 
ATOM      6  C   UNL     1      -0.669  11.238  21.972  0.00  0.00    +0.000 C 
ATOM      7  C   UNL     1      -1.413  11.854  20.774  0.00  0.00    +0.000 C 
ATOM      8  N   UNL     1      -0.492  12.540  19.851  0.00  0.00    +0.000 NA
ATOM      9  C   UNL     1      -0.077  13.717  20.584  0.00  0.00    +0.000 C 
ATOM     10  C   UNL     1       1.359  14.199  20.471  0.00  0.00    +0.000 A 
ATOM     11  C   UNL     1       1.489  15.383  21.207  0.00  0.00    +0.000 A 
ATOM     12  C   UNL     1       1.332  16.539  20.477  0.00  0.00    +0.000 A 
ATOM     13  C   UNL     1       1.459  16.476  19.087  0.00  0.00    +0.000 A 
ATOM     14  C   UNL     1       1.805  15.256  18.433  0.00  0.00    +0.000 A 
ATOM     15  C   UNL     1       1.791  14.064  19.159  0.00  0.00    +0.000 A 
ATOM     16  C   UNL     1       1.794  12.624  18.647  0.00  0.00    +0.000 C 
ATOM     17  C   UNL     1       0.596  11.724  19.223  0.00  0.00    +0.000 C 
ENDROOT
BRANCH   1  18
ATOM     18  C   UNL     1       1.327   6.744  20.856  0.00  0.00    +0.000 C 
BRANCH  18  24
ATOM     19  C   UNL     1       5.158   4.181  19.037  0.00  0.00    +0.000 C 
ATOM     20  O   UNL     1       5.207   2.972  19.249  0.00  0.00    +0.000 OA
ATOM     21  N   UNL     1       4.117   4.958  19.523  0.00  0.00    +0.000 N 
ATOM     22  C   UNL     1       3.039   4.286  20.247  0.00  0.00    +0.000 C 
ATOM     23  C   UNL     1       1.716   4.585  19.558  0.00  0.00    +0.000 C 
ATOM     24  C   UNL     1       1.489   6.106  19.443  0.00  0.00    +0.000 C 
ATOM     25  C   UNL     1       2.659   6.707  18.639  0.00  0.00    +0.000 C 
ATOM     26  C   UNL     1       3.994   6.379  19.283  0.00  0.00    +0.000 C 
BRANCH  19  27
ATOM     27  O   UNL     1       6.017   4.866  18.250  0.00  0.00    +0.000 OA
BRANCH  27  29
ATOM     28  C   UNL     1       4.631   3.957  16.426  0.00  0.00    +0.000 C 
ATOM     29  C   UNL     1       5.862   4.789  16.800  0.00  0.00    +0.000 C 
ATOM     30  C   UNL     1       7.155   4.298  16.152  0.00  0.00    +0.000 C 
ATOM     31  C   UNL     1       5.606   6.234  16.334  0.00  0.00    +0.000 C 
ENDBRANCH  27  29
ENDBRANCH  19  27
ENDBRANCH  18  24
ENDBRANCH   1  18
TORSDOF 4
ENDMDL
