MODEL 1
REMARK VINA RESULT:      -7.0      0.000      0.000
REMARK  Name = 
REMARK  8 active torsions:
REMARK  status: ('A' for Active; 'I' for Inactive)
REMARK    1  A    between atoms: N_1  and  C_2
REMARK    2  A    between atoms: C_2  and  C_3
REMARK    3  A    between atoms: C_3  and  C_4
REMARK    4  A    between atoms: C_4  and  N_5
REMARK    5  A    between atoms: N_5  and  C_6
REMARK    6  A    between atoms: N_9  and  C_10
REMARK    7  A    between atoms: C_10  and  C_11
REMARK    8  A    between atoms: C_20  and  N_21
REMARK                            x       y       z     vdW  Elec       q    Type
REMARK                         _______ _______ _______ _____ _____    ______ ____
ROOT
ATOM      1  C   UNL     1       4.427   4.561  19.343  0.00  0.00    +0.000 A 
ATOM      2  N   UNL     1       4.009   5.845  19.474  0.00  0.00    +0.000 NA
ATOM      3  C   UNL     1       2.750   6.098  19.859  0.00  0.00    +0.000 A 
ATOM      4  N   UNL     1       2.369   7.423  19.934  0.00  0.00    +0.000 N 
ATOM      5  N   UNL     1       1.862   5.136  20.134  0.00  0.00    +0.000 NA
ATOM      6  C   UNL     1       2.273   3.863  20.001  0.00  0.00    +0.000 A 
ATOM      7  C   UNL     1       3.543   3.521  19.594  0.00  0.00    +0.000 A 
ATOM      8  H   UNL     1       3.205   7.999  19.949  0.00  0.00    +0.000 HD
ENDROOT
BRANCH   7   9
ATOM      9  N   UNL     1       3.898   2.116  19.562  0.00  0.00    +0.000 N 
ATOM     10  O   UNL     1       4.844   1.730  20.264  0.00  0.00    +0.000 OA
ATOM     11  O   UNL     1       3.206   1.363  18.863  0.00  0.00    +0.000 OA
ENDBRANCH   7   9
BRANCH   1  12
ATOM     12  N   UNL     1       5.731   4.363  18.850  0.00  0.00    +0.000 N 
ATOM     13  H   UNL     1       6.430   4.545  19.578  0.00  0.00    +0.000 HD
BRANCH  12  14
ATOM     14  C   UNL     1       6.042   5.091  17.614  0.00  0.00    +0.000 C 
BRANCH  14  15
ATOM     15  C   UNL     1       7.514   5.512  17.605  0.00  0.00    +0.000 C 
BRANCH  15  16
ATOM     16  C   UNL     1       7.850   6.352  18.840  0.00  0.00    +0.000 C 
BRANCH  16  17
ATOM     17  N   UNL     1       8.214   5.498  19.966  0.00  0.00    +0.000 NA
ATOM     18  H   UNL     1       7.650   5.750  20.781  0.00  0.00    +0.000 HD
ATOM     19  H   UNL     1       9.181   5.667  20.231  0.00  0.00    +0.000 HD
ENDBRANCH  16  17
ENDBRANCH  15  16
ENDBRANCH  14  15
ENDBRANCH  12  14
ENDBRANCH   1  12
BRANCH   4  20
ATOM     20  C   UNL     1       1.372   7.735  20.943  0.00  0.00    +0.000 C 
BRANCH  20  21
ATOM     21  C   UNL     1       0.754   9.089  20.659  0.00  0.00    +0.000 A 
ATOM     22  C   UNL     1       0.764   9.558  19.329  0.00  0.00    +0.000 A 
ATOM     23  C   UNL     1       0.194  10.787  18.990  0.00  0.00    +0.000 A 
ATOM     24  C   UNL     1      -0.404  11.567  19.974  0.00  0.00    +0.000 A 
ATOM     25  C   UNL     1      -0.446  11.110  21.290  0.00  0.00    +0.000 A 
ATOM     26  C   UNL     1       0.123   9.875  21.632  0.00  0.00    +0.000 A 
ATOM     27 CL   UNL     1      -0.008   9.381  23.282  0.00  0.00    +0.000 Cl
ENDBRANCH  20  21
ENDBRANCH   4  20
TORSDOF 8
ENDMDL
MODEL 2
REMARK VINA RESULT:      -6.9      4.896      7.112
REMARK  Name = 
REMARK  8 active torsions:
REMARK  status: ('A' for Active; 'I' for Inactive)
REMARK    1  A    between atoms: N_1  and  C_2
REMARK    2  A    between atoms: C_2  and  C_3
REMARK    3  A    between atoms: C_3  and  C_4
REMARK    4  A    between atoms: C_4  and  N_5
REMARK    5  A    between atoms: N_5  and  C_6
REMARK    6  A    between atoms: N_9  and  C_10
REMARK    7  A    between atoms: C_10  and  C_11
REMARK    8  A    between atoms: C_20  and  N_21
REMARK                            x       y       z     vdW  Elec       q    Type
REMARK                         _______ _______ _______ _____ _____    ______ ____
ROOT
ATOM      1  C   UNL     1       6.347   3.818  14.146  0.00  0.00    +0.000 A 
ATOM      2  N   UNL     1       5.578   3.450  15.201  0.00  0.00    +0.000 NA
ATOM      3  C   UNL     1       5.635   4.152  16.343  0.00  0.00    +0.000 A 
ATOM      4  N   UNL     1       4.862   3.704  17.395  0.00  0.00    +0.000 N 
ATOM      5  N   UNL     1       6.419   5.224  16.503  0.00  0.00    +0.000 NA
ATOM      6  C   UNL     1       7.184   5.589  15.461  0.00  0.00    +0.000 A 
ATOM      7  C   UNL     1       7.196   4.910  14.262  0.00  0.00    +0.000 A 
ATOM      8  H   UNL     1       4.161   3.066  17.033  0.00  0.00    +0.000 HD
ENDROOT
BRANCH   7   9
ATOM      9  N   UNL     1       8.003   5.442  13.181  0.00  0.00    +0.000 N 
ATOM     10  O   UNL     1       7.633   5.242  12.015  0.00  0.00    +0.000 OA
ATOM     11  O   UNL     1       9.002   6.109  13.483  0.00  0.00    +0.000 OA
ENDBRANCH   7   9
BRANCH   1  12
ATOM     12  N   UNL     1       6.308   2.989  13.009  0.00  0.00    +0.000 N 
ATOM     13  H   UNL     1       7.187   3.045  12.484  0.00  0.00    +0.000 HD
BRANCH  12  14
ATOM     14  C   UNL     1       5.147   3.193  12.135  0.00  0.00    +0.000 C 
BRANCH  14  15
ATOM     15  C   UNL     1       5.043   2.050  11.120  0.00  0.00    +0.000 C 
BRANCH  15  16
ATOM     16  C   UNL     1       6.371   1.299  11.004  0.00  0.00    +0.000 C 
BRANCH  16  17
ATOM     17  N   UNL     1       6.234  -0.075  11.476  0.00  0.00    +0.000 NA
ATOM     18  H   UNL     1       6.268  -0.714  10.679  0.00  0.00    +0.000 HD
ATOM     19  H   UNL     1       5.319  -0.205  11.902  0.00  0.00    +0.000 HD
ENDBRANCH  16  17
ENDBRANCH  15  16
ENDBRANCH  14  15
ENDBRANCH  12  14
ENDBRANCH   1  12
BRANCH   4  20
ATOM     20  C   UNL     1       4.372   4.731  18.298  0.00  0.00    +0.000 C 
BRANCH  20  21
ATOM     21  C   UNL     1       3.167   4.218  19.061  0.00  0.00    +0.000 A 
ATOM     22  C   UNL     1       2.961   2.824  19.118  0.00  0.00    +0.000 A 
ATOM     23  C   UNL     1       1.885   2.280  19.820  0.00  0.00    +0.000 A 
ATOM     24  C   UNL     1       0.997   3.119  20.487  0.00  0.00    +0.000 A 
ATOM     25  C   UNL     1       1.198   4.498  20.462  0.00  0.00    +0.000 A 
ATOM     26  C   UNL     1       2.280   5.047  19.760  0.00  0.00    +0.000 A 
ATOM     27 CL   UNL     1       2.463   6.763  19.817  0.00  0.00    +0.000 Cl
ENDBRANCH  20  21
ENDBRANCH   4  20
TORSDOF 8
ENDMDL
MODEL 3
REMARK VINA RESULT:      -6.9      0.896      1.108
REMARK  Name = 
REMARK  8 active torsions:
REMARK  status: ('A' for Active; 'I' for Inactive)
REMARK    1  A    between atoms: N_1  and  C_2
REMARK    2  A    between atoms: C_2  and  C_3
REMARK    3  A    between atoms: C_3  and  C_4
REMARK    4  A    between atoms: C_4  and  N_5
REMARK    5  A    between atoms: N_5  and  C_6
REMARK    6  A    between atoms: N_9  and  C_10
REMARK    7  A    between atoms: C_10  and  C_11
REMARK    8  A    between atoms: C_20  and  N_21
REMARK                            x       y       z     vdW  Elec       q    Type
REMARK                         _______ _______ _______ _____ _____    ______ ____
ROOT
ATOM      1  C   UNL     1       4.039   5.045  18.778  0.00  0.00    +0.000 A 
ATOM      2  N   UNL     1       3.511   6.288  18.902  0.00  0.00    +0.000 NA
ATOM      3  C   UNL     1       2.454   6.485  19.702  0.00  0.00    +0.000 A 
ATOM      4  N   UNL     1       1.934   7.762  19.755  0.00  0.00    +0.000 N 
ATOM      5  N   UNL     1       1.878   5.504  20.408  0.00  0.00    +0.000 NA
ATOM      6  C   UNL     1       2.397   4.271  20.284  0.00  0.00    +0.000 A 
ATOM      7  C   UNL     1       3.471   3.984  19.470  0.00  0.00    +0.000 A 
ATOM      8  H   UNL     1       2.623   8.407  19.382  0.00  0.00    +0.000 HD
ENDROOT
BRANCH   7   9
ATOM      9  N   UNL     1       3.994   2.632  19.476  0.00  0.00    +0.000 N 
ATOM     10  O   UNL     1       3.360   1.751  18.878  0.00  0.00    +0.000 OA
ATOM     11  O   UNL     1       5.077   2.437  20.046  0.00  0.00    +0.000 OA
ENDBRANCH   7   9
BRANCH   1  12
ATOM     12  N   UNL     1       5.091   4.888  17.856  0.00  0.00    +0.000 N 
ATOM     13  H   UNL     1       5.888   4.407  18.285  0.00  0.00    +0.000 HD
BRANCH  12  14
ATOM     14  C   UNL     1       5.511   6.122  17.182  0.00  0.00    +0.000 C 
BRANCH  14  15
ATOM     15  C   UNL     1       7.031   6.288  17.281  0.00  0.00    +0.000 C 
BRANCH  15  16
ATOM     16  C   UNL     1       7.619   5.328  18.318  0.00  0.00    +0.000 C 
BRANCH  16  17
ATOM     17  N   UNL     1       8.136   4.124  17.676  0.00  0.00    +0.000 NA
ATOM     18  H   UNL     1       8.582   4.374  16.791  0.00  0.00    +0.000 HD
ATOM     19  H   UNL     1       7.368   3.501  17.438  0.00  0.00    +0.000 HD
ENDBRANCH  16  17
ENDBRANCH  15  16
ENDBRANCH  14  15
ENDBRANCH  12  14
ENDBRANCH   1  12
BRANCH   4  20
ATOM     20  C   UNL     1       1.334   8.146  21.021  0.00  0.00    +0.000 C 
BRANCH  20  21
ATOM     21  C   UNL     1       0.528   9.418  20.848  0.00  0.00    +0.000 A 
ATOM     22  C   UNL     1       0.359   9.925  19.543  0.00  0.00    +0.000 A 
ATOM     23  C   UNL     1      -0.388  11.080  19.307  0.00  0.00    +0.000 A 
ATOM     24  C   UNL     1      -0.988  11.746  20.370  0.00  0.00    +0.000 A 
ATOM     25  C   UNL     1      -0.853  11.247  21.664  0.00  0.00    +0.000 A 
ATOM     26  C   UNL     1      -0.105  10.086  21.904  0.00  0.00    +0.000 A 
ATOM     27 CL   UNL     1      -0.023   9.528  23.536  0.00  0.00    +0.000 Cl
ENDBRANCH  20  21
ENDBRANCH   4  20
TORSDOF 8
ENDMDL
MODEL 4
REMARK VINA RESULT:      -6.9      0.863      1.162
REMARK  Name = 
REMARK  8 active torsions:
REMARK  status: ('A' for Active; 'I' for Inactive)
REMARK    1  A    between atoms: N_1  and  C_2
REMARK    2  A    between atoms: C_2  and  C_3
REMARK    3  A    between atoms: C_3  and  C_4
REMARK    4  A    between atoms: C_4  and  N_5
REMARK    5  A    between atoms: N_5  and  C_6
REMARK    6  A    between atoms: N_9  and  C_10
REMARK    7  A    between atoms: C_10  and  C_11
REMARK    8  A    between atoms: C_20  and  N_21
REMARK                            x       y       z     vdW  Elec       q    Type
REMARK                         _______ _______ _______ _____ _____    ______ ____
ROOT
ATOM      1  C   UNL     1       4.444   4.764  19.246  0.00  0.00    +0.000 A 
ATOM      2  N   UNL     1       3.953   6.023  19.362  0.00  0.00    +0.000 NA
ATOM      3  C   UNL     1       2.719   6.213  19.850  0.00  0.00    +0.000 A 
ATOM      4  N   UNL     1       2.257   7.513  19.905  0.00  0.00    +0.000 N 
ATOM      5  N   UNL     1       1.926   5.210  20.245  0.00  0.00    +0.000 NA
ATOM      6  C   UNL     1       2.409   3.961  20.127  0.00  0.00    +0.000 A 
ATOM      7  C   UNL     1       3.659   3.682  19.620  0.00  0.00    +0.000 A 
ATOM      8  H   UNL     1       3.050   8.141  19.819  0.00  0.00    +0.000 HD
ENDROOT
BRANCH   7   9
ATOM      9  N   UNL     1       4.104   2.302  19.614  0.00  0.00    +0.000 N 
ATOM     10  O   UNL     1       5.010   1.971  20.392  0.00  0.00    +0.000 OA
ATOM     11  O   UNL     1       3.522   1.513  18.856  0.00  0.00    +0.000 OA
ENDBRANCH   7   9
BRANCH   1  12
ATOM     12  N   UNL     1       5.710   4.626  18.645  0.00  0.00    +0.000 N 
ATOM     13  H   UNL     1       5.990   3.642  18.601  0.00  0.00    +0.000 HD
BRANCH  12  14
ATOM     14  C   UNL     1       6.766   5.459  19.232  0.00  0.00    +0.000 C 
BRANCH  14  15
ATOM     15  C   UNL     1       7.432   6.310  18.146  0.00  0.00    +0.000 C 
BRANCH  15  16
ATOM     16  C   UNL     1       7.014   5.842  16.751  0.00  0.00    +0.000 C 
BRANCH  16  17
ATOM     17  N   UNL     1       5.941   6.677  16.222  0.00  0.00    +0.000 NA
ATOM     18  H   UNL     1       5.069   6.465  16.712  0.00  0.00    +0.000 HD
ATOM     19  H   UNL     1       5.775   6.451  15.244  0.00  0.00    +0.000 HD
ENDBRANCH  16  17
ENDBRANCH  15  16
ENDBRANCH  14  15
ENDBRANCH  12  14
ENDBRANCH   1  12
BRANCH   4  20
ATOM     20  C   UNL     1       1.334   7.808  20.987  0.00  0.00    +0.000 C 
BRANCH  20  21
ATOM     21  C   UNL     1       0.668   9.148  20.748  0.00  0.00    +0.000 A 
ATOM     22  C   UNL     1       0.592   9.626  19.424  0.00  0.00    +0.000 A 
ATOM     23  C   UNL     1      -0.026  10.841  19.127  0.00  0.00    +0.000 A 
ATOM     24  C   UNL     1      -0.589  11.599  20.148  0.00  0.00    +0.000 A 
ATOM     25  C   UNL     1      -0.547  11.132  21.461  0.00  0.00    +0.000 A 
ATOM     26  C   UNL     1       0.071   9.910  21.761  0.00  0.00    +0.000 A 
ATOM     27 CL   UNL     1       0.044   9.401  23.411  0.00  0.00    +0.000 Cl
ENDBRANCH  20  21
ENDBRANCH   4  20
TORSDOF 8
ENDMDL
MODEL 5
REMARK VINA RESULT:      -6.9      2.103      2.672
REMARK  Name = 
REMARK  8 active torsions:
REMARK  status: ('A' for Active; 'I' for Inactive)
REMARK    1  A    between atoms: N_1  and  C_2
REMARK    2  A    between atoms: C_2  and  C_3
REMARK    3  A    between atoms: C_3  and  C_4
REMARK    4  A    between atoms: C_4  and  N_5
REMARK    5  A    between atoms: N_5  and  C_6
REMARK    6  A    between atoms: N_9  and  C_10
REMARK    7  A    between atoms: C_10  and  C_11
REMARK    8  A    between atoms: C_20  and  N_21
REMARK                            x       y       z     vdW  Elec       q    Type
REMARK                         _______ _______ _______ _____ _____    ______ ____
ROOT
ATOM      1  C   UNL     1       4.273   6.264  17.725  0.00  0.00    +0.000 A 
ATOM      2  N   UNL     1       3.497   7.348  17.479  0.00  0.00    +0.000 NA
ATOM      3  C   UNL     1       2.539   7.692  18.352  0.00  0.00    +0.000 A 
ATOM      4  N   UNL     1       1.753   8.780  18.027  0.00  0.00    +0.000 N 
ATOM      5  N   UNL     1       2.302   7.016  19.482  0.00  0.00    +0.000 NA
ATOM      6  C   UNL     1       3.068   5.939  19.726  0.00  0.00    +0.000 A 
ATOM      7  C   UNL     1       4.059   5.510  18.872  0.00  0.00    +0.000 A 
ATOM      8  H   UNL     1       2.221   9.310  17.300  0.00  0.00    +0.000 HD
ENDROOT
BRANCH   7   9
ATOM      9  N   UNL     1       4.874   4.382  19.277  0.00  0.00    +0.000 N 
ATOM     10  O   UNL     1       4.314   3.297  19.491  0.00  0.00    +0.000 OA
ATOM     11  O   UNL     1       6.099   4.551  19.346  0.00  0.00    +0.000 OA
ENDBRANCH   7   9
BRANCH   1  12
ATOM     12  N   UNL     1       5.200   5.904  16.729  0.00  0.00    +0.000 N 
ATOM     13  H   UNL     1       5.437   6.709  16.140  0.00  0.00    +0.000 HD
BRANCH  12  14
ATOM     14  C   UNL     1       4.817   4.742  15.918  0.00  0.00    +0.000 C 
BRANCH  14  15
ATOM     15  C   UNL     1       6.060   3.938  15.526  0.00  0.00    +0.000 C 
BRANCH  15  16
ATOM     16  C   UNL     1       7.339   4.700  15.882  0.00  0.00    +0.000 C 
BRANCH  16  17
ATOM     17  N   UNL     1       7.900   4.215  17.139  0.00  0.00    +0.000 NA
ATOM     18  H   UNL     1       8.789   3.744  16.956  0.00  0.00    +0.000 HD
ATOM     19  H   UNL     1       7.287   3.510  17.542  0.00  0.00    +0.000 HD
ENDBRANCH  16  17
ENDBRANCH  15  16
ENDBRANCH  14  15
ENDBRANCH  12  14
ENDBRANCH   1  12
BRANCH   4  20
ATOM     20  C   UNL     1       1.256   9.555  19.150  0.00  0.00    +0.000 C 
BRANCH  20  21
ATOM     21  C   UNL     1      -0.080  10.178  18.799  0.00  0.00    +0.000 A 
ATOM     22  C   UNL     1      -0.734   9.733  17.632  0.00  0.00    +0.000 A 
ATOM     23  C   UNL     1      -1.976  10.247  17.258  0.00  0.00    +0.000 A 
ATOM     24  C   UNL     1      -2.594  11.210  18.049  0.00  0.00    +0.000 A 
ATOM     25  C   UNL     1      -1.975  11.645  19.219  0.00  0.00    +0.000 A 
ATOM     26  C   UNL     1      -0.728  11.129  19.599  0.00  0.00    +0.000 A 
ATOM     27 CL   UNL     1      -0.058  11.705  21.082  0.00  0.00    +0.000 Cl
ENDBRANCH  20  21
ENDBRANCH   4  20
TORSDOF 8
ENDMDL
MODEL 6
REMARK VINA RESULT:      -6.9      0.852      1.072
REMARK  Name = 
REMARK  8 active torsions:
REMARK  status: ('A' for Active; 'I' for Inactive)
REMARK    1  A    between atoms: N_1  and  C_2
REMARK    2  A    between atoms: C_2  and  C_3
REMARK    3  A    between atoms: C_3  and  C_4
REMARK    4  A    between atoms: C_4  and  N_5
REMARK    5  A    between atoms: N_5  and  C_6
REMARK    6  A    between atoms: N_9  and  C_10
REMARK    7  A    between atoms: C_10  and  C_11
REMARK    8  A    between atoms: C_20  and  N_21
REMARK                            x       y       z     vdW  Elec       q    Type
REMARK                         _______ _______ _______ _____ _____    ______ ____
ROOT
ATOM      1  C   UNL     1       4.617   4.467  19.270  0.00  0.00    +0.000 A 
ATOM      2  N   UNL     1       4.171   5.745  19.361  0.00  0.00    +0.000 NA
ATOM      3  C   UNL     1       2.916   5.984  19.772  0.00  0.00    +0.000 A 
ATOM      4  N   UNL     1       2.505   7.301  19.804  0.00  0.00    +0.000 N 
ATOM      5  N   UNL     1       2.061   5.012  20.111  0.00  0.00    +0.000 NA
ATOM      6  C   UNL     1       2.500   3.746  20.018  0.00  0.00    +0.000 A 
ATOM      7  C   UNL     1       3.767   3.417  19.588  0.00  0.00    +0.000 A 
ATOM      8  H   UNL     1       3.326   7.897  19.771  0.00  0.00    +0.000 HD
ENDROOT
BRANCH   7   9
ATOM      9  N   UNL     1       4.156   2.021  19.603  0.00  0.00    +0.000 N 
ATOM     10  O   UNL     1       3.631   1.253  18.784  0.00  0.00    +0.000 OA
ATOM     11  O   UNL     1       5.030   1.675  20.411  0.00  0.00    +0.000 OA
ENDBRANCH   7   9
BRANCH   1  12
ATOM     12  N   UNL     1       5.911   4.280  18.749  0.00  0.00    +0.000 N 
ATOM     13  H   UNL     1       6.590   4.882  19.226  0.00  0.00    +0.000 HD
BRANCH  12  14
ATOM     14  C   UNL     1       6.014   4.408  17.290  0.00  0.00    +0.000 C 
BRANCH  14  15
ATOM     15  C   UNL     1       7.270   5.202  16.917  0.00  0.00    +0.000 C 
BRANCH  15  16
ATOM     16  C   UNL     1       7.457   6.399  17.851  0.00  0.00    +0.000 C 
BRANCH  16  17
ATOM     17  N   UNL     1       7.444   7.651  17.100  0.00  0.00    +0.000 NA
ATOM     18  H   UNL     1       6.478   7.958  16.967  0.00  0.00    +0.000 HD
ATOM     19  H   UNL     1       7.821   7.499  16.168  0.00  0.00    +0.000 HD
ENDBRANCH  16  17
ENDBRANCH  15  16
ENDBRANCH  14  15
ENDBRANCH  12  14
ENDBRANCH   1  12
BRANCH   4  20
ATOM     20  C   UNL     1       1.529   7.631  20.827  0.00  0.00    +0.000 C 
BRANCH  20  21
ATOM     21  C   UNL     1       0.911   8.983  20.537  0.00  0.00    +0.000 A 
ATOM     22  C   UNL     1       0.969   9.470  19.215  0.00  0.00    +0.000 A 
ATOM     23  C   UNL     1       0.402  10.698  18.871  0.00  0.00    +0.000 A 
ATOM     24  C   UNL     1      -0.242  11.460  19.840  0.00  0.00    +0.000 A 
ATOM     25  C   UNL     1      -0.331  10.985  21.147  0.00  0.00    +0.000 A 
ATOM     26  C   UNL     1       0.235   9.751  21.495  0.00  0.00    +0.000 A 
ATOM     27 CL   UNL     1       0.043   9.233  23.131  0.00  0.00    +0.000 Cl
ENDBRANCH  20  21
ENDBRANCH   4  20
TORSDOF 8
ENDMDL
MODEL 7
REMARK VINA RESULT:      -6.8      1.325      1.547
REMARK  Name = 
REMARK  8 active torsions:
REMARK  status: ('A' for Active; 'I' for Inactive)
REMARK    1  A    between atoms: N_1  and  C_2
REMARK    2  A    between atoms: C_2  and  C_3
REMARK    3  A    between atoms: C_3  and  C_4
REMARK    4  A    between atoms: C_4  and  N_5
REMARK    5  A    between atoms: N_5  and  C_6
REMARK    6  A    between atoms: N_9  and  C_10
REMARK    7  A    between atoms: C_10  and  C_11
REMARK    8  A    between atoms: C_20  and  N_21
REMARK                            x       y       z     vdW  Elec       q    Type
REMARK                         _______ _______ _______ _____ _____    ______ ____
ROOT
ATOM      1  C   UNL     1       4.198   4.737  18.927  0.00  0.00    +0.000 A 
ATOM      2  N   UNL     1       3.714   6.001  19.014  0.00  0.00    +0.000 NA
ATOM      3  C   UNL     1       2.599   6.239  19.720  0.00  0.00    +0.000 A 
ATOM      4  N   UNL     1       2.130   7.537  19.738  0.00  0.00    +0.000 N 
ATOM      5  N   UNL     1       1.922   5.280  20.363  0.00  0.00    +0.000 NA
ATOM      6  C   UNL     1       2.398   4.027  20.274  0.00  0.00    +0.000 A 
ATOM      7  C   UNL     1       3.526   3.698  19.556  0.00  0.00    +0.000 A 
ATOM      8  H   UNL     1       2.877   8.154  19.433  0.00  0.00    +0.000 HD
ENDROOT
BRANCH   7   9
ATOM      9  N   UNL     1       3.990   2.325  19.596  0.00  0.00    +0.000 N 
ATOM     10  O   UNL     1       3.452   1.498  18.845  0.00  0.00    +0.000 OA
ATOM     11  O   UNL     1       4.934   2.059  20.353  0.00  0.00    +0.000 OA
ENDBRANCH   7   9
BRANCH   1  12
ATOM     12  N   UNL     1       5.320   4.540  18.099  0.00  0.00    +0.000 N 
ATOM     13  H   UNL     1       5.882   5.395  18.033  0.00  0.00    +0.000 HD
BRANCH  12  14
ATOM     14  C   UNL     1       5.020   3.992  16.772  0.00  0.00    +0.000 C 
BRANCH  14  15
ATOM     15  C   UNL     1       5.256   5.056  15.695  0.00  0.00    +0.000 C 
BRANCH  15  16
ATOM     16  C   UNL     1       6.720   5.066  15.248  0.00  0.00    +0.000 C 
BRANCH  16  17
ATOM     17  N   UNL     1       7.524   5.912  16.124  0.00  0.00    +0.000 NA
ATOM     18  H   UNL     1       8.306   6.304  15.594  0.00  0.00    +0.000 HD
ATOM     19  H   UNL     1       7.940   5.350  16.862  0.00  0.00    +0.000 HD
ENDBRANCH  16  17
ENDBRANCH  15  16
ENDBRANCH  14  15
ENDBRANCH  12  14
ENDBRANCH   1  12
BRANCH   4  20
ATOM     20  C   UNL     1       1.437   7.940  20.949  0.00  0.00    +0.000 C 
BRANCH  20  21
ATOM     21  C   UNL     1       0.703   9.244  20.716  0.00  0.00    +0.000 A 
ATOM     22  C   UNL     1       0.606   9.726  19.394  0.00  0.00    +0.000 A 
ATOM     23  C   UNL     1      -0.074  10.909  19.103  0.00  0.00    +0.000 A 
ATOM     24  C   UNL     1      -0.678  11.631  20.127  0.00  0.00    +0.000 A 
ATOM     25  C   UNL     1      -0.615  11.159  21.437  0.00  0.00    +0.000 A 
ATOM     26  C   UNL     1       0.065   9.969  21.732  0.00  0.00    +0.000 A 
ATOM     27 CL   UNL     1       0.060   9.450  23.379  0.00  0.00    +0.000 Cl
ENDBRANCH  20  21
ENDBRANCH   4  20
TORSDOF 8
ENDMDL
MODEL 8
REMARK VINA RESULT:      -6.8      2.485      4.021
REMARK  Name = 
REMARK  8 active torsions:
REMARK  status: ('A' for Active; 'I' for Inactive)
REMARK    1  A    between atoms: N_1  and  C_2
REMARK    2  A    between atoms: C_2  and  C_3
REMARK    3  A    between atoms: C_3  and  C_4
REMARK    4  A    between atoms: C_4  and  N_5
REMARK    5  A    between atoms: N_5  and  C_6
REMARK    6  A    between atoms: N_9  and  C_10
REMARK    7  A    between atoms: C_10  and  C_11
REMARK    8  A    between atoms: C_20  and  N_21
REMARK                            x       y       z     vdW  Elec       q    Type
REMARK                         _______ _______ _______ _____ _____    ______ ____
ROOT
ATOM      1  C   UNL     1       2.868   5.651  19.789  0.00  0.00    +0.000 A 
ATOM      2  N   UNL     1       2.145   6.794  19.895  0.00  0.00    +0.000 NA
ATOM      3  C   UNL     1       2.292   7.761  18.978  0.00  0.00    +0.000 A 
ATOM      4  N   UNL     1       1.563   8.918  19.162  0.00  0.00    +0.000 N 
ATOM      5  N   UNL     1       3.123   7.659  17.934  0.00  0.00    +0.000 NA
ATOM      6  C   UNL     1       3.842   6.529  17.829  0.00  0.00    +0.000 A 
ATOM      7  C   UNL     1       3.763   5.498  18.739  0.00  0.00    +0.000 A 
ATOM      8  H   UNL     1       0.819   8.729  19.826  0.00  0.00    +0.000 HD
ENDROOT
BRANCH   7   9
ATOM      9  N   UNL     1       4.527   4.294  18.480  0.00  0.00    +0.000 N 
ATOM     10  O   UNL     1       4.328   3.684  17.420  0.00  0.00    +0.000 OA
ATOM     11  O   UNL     1       5.376   3.960  19.319  0.00  0.00    +0.000 OA
ENDBRANCH   7   9
BRANCH   1  12
ATOM     12  N   UNL     1       2.735   4.714  20.831  0.00  0.00    +0.000 N 
ATOM     13  H   UNL     1       3.524   4.060  20.840  0.00  0.00    +0.000 HD
BRANCH  12  14
ATOM     14  C   UNL     1       1.450   4.004  20.864  0.00  0.00    +0.000 C 
BRANCH  14  15
ATOM     15  C   UNL     1       1.627   2.569  20.359  0.00  0.00    +0.000 C 
BRANCH  15  16
ATOM     16  C   UNL     1       1.117   2.428  18.923  0.00  0.00    +0.000 C 
BRANCH  16  17
ATOM     17  N   UNL     1       2.107   1.762  18.083  0.00  0.00    +0.000 NA
ATOM     18  H   UNL     1       2.213   2.277  17.206  0.00  0.00    +0.000 HD
ATOM     19  H   UNL     1       1.776   0.835  17.826  0.00  0.00    +0.000 HD
ENDBRANCH  16  17
ENDBRANCH  15  16
ENDBRANCH  14  15
ENDBRANCH  12  14
ENDBRANCH   1  12
BRANCH   4  20
ATOM     20  C   UNL     1       1.162   9.610  17.949  0.00  0.00    +0.000 C 
BRANCH  20  21
ATOM     21  C   UNL     1      -0.161  10.315  18.167  0.00  0.00    +0.000 A 
ATOM     22  C   UNL     1      -1.310   9.776  17.552  0.00  0.00    +0.000 A 
ATOM     23  C   UNL     1      -2.565  10.360  17.726  0.00  0.00    +0.000 A 
ATOM     24  C   UNL     1      -2.699  11.491  18.525  0.00  0.00    +0.000 A 
ATOM     25  C   UNL     1      -1.579  12.024  19.162  0.00  0.00    +0.000 A 
ATOM     26  C   UNL     1      -0.317  11.437  18.991  0.00  0.00    +0.000 A 
ATOM     27 CL   UNL     1       1.002  12.151  19.847  0.00  0.00    +0.000 Cl
ENDBRANCH  20  21
ENDBRANCH   4  20
TORSDOF 8
ENDMDL
MODEL 9
REMARK VINA RESULT:      -6.8      5.239      7.385
REMARK  Name = 
REMARK  8 active torsions:
REMARK  status: ('A' for Active; 'I' for Inactive)
REMARK    1  A    between atoms: N_1  and  C_2
REMARK    2  A    between atoms: C_2  and  C_3
REMARK    3  A    between atoms: C_3  and  C_4
REMARK    4  A    between atoms: C_4  and  N_5
REMARK    5  A    between atoms: N_5  and  C_6
REMARK    6  A    between atoms: N_9  and  C_10
REMARK    7  A    between atoms: C_10  and  C_11
REMARK    8  A    between atoms: C_20  and  N_21
REMARK                            x       y       z     vdW  Elec       q    Type
REMARK                         _______ _______ _______ _____ _____    ______ ____
ROOT
ATOM      1  C   UNL     1       6.217   3.913  13.646  0.00  0.00    +0.000 A 
ATOM      2  N   UNL     1       5.330   3.539  14.603  0.00  0.00    +0.000 NA
ATOM      3  C   UNL     1       5.305   4.188  15.776  0.00  0.00    +0.000 A 
ATOM      4  N   UNL     1       4.412   3.736  16.726  0.00  0.00    +0.000 N 
ATOM      5  N   UNL     1       6.117   5.212  16.063  0.00  0.00    +0.000 NA
ATOM      6  C   UNL     1       6.999   5.581  15.118  0.00  0.00    +0.000 A 
ATOM      7  C   UNL     1       7.099   4.955  13.896  0.00  0.00    +0.000 A 
ATOM      8  H   UNL     1       3.721   3.151  16.267  0.00  0.00    +0.000 HD
ENDROOT
BRANCH   7   9
ATOM      9  N   UNL     1       8.033   5.490  12.925  0.00  0.00    +0.000 N 
ATOM     10  O   UNL     1       9.093   5.986  13.336  0.00  0.00    +0.000 OA
ATOM     11  O   UNL     1       7.741   5.384  11.726  0.00  0.00    +0.000 OA
ENDBRANCH   7   9
BRANCH   1  12
ATOM     12  N   UNL     1       6.253   3.135  12.473  0.00  0.00    +0.000 N 
ATOM     13  H   UNL     1       6.797   3.602  11.740  0.00  0.00    +0.000 HD
BRANCH  12  14
ATOM     14  C   UNL     1       4.941   2.705  11.976  0.00  0.00    +0.000 C 
BRANCH  14  15
ATOM     15  C   UNL     1       4.292   3.827  11.159  0.00  0.00    +0.000 C 
BRANCH  15  16
ATOM     16  C   UNL     1       3.176   3.279  10.267  0.00  0.00    +0.000 C 
BRANCH  16  17
ATOM     17  N   UNL     1       2.900   4.189   9.161  0.00  0.00    +0.000 NA
ATOM     18  H   UNL     1       2.636   3.650   8.333  0.00  0.00    +0.000 HD
ATOM     19  H   UNL     1       3.746   4.695   8.909  0.00  0.00    +0.000 HD
ENDBRANCH  16  17
ENDBRANCH  15  16
ENDBRANCH  14  15
ENDBRANCH  12  14
ENDBRANCH   1  12
BRANCH   4  20
ATOM     20  C   UNL     1       3.881   4.747  17.624  0.00  0.00    +0.000 C 
BRANCH  20  21
ATOM     21  C   UNL     1       2.758   4.164  18.456  0.00  0.00    +0.000 A 
ATOM     22  C   UNL     1       2.399   2.818  18.237  0.00  0.00    +0.000 A 
ATOM     23  C   UNL     1       1.388   2.208  18.982  0.00  0.00    +0.000 A 
ATOM     24  C   UNL     1       0.721   2.930  19.966  0.00  0.00    +0.000 A 
ATOM     25  C   UNL     1       1.078   4.255  20.214  0.00  0.00    +0.000 A 
ATOM     26  C   UNL     1       2.095   4.868  19.470  0.00  0.00    +0.000 A 
ATOM     27 CL   UNL     1       2.487   6.501  19.874  0.00  0.00    +0.000 Cl
ENDBRANCH  20  21
ENDBRANCH   4  20
TORSDOF 8
ENDMDL
