MODEL 1
REMARK VINA RESULT:      -8.6      0.000      0.000
REMARK  Name = 
REMARK  7 active torsions:
REMARK  status: ('A' for Active; 'I' for Inactive)
REMARK    1  A    between atoms: C_1  and  C_2
REMARK    2  A    between atoms: C_5  and  C_6
REMARK    3  A    between atoms: C_6  and  N_7
REMARK    4  A    between atoms: N_7  and  S_8
REMARK    5  A    between atoms: S_8  and  C_11
REMARK    6  A    between atoms: C_14  and  C_15
REMARK    7  A    between atoms: C_15  and  N_16
REMARK                            x       y       z     vdW  Elec       q    Type
REMARK                         _______ _______ _______ _____ _____    ______ ____
ROOT
ATOM      1  C   UNL     1       1.400   9.258  19.416  0.00  0.00    +0.000 A 
ATOM      2  C   UNL     1       1.213   8.533  20.595  0.00  0.00    +0.000 A 
ATOM      3  C   UNL     1       1.742   7.244  20.707  0.00  0.00    +0.000 A 
ATOM      4  C   UNL     1       2.462   6.670  19.648  0.00  0.00    +0.000 A 
ATOM      5  C   UNL     1       2.595   7.389  18.450  0.00  0.00    +0.000 A 
ATOM      6  C   UNL     1       2.064   8.679  18.331  0.00  0.00    +0.000 A 
ENDROOT
BRANCH   1   7
ATOM      7  S   UNL     1       0.701  10.886  19.256  0.00  0.00    +0.000 S 
ATOM      8  O   UNL     1       1.765  11.789  18.883  0.00  0.00    +0.000 OA
ATOM      9  O   UNL     1      -0.137  11.137  20.406  0.00  0.00    +0.000 OA
BRANCH   7  10
ATOM     10  N   UNL     1      -0.282  10.739  17.900  0.00  0.00    +0.000 NA
ATOM     11  H   UNL     1      -0.441  11.643  17.451  0.00  0.00    +0.000 HD
BRANCH  10  12
ATOM     12  C   UNL     1      -1.461   9.884  18.035  0.00  0.00    +0.000 C 
BRANCH  12  17
ATOM     13  C   UNL     1      -5.581  12.222  17.075  0.00  0.00    +0.000 C 
ATOM     14  C   UNL     1      -4.401  11.426  16.683  0.00  0.00    +0.000 A 
ATOM     15  C   UNL     1      -3.980  10.878  15.491  0.00  0.00    +0.000 A 
ATOM     16  C   UNL     1      -2.765  10.204  15.767  0.00  0.00    +0.000 A 
ATOM     17  C   UNL     1      -2.521  10.374  17.115  0.00  0.00    +0.000 A 
ATOM     18  O   UNL     1      -3.511  11.132  17.672  0.00  0.00    +0.000 OA
ENDBRANCH  12  17
ENDBRANCH  10  12
ENDBRANCH   7  10
ENDBRANCH   1   7
BRANCH   4  19
ATOM     19  C   UNL     1       3.075   5.292  19.796  0.00  0.00    +0.000 C 
BRANCH  19  20
ATOM     20  N   UNL     1       3.974   4.971  18.709  0.00  0.00    +0.000 N 
ATOM     21  C   UNL     1       3.581   4.429  17.518  0.00  0.00    +0.000 C 
ATOM     22  O   UNL     1       2.472   4.082  17.157  0.00  0.00    +0.000 OA
ATOM     23  C   UNL     1       4.776   4.318  16.693  0.00  0.00    +0.000 A 
ATOM     24  C   UNL     1       4.968   3.911  15.389  0.00  0.00    +0.000 A 
ATOM     25  C   UNL     1       6.268   4.010  14.888  0.00  0.00    +0.000 A 
ATOM     26  C   UNL     1       7.289   4.494  15.719  0.00  0.00    +0.000 A 
ATOM     27  N   UNL     1       7.109   4.876  17.007  0.00  0.00    +0.000 NA
ATOM     28  C   UNL     1       5.839   4.771  17.435  0.00  0.00    +0.000 A 
ATOM     29  C   UNL     1       5.330   5.165  18.758  0.00  0.00    +0.000 C 
ATOM     30  O   UNL     1       5.994   5.562  19.698  0.00  0.00    +0.000 OA
ENDBRANCH  19  20
ENDBRANCH   4  19
TORSDOF 6
ENDMDL
MODEL 2
REMARK VINA RESULT:      -8.6      0.679      1.089
REMARK  Name = 
REMARK  7 active torsions:
REMARK  status: ('A' for Active; 'I' for Inactive)
REMARK    1  A    between atoms: C_1  and  C_2
REMARK    2  A    between atoms: C_5  and  C_6
REMARK    3  A    between atoms: C_6  and  N_7
REMARK    4  A    between atoms: N_7  and  S_8
REMARK    5  A    between atoms: S_8  and  C_11
REMARK    6  A    between atoms: C_14  and  C_15
REMARK    7  A    between atoms: C_15  and  N_16
REMARK                            x       y       z     vdW  Elec       q    Type
REMARK                         _______ _______ _______ _____ _____    ______ ____
ROOT
ATOM      1  C   UNL     1       1.398   9.184  19.427  0.00  0.00    +0.000 A 
ATOM      2  C   UNL     1       1.243   8.440  20.598  0.00  0.00    +0.000 A 
ATOM      3  C   UNL     1       1.806   7.163  20.687  0.00  0.00    +0.000 A 
ATOM      4  C   UNL     1       2.527   6.622  19.611  0.00  0.00    +0.000 A 
ATOM      5  C   UNL     1       2.627   7.359  18.421  0.00  0.00    +0.000 A 
ATOM      6  C   UNL     1       2.062   8.637  18.326  0.00  0.00    +0.000 A 
ENDROOT
BRANCH   1   7
ATOM      7  S   UNL     1       0.655  10.796  19.297  0.00  0.00    +0.000 S 
ATOM      8  O   UNL     1       1.708  11.747  19.028  0.00  0.00    +0.000 OA
ATOM      9  O   UNL     1      -0.256  10.968  20.405  0.00  0.00    +0.000 OA
BRANCH   7  10
ATOM     10  N   UNL     1      -0.242  10.682  17.880  0.00  0.00    +0.000 NA
ATOM     11  H   UNL     1      -0.482  11.604  17.511  0.00  0.00    +0.000 HD
BRANCH  10  12
ATOM     12  C   UNL     1      -1.322   9.695  17.866  0.00  0.00    +0.000 C 
BRANCH  12  17
ATOM     13  C   UNL     1      -3.819  10.021  13.741  0.00  0.00    +0.000 C 
ATOM     14  C   UNL     1      -3.565  10.369  15.153  0.00  0.00    +0.000 A 
ATOM     15  C   UNL     1      -4.165  11.239  16.037  0.00  0.00    +0.000 A 
ATOM     16  C   UNL     1      -3.443  11.135  17.252  0.00  0.00    +0.000 A 
ATOM     17  C   UNL     1      -2.439  10.212  17.033  0.00  0.00    +0.000 A 
ATOM     18  O   UNL     1      -2.522   9.733  15.757  0.00  0.00    +0.000 OA
ENDBRANCH  12  17
ENDBRANCH  10  12
ENDBRANCH   7  10
ENDBRANCH   1   7
BRANCH   4  19
ATOM     19  C   UNL     1       3.177   5.257  19.733  0.00  0.00    +0.000 C 
BRANCH  19  20
ATOM     20  N   UNL     1       4.085   4.982  18.641  0.00  0.00    +0.000 N 
ATOM     21  C   UNL     1       3.712   4.438  17.445  0.00  0.00    +0.000 C 
ATOM     22  O   UNL     1       2.617   4.053  17.082  0.00  0.00    +0.000 OA
ATOM     23  C   UNL     1       4.909   4.382  16.618  0.00  0.00    +0.000 A 
ATOM     24  C   UNL     1       5.114   3.995  15.310  0.00  0.00    +0.000 A 
ATOM     25  C   UNL     1       6.409   4.150  14.809  0.00  0.00    +0.000 A 
ATOM     26  C   UNL     1       7.412   4.664  15.644  0.00  0.00    +0.000 A 
ATOM     27  N   UNL     1       7.220   5.025  16.936  0.00  0.00    +0.000 NA
ATOM     28  C   UNL     1       5.955   4.868  17.364  0.00  0.00    +0.000 A 
ATOM     29  C   UNL     1       5.433   5.227  18.692  0.00  0.00    +0.000 C 
ATOM     30  O   UNL     1       6.083   5.641  19.635  0.00  0.00    +0.000 OA
ENDBRANCH  19  20
ENDBRANCH   4  19
TORSDOF 6
ENDMDL
MODEL 3
REMARK VINA RESULT:      -8.4      0.878      1.545
REMARK  Name = 
REMARK  7 active torsions:
REMARK  status: ('A' for Active; 'I' for Inactive)
REMARK    1  A    between atoms: C_1  and  C_2
REMARK    2  A    between atoms: C_5  and  C_6
REMARK    3  A    between atoms: C_6  and  N_7
REMARK    4  A    between atoms: N_7  and  S_8
REMARK    5  A    between atoms: S_8  and  C_11
REMARK    6  A    between atoms: C_14  and  C_15
REMARK    7  A    between atoms: C_15  and  N_16
REMARK                            x       y       z     vdW  Elec       q    Type
REMARK                         _______ _______ _______ _____ _____    ______ ____
ROOT
ATOM      1  C   UNL     1       1.383   9.152  19.821  0.00  0.00    +0.000 A 
ATOM      2  C   UNL     1       1.983   8.660  18.660  0.00  0.00    +0.000 A 
ATOM      3  C   UNL     1       2.372   7.319  18.596  0.00  0.00    +0.000 A 
ATOM      4  C   UNL     1       2.163   6.460  19.686  0.00  0.00    +0.000 A 
ATOM      5  C   UNL     1       1.608   6.982  20.866  0.00  0.00    +0.000 A 
ATOM      6  C   UNL     1       1.220   8.325  20.936  0.00  0.00    +0.000 A 
ENDROOT
BRANCH   1   7
ATOM      7  S   UNL     1       0.916  10.867  19.919  0.00  0.00    +0.000 S 
ATOM      8  O   UNL     1       1.621  11.576  18.876  0.00  0.00    +0.000 OA
ATOM      9  O   UNL     1       0.992  11.281  21.300  0.00  0.00    +0.000 OA
BRANCH   7  10
ATOM     10  N   UNL     1      -0.699  10.842  19.455  0.00  0.00    +0.000 NA
ATOM     11  H   UNL     1      -0.996   9.905  19.176  0.00  0.00    +0.000 HD
BRANCH  10  12
ATOM     12  C   UNL     1      -1.149  11.932  18.589  0.00  0.00    +0.000 C 
BRANCH  12  17
ATOM     13  C   UNL     1      -3.169  10.135  14.583  0.00  0.00    +0.000 C 
ATOM     14  C   UNL     1      -3.229  10.660  15.961  0.00  0.00    +0.000 A 
ATOM     15  C   UNL     1      -4.264  10.928  16.830  0.00  0.00    +0.000 A 
ATOM     16  C   UNL     1      -3.673  11.442  18.011  0.00  0.00    +0.000 A 
ATOM     17  C   UNL     1      -2.311  11.466  17.788  0.00  0.00    +0.000 A 
ATOM     18  O   UNL     1      -2.037  10.975  16.544  0.00  0.00    +0.000 OA
ENDBRANCH  12  17
ENDBRANCH  10  12
ENDBRANCH   7  10
ENDBRANCH   1   7
BRANCH   4  19
ATOM     19  C   UNL     1       2.541   4.995  19.592  0.00  0.00    +0.000 C 
BRANCH  19  20
ATOM     20  N   UNL     1       3.560   4.753  18.594  0.00  0.00    +0.000 N 
ATOM     21  C   UNL     1       3.330   4.159  17.386  0.00  0.00    +0.000 C 
ATOM     22  O   UNL     1       2.299   3.696  16.937  0.00  0.00    +0.000 OA
ATOM     23  C   UNL     1       4.599   4.161  16.670  0.00  0.00    +0.000 A 
ATOM     24  C   UNL     1       4.946   3.758  15.398  0.00  0.00    +0.000 A 
ATOM     25  C   UNL     1       6.269   3.983  15.010  0.00  0.00    +0.000 A 
ATOM     26  C   UNL     1       7.159   4.579  15.916  0.00  0.00    +0.000 A 
ATOM     27  N   UNL     1       6.828   4.957  17.175  0.00  0.00    +0.000 NA
ATOM     28  C   UNL     1       5.541   4.729  17.493  0.00  0.00    +0.000 A 
ATOM     29  C   UNL     1       4.879   5.085  18.758  0.00  0.00    +0.000 C 
ATOM     30  O   UNL     1       5.414   5.561  19.743  0.00  0.00    +0.000 OA
ENDBRANCH  19  20
ENDBRANCH   4  19
TORSDOF 6
ENDMDL
MODEL 4
REMARK VINA RESULT:      -8.4      0.614      1.087
REMARK  Name = 
REMARK  7 active torsions:
REMARK  status: ('A' for Active; 'I' for Inactive)
REMARK    1  A    between atoms: C_1  and  C_2
REMARK    2  A    between atoms: C_5  and  C_6
REMARK    3  A    between atoms: C_6  and  N_7
REMARK    4  A    between atoms: N_7  and  S_8
REMARK    5  A    between atoms: S_8  and  C_11
REMARK    6  A    between atoms: C_14  and  C_15
REMARK    7  A    between atoms: C_15  and  N_16
REMARK                            x       y       z     vdW  Elec       q    Type
REMARK                         _______ _______ _______ _____ _____    ______ ____
ROOT
ATOM      1  C   UNL     1       1.359   8.945  19.660  0.00  0.00    +0.000 A 
ATOM      2  C   UNL     1       2.012   8.486  18.515  0.00  0.00    +0.000 A 
ATOM      3  C   UNL     1       2.576   7.207  18.506  0.00  0.00    +0.000 A 
ATOM      4  C   UNL     1       2.491   6.378  19.635  0.00  0.00    +0.000 A 
ATOM      5  C   UNL     1       1.879   6.874  20.797  0.00  0.00    +0.000 A 
ATOM      6  C   UNL     1       1.316   8.156  20.812  0.00  0.00    +0.000 A 
ENDROOT
BRANCH   1   7
ATOM      7  S   UNL     1       0.668  10.585  19.687  0.00  0.00    +0.000 S 
ATOM      8  O   UNL     1       1.643  11.485  19.118  0.00  0.00    +0.000 OA
ATOM      9  O   UNL     1       0.096  10.816  20.994  0.00  0.00    +0.000 OA
BRANCH   7  10
ATOM     10  N   UNL     1      -0.582  10.483  18.567  0.00  0.00    +0.000 NA
ATOM     11  H   UNL     1      -0.350   9.846  17.803  0.00  0.00    +0.000 HD
BRANCH  10  12
ATOM     12  C   UNL     1      -1.210  11.744  18.171  0.00  0.00    +0.000 C 
BRANCH  12  17
ATOM     13  C   UNL     1      -6.011  11.464  17.688  0.00  0.00    +0.000 C 
ATOM     14  C   UNL     1      -4.630  11.308  17.190  0.00  0.00    +0.000 A 
ATOM     15  C   UNL     1      -4.095  10.824  16.016  0.00  0.00    +0.000 A 
ATOM     16  C   UNL     1      -2.687  10.918  16.150  0.00  0.00    +0.000 A 
ATOM     17  C   UNL     1      -2.448  11.446  17.403  0.00  0.00    +0.000 A 
ATOM     18  O   UNL     1      -3.633  11.698  18.033  0.00  0.00    +0.000 OA
ENDBRANCH  12  17
ENDBRANCH  10  12
ENDBRANCH   7  10
ENDBRANCH   1   7
BRANCH   4  19
ATOM     19  C   UNL     1       3.061   4.974  19.601  0.00  0.00    +0.000 C 
BRANCH  19  20
ATOM     20  N   UNL     1       4.022   4.796  18.534  0.00  0.00    +0.000 N 
ATOM     21  C   UNL     1       3.725   4.271  17.309  0.00  0.00    +0.000 C 
ATOM     22  O   UNL     1       2.671   3.829  16.894  0.00  0.00    +0.000 OA
ATOM     23  C   UNL     1       4.950   4.322  16.523  0.00  0.00    +0.000 A 
ATOM     24  C   UNL     1       5.224   3.995  15.211  0.00  0.00    +0.000 A 
ATOM     25  C   UNL     1       6.523   4.250  14.762  0.00  0.00    +0.000 A 
ATOM     26  C   UNL     1       7.461   4.798  15.648  0.00  0.00    +0.000 A 
ATOM     27  N   UNL     1       7.202   5.101  16.944  0.00  0.00    +0.000 NA
ATOM     28  C   UNL     1       5.937   4.847  17.321  0.00  0.00    +0.000 A 
ATOM     29  C   UNL     1       5.348   5.126  18.641  0.00  0.00    +0.000 C 
ATOM     30  O   UNL     1       5.937   5.547  19.619  0.00  0.00    +0.000 OA
ENDBRANCH  19  20
ENDBRANCH   4  19
TORSDOF 6
ENDMDL
MODEL 5
REMARK VINA RESULT:      -8.4      1.273      1.516
REMARK  Name = 
REMARK  7 active torsions:
REMARK  status: ('A' for Active; 'I' for Inactive)
REMARK    1  A    between atoms: C_1  and  C_2
REMARK    2  A    between atoms: C_5  and  C_6
REMARK    3  A    between atoms: C_6  and  N_7
REMARK    4  A    between atoms: N_7  and  S_8
REMARK    5  A    between atoms: S_8  and  C_11
REMARK    6  A    between atoms: C_14  and  C_15
REMARK    7  A    between atoms: C_15  and  N_16
REMARK                            x       y       z     vdW  Elec       q    Type
REMARK                         _______ _______ _______ _____ _____    ______ ____
ROOT
ATOM      1  C   UNL     1       1.478   7.801  20.403  0.00  0.00    +0.000 A 
ATOM      2  C   UNL     1       1.228   6.676  21.192  0.00  0.00    +0.000 A 
ATOM      3  C   UNL     1       1.864   5.467  20.896  0.00  0.00    +0.000 A 
ATOM      4  C   UNL     1       2.754   5.371  19.816  0.00  0.00    +0.000 A 
ATOM      5  C   UNL     1       2.954   6.496  18.999  0.00  0.00    +0.000 A 
ATOM      6  C   UNL     1       2.316   7.708  19.289  0.00  0.00    +0.000 A 
ENDROOT
BRANCH   1   7
ATOM      7  S   UNL     1       0.645   9.333  20.755  0.00  0.00    +0.000 S 
ATOM      8  O   UNL     1       1.482  10.094  21.654  0.00  0.00    +0.000 OA
ATOM      9  O   UNL     1      -0.734   9.041  21.071  0.00  0.00    +0.000 OA
BRANCH   7  10
ATOM     10  N   UNL     1       0.698  10.136  19.279  0.00  0.00    +0.000 NA
ATOM     11  H   UNL     1       1.659  10.294  18.971  0.00  0.00    +0.000 HD
BRANCH  10  12
ATOM     12  C   UNL     1      -0.213  11.269  19.117  0.00  0.00    +0.000 C 
BRANCH  12  17
ATOM     13  C   UNL     1      -4.724  11.655  17.423  0.00  0.00    +0.000 C 
ATOM     14  C   UNL     1      -3.384  11.037  17.460  0.00  0.00    +0.000 A 
ATOM     15  C   UNL     1      -2.815   9.966  16.805  0.00  0.00    +0.000 A 
ATOM     16  C   UNL     1      -1.488   9.859  17.290  0.00  0.00    +0.000 A 
ATOM     17  C   UNL     1      -1.329  10.868  18.219  0.00  0.00    +0.000 A 
ATOM     18  O   UNL     1      -2.480  11.596  18.313  0.00  0.00    +0.000 OA
ENDBRANCH  12  17
ENDBRANCH  10  12
ENDBRANCH   7  10
ENDBRANCH   1   7
BRANCH   4  19
ATOM     19  C   UNL     1       3.478   4.070  19.531  0.00  0.00    +0.000 C 
BRANCH  19  20
ATOM     20  N   UNL     1       4.329   4.158  18.365  0.00  0.00    +0.000 N 
ATOM     21  C   UNL     1       3.925   3.865  17.093  0.00  0.00    +0.000 C 
ATOM     22  O   UNL     1       2.850   3.453  16.700  0.00  0.00    +0.000 OA
ATOM     23  C   UNL     1       5.059   4.137  16.220  0.00  0.00    +0.000 A 
ATOM     24  C   UNL     1       5.207   4.087  14.850  0.00  0.00    +0.000 A 
ATOM     25  C   UNL     1       6.441   4.498  14.339  0.00  0.00    +0.000 A 
ATOM     26  C   UNL     1       7.446   4.917  15.224  0.00  0.00    +0.000 A 
ATOM     27  N   UNL     1       7.312   4.947  16.573  0.00  0.00    +0.000 NA
ATOM     28  C   UNL     1       6.103   4.553  17.010  0.00  0.00    +0.000 A 
ATOM     29  C   UNL     1       5.645   4.536  18.408  0.00  0.00    +0.000 C 
ATOM     30  O   UNL     1       6.317   4.792  19.391  0.00  0.00    +0.000 OA
ENDBRANCH  19  20
ENDBRANCH   4  19
TORSDOF 6
ENDMDL
MODEL 6
REMARK VINA RESULT:      -8.4      3.516      8.398
REMARK  Name = 
REMARK  7 active torsions:
REMARK  status: ('A' for Active; 'I' for Inactive)
REMARK    1  A    between atoms: C_1  and  C_2
REMARK    2  A    between atoms: C_5  and  C_6
REMARK    3  A    between atoms: C_6  and  N_7
REMARK    4  A    between atoms: N_7  and  S_8
REMARK    5  A    between atoms: S_8  and  C_11
REMARK    6  A    between atoms: C_14  and  C_15
REMARK    7  A    between atoms: C_15  and  N_16
REMARK                            x       y       z     vdW  Elec       q    Type
REMARK                         _______ _______ _______ _____ _____    ______ ____
ROOT
ATOM      1  C   UNL     1       4.541   6.038  18.458  0.00  0.00    +0.000 A 
ATOM      2  C   UNL     1       3.585   6.114  19.473  0.00  0.00    +0.000 A 
ATOM      3  C   UNL     1       2.488   6.969  19.329  0.00  0.00    +0.000 A 
ATOM      4  C   UNL     1       2.336   7.750  18.173  0.00  0.00    +0.000 A 
ATOM      5  C   UNL     1       3.333   7.704  17.186  0.00  0.00    +0.000 A 
ATOM      6  C   UNL     1       4.435   6.852  17.328  0.00  0.00    +0.000 A 
ENDROOT
BRANCH   1   7
ATOM      7  S   UNL     1       5.955   4.976  18.652  0.00  0.00    +0.000 S 
ATOM      8  O   UNL     1       6.649   5.378  19.854  0.00  0.00    +0.000 OA
ATOM      9  O   UNL     1       6.635   4.886  17.380  0.00  0.00    +0.000 OA
BRANCH   7  10
ATOM     10  N   UNL     1       5.260   3.484  18.993  0.00  0.00    +0.000 NA
ATOM     11  H   UNL     1       5.954   2.812  19.323  0.00  0.00    +0.000 HD
BRANCH  10  12
ATOM     12  C   UNL     1       4.298   2.972  18.016  0.00  0.00    +0.000 C 
BRANCH  12  17
ATOM     13  C   UNL     1       1.331   2.553  21.808  0.00  0.00    +0.000 C 
ATOM     14  C   UNL     1       1.604   2.721  20.367  0.00  0.00    +0.000 A 
ATOM     15  C   UNL     1       0.798   2.805  19.253  0.00  0.00    +0.000 A 
ATOM     16  C   UNL     1       1.665   2.942  18.141  0.00  0.00    +0.000 A 
ATOM     17  C   UNL     1       2.951   2.924  18.643  0.00  0.00    +0.000 A 
ATOM     18  O   UNL     1       2.915   2.804  20.003  0.00  0.00    +0.000 OA
ENDBRANCH  12  17
ENDBRANCH  10  12
ENDBRANCH   7  10
ENDBRANCH   1   7
BRANCH   4  19
ATOM     19  C   UNL     1       1.118   8.637  18.002  0.00  0.00    +0.000 C 
BRANCH  19  20
ATOM     20  N   UNL     1       1.222   9.865  18.758  0.00  0.00    +0.000 N 
ATOM     21  C   UNL     1       1.922  10.966  18.350  0.00  0.00    +0.000 C 
ATOM     22  O   UNL     1       2.598  11.123  17.351  0.00  0.00    +0.000 OA
ATOM     23  C   UNL     1       1.723  11.990  19.366  0.00  0.00    +0.000 A 
ATOM     24  C   UNL     1       2.129  13.305  19.448  0.00  0.00    +0.000 A 
ATOM     25  C   UNL     1       1.680  14.030  20.556  0.00  0.00    +0.000 A 
ATOM     26  C   UNL     1       0.872  13.395  21.511  0.00  0.00    +0.000 A 
ATOM     27  N   UNL     1       0.488  12.097  21.445  0.00  0.00    +0.000 NA
ATOM     28  C   UNL     1       0.937  11.449  20.355  0.00  0.00    +0.000 A 
ATOM     29  C   UNL     1       0.637  10.058  19.982  0.00  0.00    +0.000 C 
ATOM     30  O   UNL     1       0.010   9.253  20.646  0.00  0.00    +0.000 OA
ENDBRANCH  19  20
ENDBRANCH   4  19
TORSDOF 6
ENDMDL
MODEL 7
REMARK VINA RESULT:      -8.2      2.352      9.262
REMARK  Name = 
REMARK  7 active torsions:
REMARK  status: ('A' for Active; 'I' for Inactive)
REMARK    1  A    between atoms: C_1  and  C_2
REMARK    2  A    between atoms: C_5  and  C_6
REMARK    3  A    between atoms: C_6  and  N_7
REMARK    4  A    between atoms: N_7  and  S_8
REMARK    5  A    between atoms: S_8  and  C_11
REMARK    6  A    between atoms: C_14  and  C_15
REMARK    7  A    between atoms: C_15  and  N_16
REMARK                            x       y       z     vdW  Elec       q    Type
REMARK                         _______ _______ _______ _____ _____    ______ ____
ROOT
ATOM      1  C   UNL     1       2.140   6.588  19.522  0.00  0.00    +0.000 A 
ATOM      2  C   UNL     1       1.635   7.454  20.494  0.00  0.00    +0.000 A 
ATOM      3  C   UNL     1       1.387   8.791  20.169  0.00  0.00    +0.000 A 
ATOM      4  C   UNL     1       1.637   9.272  18.875  0.00  0.00    +0.000 A 
ATOM      5  C   UNL     1       2.196   8.404  17.924  0.00  0.00    +0.000 A 
ATOM      6  C   UNL     1       2.450   7.065  18.246  0.00  0.00    +0.000 A 
ENDROOT
BRANCH   1   7
ATOM      7  S   UNL     1       2.490   4.895  19.940  0.00  0.00    +0.000 S 
ATOM      8  O   UNL     1       1.816   4.054  18.977  0.00  0.00    +0.000 OA
ATOM      9  O   UNL     1       2.292   4.726  21.360  0.00  0.00    +0.000 OA
BRANCH   7  10
ATOM     10  N   UNL     1       4.132   4.758  19.608  0.00  0.00    +0.000 NA
ATOM     11  H   UNL     1       4.597   5.668  19.631  0.00  0.00    +0.000 HD
BRANCH  10  12
ATOM     12  C   UNL     1       4.505   3.884  18.496  0.00  0.00    +0.000 C 
BRANCH  12  17
ATOM     13  C   UNL     1       7.591   7.487  17.567  0.00  0.00    +0.000 C 
ATOM     14  C   UNL     1       6.903   6.227  17.225  0.00  0.00    +0.000 A 
ATOM     15  C   UNL     1       6.910   5.415  16.111  0.00  0.00    +0.000 A 
ATOM     16  C   UNL     1       6.016   4.350  16.387  0.00  0.00    +0.000 A 
ATOM     17  C   UNL     1       5.511   4.581  17.650  0.00  0.00    +0.000 A 
ATOM     18  O   UNL     1       6.062   5.718  18.169  0.00  0.00    +0.000 OA
ENDBRANCH  12  17
ENDBRANCH  10  12
ENDBRANCH   7  10
ENDBRANCH   1   7
BRANCH   4  19
ATOM     19  C   UNL     1       1.318  10.710  18.516  0.00  0.00    +0.000 C 
BRANCH  19  20
ATOM     20  N   UNL     1      -0.051  11.062  18.822  0.00  0.00    +0.000 N 
ATOM     21  C   UNL     1      -0.427  11.864  19.862  0.00  0.00    +0.000 C 
ATOM     22  O   UNL     1       0.258  12.384  20.722  0.00  0.00    +0.000 OA
ATOM     23  C   UNL     1      -1.874  12.008  19.779  0.00  0.00    +0.000 A 
ATOM     24  C   UNL     1      -2.776  12.748  20.514  0.00  0.00    +0.000 A 
ATOM     25  C   UNL     1      -4.108  12.705  20.096  0.00  0.00    +0.000 A 
ATOM     26  C   UNL     1      -4.455  11.921  18.986  0.00  0.00    +0.000 A 
ATOM     27  N   UNL     1      -3.576  11.176  18.273  0.00  0.00    +0.000 NA
ATOM     28  C   UNL     1      -2.307  11.262  18.710  0.00  0.00    +0.000 A 
ATOM     29  C   UNL     1      -1.131  10.617  18.105  0.00  0.00    +0.000 C 
ATOM     30  O   UNL     1      -1.137   9.838  17.170  0.00  0.00    +0.000 OA
ENDBRANCH  19  20
ENDBRANCH   4  19
TORSDOF 6
ENDMDL
MODEL 8
REMARK VINA RESULT:      -8.1      2.653      9.750
REMARK  Name = 
REMARK  7 active torsions:
REMARK  status: ('A' for Active; 'I' for Inactive)
REMARK    1  A    between atoms: C_1  and  C_2
REMARK    2  A    between atoms: C_5  and  C_6
REMARK    3  A    between atoms: C_6  and  N_7
REMARK    4  A    between atoms: N_7  and  S_8
REMARK    5  A    between atoms: S_8  and  C_11
REMARK    6  A    between atoms: C_14  and  C_15
REMARK    7  A    between atoms: C_15  and  N_16
REMARK                            x       y       z     vdW  Elec       q    Type
REMARK                         _______ _______ _______ _____ _____    ______ ____
ROOT
ATOM      1  C   UNL     1       2.114   7.295  19.250  0.00  0.00    +0.000 A 
ATOM      2  C   UNL     1       2.247   7.985  18.043  0.00  0.00    +0.000 A 
ATOM      3  C   UNL     1       1.885   9.334  17.972  0.00  0.00    +0.000 A 
ATOM      4  C   UNL     1       1.392  10.003  19.103  0.00  0.00    +0.000 A 
ATOM      5  C   UNL     1       1.213   9.283  20.295  0.00  0.00    +0.000 A 
ATOM      6  C   UNL     1       1.571   7.931  20.369  0.00  0.00    +0.000 A 
ENDROOT
BRANCH   1   7
ATOM      7  S   UNL     1       2.542   5.571  19.335  0.00  0.00    +0.000 S 
ATOM      8  O   UNL     1       2.222   4.972  18.060  0.00  0.00    +0.000 OA
ATOM      9  O   UNL     1       2.027   5.034  20.574  0.00  0.00    +0.000 OA
BRANCH   7  10
ATOM     10  N   UNL     1       4.221   5.606  19.425  0.00  0.00    +0.000 NA
ATOM     11  H   UNL     1       4.607   6.407  18.922  0.00  0.00    +0.000 HD
BRANCH  10  12
ATOM     12  C   UNL     1       4.914   4.334  19.217  0.00  0.00    +0.000 C 
BRANCH  12  17
ATOM     13  C   UNL     1       5.949   3.992  14.509  0.00  0.00    +0.000 C 
ATOM     14  C   UNL     1       6.297   4.297  15.910  0.00  0.00    +0.000 A 
ATOM     15  C   UNL     1       7.462   4.687  16.535  0.00  0.00    +0.000 A 
ATOM     16  C   UNL     1       7.157   4.802  17.914  0.00  0.00    +0.000 A 
ATOM     17  C   UNL     1       5.826   4.466  18.049  0.00  0.00    +0.000 A 
ATOM     18  O   UNL     1       5.295   4.172  16.826  0.00  0.00    +0.000 OA
ENDBRANCH  12  17
ENDBRANCH  10  12
ENDBRANCH   7  10
ENDBRANCH   1   7
BRANCH   4  19
ATOM     19  C   UNL     1       1.049  11.478  19.032  0.00  0.00    +0.000 C 
BRANCH  19  20
ATOM     20  N   UNL     1      -0.259  11.765  19.579  0.00  0.00    +0.000 N 
ATOM     21  C   UNL     1      -0.487  12.162  20.866  0.00  0.00    +0.000 C 
ATOM     22  O   UNL     1       0.303  12.308  21.780  0.00  0.00    +0.000 OA
ATOM     23  C   UNL     1      -1.919  12.397  20.985  0.00  0.00    +0.000 A 
ATOM     24  C   UNL     1      -2.698  12.870  22.021  0.00  0.00    +0.000 A 
ATOM     25  C   UNL     1      -4.058  13.044  21.751  0.00  0.00    +0.000 A 
ATOM     26  C   UNL     1      -4.552  12.724  20.478  0.00  0.00    +0.000 A 
ATOM     27  N   UNL     1      -3.794  12.239  19.464  0.00  0.00    +0.000 NA
ATOM     28  C   UNL     1      -2.493  12.101  19.773  0.00  0.00    +0.000 A 
ATOM     29  C   UNL     1      -1.424  11.657  18.865  0.00  0.00    +0.000 C 
ATOM     30  O   UNL     1      -1.566  11.262  17.722  0.00  0.00    +0.000 OA
ENDBRANCH  19  20
ENDBRANCH   4  19
TORSDOF 6
ENDMDL
MODEL 9
REMARK VINA RESULT:      -8.1      3.117      9.245
REMARK  Name = 
REMARK  7 active torsions:
REMARK  status: ('A' for Active; 'I' for Inactive)
REMARK    1  A    between atoms: C_1  and  C_2
REMARK    2  A    between atoms: C_5  and  C_6
REMARK    3  A    between atoms: C_6  and  N_7
REMARK    4  A    between atoms: N_7  and  S_8
REMARK    5  A    between atoms: S_8  and  C_11
REMARK    6  A    between atoms: C_14  and  C_15
REMARK    7  A    between atoms: C_15  and  N_16
REMARK                            x       y       z     vdW  Elec       q    Type
REMARK                         _______ _______ _______ _____ _____    ______ ____
ROOT
ATOM      1  C   UNL     1       2.066   7.053  19.464  0.00  0.00    +0.000 A 
ATOM      2  C   UNL     1       1.551   7.833  20.501  0.00  0.00    +0.000 A 
ATOM      3  C   UNL     1       1.213   9.168  20.261  0.00  0.00    +0.000 A 
ATOM      4  C   UNL     1       1.383   9.733  18.988  0.00  0.00    +0.000 A 
ATOM      5  C   UNL     1       1.953   8.952  17.969  0.00  0.00    +0.000 A 
ATOM      6  C   UNL     1       2.297   7.616  18.205  0.00  0.00    +0.000 A 
ENDROOT
BRANCH   1   7
ATOM      7  S   UNL     1       2.529   5.363  19.772  0.00  0.00    +0.000 S 
ATOM      8  O   UNL     1       1.972   4.552  18.715  0.00  0.00    +0.000 OA
ATOM      9  O   UNL     1       2.278   5.069  21.164  0.00  0.00    +0.000 OA
BRANCH   7  10
ATOM     10  N   UNL     1       4.191   5.378  19.521  0.00  0.00    +0.000 NA
ATOM     11  H   UNL     1       4.532   6.320  19.318  0.00  0.00    +0.000 HD
BRANCH  10  12
ATOM     12  C   UNL     1       4.735   4.314  18.678  0.00  0.00    +0.000 C 
BRANCH  12  17
ATOM     13  C   UNL     1       6.024   3.881  14.039  0.00  0.00    +0.000 C 
ATOM     14  C   UNL     1       5.615   4.666  15.220  0.00  0.00    +0.000 A 
ATOM     15  C   UNL     1       5.451   6.015  15.452  0.00  0.00    +0.000 A 
ATOM     16  C   UNL     1       5.059   6.143  16.808  0.00  0.00    +0.000 A 
ATOM     17  C   UNL     1       5.017   4.864  17.325  0.00  0.00    +0.000 A 
ATOM     18  O   UNL     1       5.342   3.960  16.354  0.00  0.00    +0.000 OA
ENDBRANCH  12  17
ENDBRANCH  10  12
ENDBRANCH   7  10
ENDBRANCH   1   7
BRANCH   4  19
ATOM     19  C   UNL     1       0.967  11.166  18.722  0.00  0.00    +0.000 C 
BRANCH  19  20
ATOM     20  N   UNL     1       0.186  11.722  19.805  0.00  0.00    +0.000 N 
ATOM     21  C   UNL     1      -1.177  11.669  19.878  0.00  0.00    +0.000 C 
ATOM     22  O   UNL     1      -1.975  11.213  19.082  0.00  0.00    +0.000 OA
ATOM     23  C   UNL     1      -1.553  12.288  21.142  0.00  0.00    +0.000 A 
ATOM     24  C   UNL     1      -2.771  12.451  21.767  0.00  0.00    +0.000 A 
ATOM     25  C   UNL     1      -2.749  13.035  23.037  0.00  0.00    +0.000 A 
ATOM     26  C   UNL     1      -1.522  13.428  23.590  0.00  0.00    +0.000 A 
ATOM     27  N   UNL     1      -0.324  13.290  22.970  0.00  0.00    +0.000 NA
ATOM     28  C   UNL     1      -0.401  12.712  21.758  0.00  0.00    +0.000 A 
ATOM     29  C   UNL     1       0.730  12.378  20.878  0.00  0.00    +0.000 C 
ATOM     30  O   UNL     1       1.900  12.651  21.072  0.00  0.00    +0.000 OA
ENDBRANCH  19  20
ENDBRANCH   4  19
TORSDOF 6
ENDMDL
