MODEL 1
REMARK VINA RESULT:      -7.1      0.000      0.000
REMARK  Name = 
REMARK  4 active torsions:
REMARK  status: ('A' for Active; 'I' for Inactive)
REMARK    1  A    between atoms: C_1  and  C_2
REMARK    2  A    between atoms: C_2  and  C_3
REMARK    3  A    between atoms: N_8  and  C_9
REMARK    4  A    between atoms: C_9  and  C_10
REMARK                            x       y       z     vdW  Elec       q    Type
REMARK                         _______ _______ _______ _____ _____    ______ ____
ROOT
ATOM      1  C   UNL     1       8.178   8.890  17.995  0.00  0.00    +0.000 A 
ATOM      2  N   UNL     1       8.623   7.782  18.712  0.00  0.00    +0.000 NA
ATOM      3  C   UNL     1       7.858   6.831  18.274  0.00  0.00    +0.000 A 
ATOM      4  C   UNL     1       7.814   5.402  18.600  0.00  0.00    +0.000 A 
ATOM      5  C   UNL     1       6.899   4.678  17.935  0.00  0.00    +0.000 A 
ATOM      6  N   UNL     1       5.987   5.192  16.999  0.00  0.00    +0.000 N 
ATOM      7  C   UNL     1       6.056   6.558  16.705  0.00  0.00    +0.000 A 
ATOM      8  C   UNL     1       6.927   7.380  17.292  0.00  0.00    +0.000 A 
ATOM      9  N   UNL     1       7.187   8.713  17.160  0.00  0.00    +0.000 NA
ENDROOT
BRANCH   1  11
ATOM     10  C   UNL     1       9.263  10.384  19.619  0.00  0.00    +0.000 C 
ATOM     11  C   UNL     1       8.900  10.191  18.157  0.00  0.00    +0.000 C 
ENDBRANCH   1  11
BRANCH   6  12
ATOM     12  C   UNL     1       4.996   4.322  16.332  0.00  0.00    +0.000 C 
BRANCH  12  13
ATOM     13  C   UNL     1       3.879   3.939  17.279  0.00  0.00    +0.000 A 
ATOM     14  C   UNL     1       2.961   4.904  17.722  0.00  0.00    +0.000 A 
ATOM     15  C   UNL     1       2.015   4.588  18.700  0.00  0.00    +0.000 A 
ATOM     16  C   UNL     1       1.976   3.302  19.234  0.00  0.00    +0.000 A 
ATOM     17 BR   UNL     1       0.775   2.905  20.639  0.00  0.00    +0.000 Br
ATOM     18  C   UNL     1       2.838   2.316  18.762  0.00  0.00    +0.000 A 
ATOM     19  C   UNL     1       3.786   2.634  17.788  0.00  0.00    +0.000 A 
ENDBRANCH  12  13
ENDBRANCH   6  12
TORSDOF 3
ENDMDL
MODEL 2
REMARK VINA RESULT:      -7.0      3.344      5.276
REMARK  Name = 
REMARK  4 active torsions:
REMARK  status: ('A' for Active; 'I' for Inactive)
REMARK    1  A    between atoms: C_1  and  C_2
REMARK    2  A    between atoms: C_2  and  C_3
REMARK    3  A    between atoms: N_8  and  C_9
REMARK    4  A    between atoms: C_9  and  C_10
REMARK                            x       y       z     vdW  Elec       q    Type
REMARK                         _______ _______ _______ _____ _____    ______ ____
ROOT
ATOM      1  C   UNL     1       6.451   4.453  14.047  0.00  0.00    +0.000 A 
ATOM      2  N   UNL     1       7.367   5.147  14.833  0.00  0.00    +0.000 NA
ATOM      3  C   UNL     1       6.718   5.326  15.941  0.00  0.00    +0.000 A 
ATOM      4  C   UNL     1       7.115   5.969  17.198  0.00  0.00    +0.000 A 
ATOM      5  C   UNL     1       6.194   5.960  18.176  0.00  0.00    +0.000 A 
ATOM      6  N   UNL     1       4.903   5.419  18.064  0.00  0.00    +0.000 N 
ATOM      7  C   UNL     1       4.554   4.808  16.855  0.00  0.00    +0.000 A 
ATOM      8  C   UNL     1       5.384   4.745  15.812  0.00  0.00    +0.000 A 
ATOM      9  N   UNL     1       5.277   4.199  14.567  0.00  0.00    +0.000 NA
ENDROOT
BRANCH   1  11
ATOM     10  C   UNL     1       5.774   3.119  12.096  0.00  0.00    +0.000 C 
ATOM     11  C   UNL     1       6.879   3.970  12.696  0.00  0.00    +0.000 C 
ENDBRANCH   1  11
BRANCH   6  12
ATOM     12  C   UNL     1       3.944   5.477  19.188  0.00  0.00    +0.000 C 
BRANCH  12  13
ATOM     13  C   UNL     1       3.025   6.674  19.062  0.00  0.00    +0.000 A 
ATOM     14  C   UNL     1       3.035   7.458  17.898  0.00  0.00    +0.000 A 
ATOM     15  C   UNL     1       2.292   8.638  17.831  0.00  0.00    +0.000 A 
ATOM     16  C   UNL     1       1.526   9.036  18.925  0.00  0.00    +0.000 A 
ATOM     17 BR   UNL     1       0.614  10.691  18.880  0.00  0.00    +0.000 Br
ATOM     18  C   UNL     1       1.456   8.239  20.064  0.00  0.00    +0.000 A 
ATOM     19  C   UNL     1       2.203   7.062  20.132  0.00  0.00    +0.000 A 
ENDBRANCH  12  13
ENDBRANCH   6  12
TORSDOF 3
ENDMDL
MODEL 3
REMARK VINA RESULT:      -6.8      3.490      5.245
REMARK  Name = 
REMARK  4 active torsions:
REMARK  status: ('A' for Active; 'I' for Inactive)
REMARK    1  A    between atoms: C_1  and  C_2
REMARK    2  A    between atoms: C_2  and  C_3
REMARK    3  A    between atoms: N_8  and  C_9
REMARK    4  A    between atoms: C_9  and  C_10
REMARK                            x       y       z     vdW  Elec       q    Type
REMARK                         _______ _______ _______ _____ _____    ______ ____
ROOT
ATOM      1  C   UNL     1       6.451   4.388  14.131  0.00  0.00    +0.000 A 
ATOM      2  N   UNL     1       7.396   4.702  15.105  0.00  0.00    +0.000 NA
ATOM      3  C   UNL     1       6.670   4.860  16.168  0.00  0.00    +0.000 A 
ATOM      4  C   UNL     1       7.043   5.180  17.550  0.00  0.00    +0.000 A 
ATOM      5  C   UNL     1       6.029   5.247  18.428  0.00  0.00    +0.000 A 
ATOM      6  N   UNL     1       4.673   5.068  18.111  0.00  0.00    +0.000 N 
ATOM      7  C   UNL     1       4.348   4.758  16.786  0.00  0.00    +0.000 A 
ATOM      8  C   UNL     1       5.266   4.655  15.823  0.00  0.00    +0.000 A 
ATOM      9  N   UNL     1       5.195   4.355  14.495  0.00  0.00    +0.000 NA
ENDROOT
BRANCH   1  11
ATOM     10  C   UNL     1       5.911   3.107  12.104  0.00  0.00    +0.000 C 
ATOM     11  C   UNL     1       6.924   4.031  12.756  0.00  0.00    +0.000 C 
ENDBRANCH   1  11
BRANCH   6  12
ATOM     12  C   UNL     1       3.619   5.185  19.142  0.00  0.00    +0.000 C 
BRANCH  12  13
ATOM     13  C   UNL     1       2.970   6.552  19.108  0.00  0.00    +0.000 A 
ATOM     14  C   UNL     1       2.229   7.015  20.207  0.00  0.00    +0.000 A 
ATOM     15  C   UNL     1       1.516   8.212  20.128  0.00  0.00    +0.000 A 
ATOM     16  C   UNL     1       1.548   8.960  18.954  0.00  0.00    +0.000 A 
ATOM     17 BR   UNL     1       0.491  10.521  18.805  0.00  0.00    +0.000 Br
ATOM     18  C   UNL     1       2.328   8.549  17.876  0.00  0.00    +0.000 A 
ATOM     19  C   UNL     1       3.036   7.348  17.954  0.00  0.00    +0.000 A 
ENDBRANCH  12  13
ENDBRANCH   6  12
TORSDOF 3
ENDMDL
MODEL 4
REMARK VINA RESULT:      -6.8      3.277      4.894
REMARK  Name = 
REMARK  4 active torsions:
REMARK  status: ('A' for Active; 'I' for Inactive)
REMARK    1  A    between atoms: C_1  and  C_2
REMARK    2  A    between atoms: C_2  and  C_3
REMARK    3  A    between atoms: N_8  and  C_9
REMARK    4  A    between atoms: C_9  and  C_10
REMARK                            x       y       z     vdW  Elec       q    Type
REMARK                         _______ _______ _______ _____ _____    ______ ____
ROOT
ATOM      1  C   UNL     1       6.563   4.299  14.131  0.00  0.00    +0.000 A 
ATOM      2  N   UNL     1       7.479   4.823  15.039  0.00  0.00    +0.000 NA
ATOM      3  C   UNL     1       6.843   4.745  16.167  0.00  0.00    +0.000 A 
ATOM      4  C   UNL     1       7.248   5.107  17.529  0.00  0.00    +0.000 A 
ATOM      5  C   UNL     1       6.341   4.868  18.491  0.00  0.00    +0.000 A 
ATOM      6  N   UNL     1       5.058   4.340  18.278  0.00  0.00    +0.000 N 
ATOM      7  C   UNL     1       4.702   3.999  16.969  0.00  0.00    +0.000 A 
ATOM      8  C   UNL     1       5.517   4.180  15.929  0.00  0.00    +0.000 A 
ATOM      9  N   UNL     1       5.402   3.916  14.596  0.00  0.00    +0.000 NA
ENDROOT
BRANCH   1  11
ATOM     10  C   UNL     1       5.984   3.226  11.997  0.00  0.00    +0.000 C 
ATOM     11  C   UNL     1       6.979   4.129  12.703  0.00  0.00    +0.000 C 
ENDBRANCH   1  11
BRANCH   6  12
ATOM     12  C   UNL     1       4.115   4.134  19.398  0.00  0.00    +0.000 C 
BRANCH  12  13
ATOM     13  C   UNL     1       3.194   5.324  19.564  0.00  0.00    +0.000 A 
ATOM     14  C   UNL     1       3.280   6.417  18.687  0.00  0.00    +0.000 A 
ATOM     15  C   UNL     1       2.530   7.572  18.917  0.00  0.00    +0.000 A 
ATOM     16  C   UNL     1       1.682   7.638  20.020  0.00  0.00    +0.000 A 
ATOM     17 BR   UNL     1       0.756   9.243  20.399  0.00  0.00    +0.000 Br
ATOM     18  C   UNL     1       1.538   6.541  20.866  0.00  0.00    +0.000 A 
ATOM     19  C   UNL     1       2.292   5.388  20.638  0.00  0.00    +0.000 A 
ENDBRANCH  12  13
ENDBRANCH   6  12
TORSDOF 3
ENDMDL
MODEL 5
REMARK VINA RESULT:      -6.7      0.587      1.255
REMARK  Name = 
REMARK  4 active torsions:
REMARK  status: ('A' for Active; 'I' for Inactive)
REMARK    1  A    between atoms: C_1  and  C_2
REMARK    2  A    between atoms: C_2  and  C_3
REMARK    3  A    between atoms: N_8  and  C_9
REMARK    4  A    between atoms: C_9  and  C_10
REMARK                            x       y       z     vdW  Elec       q    Type
REMARK                         _______ _______ _______ _____ _____    ______ ____
ROOT
ATOM      1  C   UNL     1       8.284   9.035  18.127  0.00  0.00    +0.000 A 
ATOM      2  N   UNL     1       8.666   7.985  18.958  0.00  0.00    +0.000 NA
ATOM      3  C   UNL     1       8.006   6.979  18.472  0.00  0.00    +0.000 A 
ATOM      4  C   UNL     1       7.972   5.567  18.867  0.00  0.00    +0.000 A 
ATOM      5  C   UNL     1       7.188   4.770  18.122  0.00  0.00    +0.000 A 
ATOM      6  N   UNL     1       6.399   5.196  17.042  0.00  0.00    +0.000 N 
ATOM      7  C   UNL     1       6.456   6.547  16.685  0.00  0.00    +0.000 A 
ATOM      8  C   UNL     1       7.203   7.436  17.341  0.00  0.00    +0.000 A 
ATOM      9  N   UNL     1       7.428   8.771  17.173  0.00  0.00    +0.000 NA
ENDROOT
BRANCH   1  11
ATOM     10  C   UNL     1       9.531  10.447  19.705  0.00  0.00    +0.000 C 
ATOM     11  C   UNL     1       8.926  10.374  18.315  0.00  0.00    +0.000 C 
ENDBRANCH   1  11
BRANCH   6  12
ATOM     12  C   UNL     1       5.545   4.249  16.293  0.00  0.00    +0.000 C 
BRANCH  12  13
ATOM     13  C   UNL     1       4.347   3.824  17.115  0.00  0.00    +0.000 A 
ATOM     14  C   UNL     1       4.188   2.483  17.499  0.00  0.00    +0.000 A 
ATOM     15  C   UNL     1       3.020   2.061  18.137  0.00  0.00    +0.000 A 
ATOM     16  C   UNL     1       2.008   2.980  18.404  0.00  0.00    +0.000 A 
ATOM     17 BR   UNL     1       0.379   2.389  19.161  0.00  0.00    +0.000 Br
ATOM     18  C   UNL     1       2.174   4.325  18.086  0.00  0.00    +0.000 A 
ATOM     19  C   UNL     1       3.340   4.745  17.444  0.00  0.00    +0.000 A 
ENDBRANCH  12  13
ENDBRANCH   6  12
TORSDOF 3
ENDMDL
MODEL 6
REMARK VINA RESULT:      -6.5      3.266      4.563
REMARK  Name = 
REMARK  4 active torsions:
REMARK  status: ('A' for Active; 'I' for Inactive)
REMARK    1  A    between atoms: C_1  and  C_2
REMARK    2  A    between atoms: C_2  and  C_3
REMARK    3  A    between atoms: N_8  and  C_9
REMARK    4  A    between atoms: C_9  and  C_10
REMARK                            x       y       z     vdW  Elec       q    Type
REMARK                         _______ _______ _______ _____ _____    ______ ____
ROOT
ATOM      1  C   UNL     1       6.863   4.579  13.814  0.00  0.00    +0.000 A 
ATOM      2  N   UNL     1       7.659   4.950  14.894  0.00  0.00    +0.000 NA
ATOM      3  C   UNL     1       6.881   4.737  15.910  0.00  0.00    +0.000 A 
ATOM      4  C   UNL     1       7.109   4.900  17.349  0.00  0.00    +0.000 A 
ATOM      5  C   UNL     1       6.083   4.559  18.146  0.00  0.00    +0.000 A 
ATOM      6  N   UNL     1       4.833   4.100  17.702  0.00  0.00    +0.000 N 
ATOM      7  C   UNL     1       4.646   3.950  16.323  0.00  0.00    +0.000 A 
ATOM      8  C   UNL     1       5.592   4.246  15.430  0.00  0.00    +0.000 A 
ATOM      9  N   UNL     1       5.647   4.168  14.070  0.00  0.00    +0.000 NA
ENDROOT
BRANCH   1  11
ATOM     10  C   UNL     1       8.237   5.881  12.246  0.00  0.00    +0.000 C 
ATOM     11  C   UNL     1       7.459   4.592  12.440  0.00  0.00    +0.000 C 
ENDBRANCH   1  11
BRANCH   6  12
ATOM     12  C   UNL     1       3.750   3.771  18.653  0.00  0.00    +0.000 C 
BRANCH  12  13
ATOM     13  C   UNL     1       3.146   5.025  19.250  0.00  0.00    +0.000 A 
ATOM     14  C   UNL     1       2.429   4.964  20.455  0.00  0.00    +0.000 A 
ATOM     15  C   UNL     1       1.755   6.087  20.937  0.00  0.00    +0.000 A 
ATOM     16  C   UNL     1       1.802   7.282  20.221  0.00  0.00    +0.000 A 
ATOM     17 BR   UNL     1       0.794   8.769  20.811  0.00  0.00    +0.000 Br
ATOM     18  C   UNL     1       2.558   7.377  19.056  0.00  0.00    +0.000 A 
ATOM     19  C   UNL     1       3.228   6.252  18.573  0.00  0.00    +0.000 A 
ENDBRANCH  12  13
ENDBRANCH   6  12
TORSDOF 3
ENDMDL
MODEL 7
REMARK VINA RESULT:      -6.3      4.953      6.486
REMARK  Name = 
REMARK  4 active torsions:
REMARK  status: ('A' for Active; 'I' for Inactive)
REMARK    1  A    between atoms: C_1  and  C_2
REMARK    2  A    between atoms: C_2  and  C_3
REMARK    3  A    between atoms: N_8  and  C_9
REMARK    4  A    between atoms: C_9  and  C_10
REMARK                            x       y       z     vdW  Elec       q    Type
REMARK                         _______ _______ _______ _____ _____    ______ ____
ROOT
ATOM      1  C   UNL     1       0.223   9.580  21.961  0.00  0.00    +0.000 A 
ATOM      2  N   UNL     1      -0.030  10.393  20.858  0.00  0.00    +0.000 NA
ATOM      3  C   UNL     1       0.695   9.850  19.930  0.00  0.00    +0.000 A 
ATOM      4  C   UNL     1       0.871  10.200  18.517  0.00  0.00    +0.000 A 
ATOM      5  C   UNL     1       1.691   9.400  17.814  0.00  0.00    +0.000 A 
ATOM      6  N   UNL     1       2.394   8.303  18.338  0.00  0.00    +0.000 N 
ATOM      7  C   UNL     1       2.202   7.991  19.688  0.00  0.00    +0.000 A 
ATOM      8  C   UNL     1       1.407   8.703  20.488  0.00  0.00    +0.000 A 
ATOM      9  N   UNL     1       1.058   8.586  21.801  0.00  0.00    +0.000 NA
ENDROOT
BRANCH   1  11
ATOM     10  C   UNL     1      -1.393  11.071  23.062  0.00  0.00    +0.000 C 
ATOM     11  C   UNL     1      -0.527   9.835  23.231  0.00  0.00    +0.000 C 
ENDBRANCH   1  11
BRANCH   6  12
ATOM     12  C   UNL     1       3.295   7.492  17.493  0.00  0.00    +0.000 C 
BRANCH  12  13
ATOM     13  C   UNL     1       3.292   6.041  17.926  0.00  0.00    +0.000 A 
ATOM     14  C   UNL     1       4.458   5.449  18.435  0.00  0.00    +0.000 A 
ATOM     15  C   UNL     1       4.499   4.080  18.706  0.00  0.00    +0.000 A 
ATOM     16  C   UNL     1       3.370   3.296  18.477  0.00  0.00    +0.000 A 
ATOM     17 BR   UNL     1       3.459   1.424  18.731  0.00  0.00    +0.000 Br
ATOM     18  C   UNL     1       2.187   3.877  18.030  0.00  0.00    +0.000 A 
ATOM     19  C   UNL     1       2.148   5.245  17.755  0.00  0.00    +0.000 A 
ENDBRANCH  12  13
ENDBRANCH   6  12
TORSDOF 3
ENDMDL
MODEL 8
REMARK VINA RESULT:      -6.3      3.606      5.499
REMARK  Name = 
REMARK  4 active torsions:
REMARK  status: ('A' for Active; 'I' for Inactive)
REMARK    1  A    between atoms: C_1  and  C_2
REMARK    2  A    between atoms: C_2  and  C_3
REMARK    3  A    between atoms: N_8  and  C_9
REMARK    4  A    between atoms: C_9  and  C_10
REMARK                            x       y       z     vdW  Elec       q    Type
REMARK                         _______ _______ _______ _____ _____    ______ ____
ROOT
ATOM      1  C   UNL     1       6.232   4.921  15.149  0.00  0.00    +0.000 A 
ATOM      2  N   UNL     1       5.310   3.888  15.297  0.00  0.00    +0.000 NA
ATOM      3  C   UNL     1       4.673   4.225  16.375  0.00  0.00    +0.000 A 
ATOM      4  C   UNL     1       3.557   3.581  17.075  0.00  0.00    +0.000 A 
ATOM      5  C   UNL     1       3.107   4.218  18.170  0.00  0.00    +0.000 A 
ATOM      6  N   UNL     1       3.643   5.407  18.688  0.00  0.00    +0.000 N 
ATOM      7  C   UNL     1       4.704   6.001  17.996  0.00  0.00    +0.000 A 
ATOM      8  C   UNL     1       5.232   5.471  16.892  0.00  0.00    +0.000 A 
ATOM      9  N   UNL     1       6.234   5.866  16.055  0.00  0.00    +0.000 NA
ENDROOT
BRANCH   1  11
ATOM     10  C   UNL     1       6.542   3.984  12.898  0.00  0.00    +0.000 C 
ATOM     11  C   UNL     1       7.107   4.940  13.934  0.00  0.00    +0.000 C 
ENDBRANCH   1  11
BRANCH   6  12
ATOM     12  C   UNL     1       3.098   6.025  19.916  0.00  0.00    +0.000 C 
BRANCH  12  13
ATOM     13  C   UNL     1       2.284   7.260  19.592  0.00  0.00    +0.000 A 
ATOM     14  C   UNL     1       2.265   7.776  18.287  0.00  0.00    +0.000 A 
ATOM     15  C   UNL     1       1.629   8.989  18.012  0.00  0.00    +0.000 A 
ATOM     16  C   UNL     1       1.001   9.688  19.040  0.00  0.00    +0.000 A 
ATOM     17 BR   UNL     1       0.242  11.385  18.694  0.00  0.00    +0.000 Br
ATOM     18  C   UNL     1       0.957   9.161  20.328  0.00  0.00    +0.000 A 
ATOM     19  C   UNL     1       1.597   7.951  20.602  0.00  0.00    +0.000 A 
ENDBRANCH  12  13
ENDBRANCH   6  12
TORSDOF 3
ENDMDL
MODEL 9
REMARK VINA RESULT:      -6.2      5.615      7.728
REMARK  Name = 
REMARK  4 active torsions:
REMARK  status: ('A' for Active; 'I' for Inactive)
REMARK    1  A    between atoms: C_1  and  C_2
REMARK    2  A    between atoms: C_2  and  C_3
REMARK    3  A    between atoms: N_8  and  C_9
REMARK    4  A    between atoms: C_9  and  C_10
REMARK                            x       y       z     vdW  Elec       q    Type
REMARK                         _______ _______ _______ _____ _____    ______ ____
ROOT
ATOM      1  C   UNL     1       3.127   4.931  18.827  0.00  0.00    +0.000 A 
ATOM      2  N   UNL     1       2.641   5.292  20.081  0.00  0.00    +0.000 NA
ATOM      3  C   UNL     1       2.238   6.511  19.893  0.00  0.00    +0.000 A 
ATOM      4  C   UNL     1       1.601   7.467  20.805  0.00  0.00    +0.000 A 
ATOM      5  C   UNL     1       1.283   8.659  20.274  0.00  0.00    +0.000 A 
ATOM      6  N   UNL     1       1.543   9.048  18.950  0.00  0.00    +0.000 N 
ATOM      7  C   UNL     1       2.147   8.113  18.102  0.00  0.00    +0.000 A 
ATOM      8  C   UNL     1       2.503   6.893  18.509  0.00  0.00    +0.000 A 
ATOM      9  N   UNL     1       3.076   5.830  17.877  0.00  0.00    +0.000 NA
ENDROOT
BRANCH   1  11
ATOM     10  C   UNL     1       2.731   2.862  17.561  0.00  0.00    +0.000 C 
ATOM     11  C   UNL     1       3.600   3.527  18.613  0.00  0.00    +0.000 C 
ENDBRANCH   1  11
BRANCH   6  12
ATOM     12  C   UNL     1       1.179  10.393  18.458  0.00  0.00    +0.000 C 
BRANCH  12  13
ATOM     13  C   UNL     1      -0.325  10.572  18.416  0.00  0.00    +0.000 A 
ATOM     14  C   UNL     1      -1.106   9.812  17.531  0.00  0.00    +0.000 A 
ATOM     15  C   UNL     1      -2.471  10.069  17.390  0.00  0.00    +0.000 A 
ATOM     16  C   UNL     1      -3.065  11.081  18.141  0.00  0.00    +0.000 A 
ATOM     17 BR   UNL     1      -4.887  11.508  17.866  0.00  0.00    +0.000 Br
ATOM     18  C   UNL     1      -2.318  11.803  19.068  0.00  0.00    +0.000 A 
ATOM     19  C   UNL     1      -0.952  11.549  19.204  0.00  0.00    +0.000 A 
ENDBRANCH  12  13
ENDBRANCH   6  12
TORSDOF 3
ENDMDL
