MODEL 1
REMARK VINA RESULT:      -7.8      0.000      0.000
REMARK  Name = 
REMARK  7 active torsions:
REMARK  status: ('A' for Active; 'I' for Inactive)
REMARK    1  A    between atoms: C_1  and  C_2
REMARK    2  A    between atoms: C_5  and  O_6
REMARK    3  A    between atoms: O_6  and  C_7
REMARK    4  A    between atoms: C_7  and  C_8
REMARK    5  A    between atoms: C_18  and  N_19
REMARK    6  A    between atoms: N_19  and  C_20
REMARK    7  A    between atoms: C_21  and  C_23
REMARK                            x       y       z     vdW  Elec       q    Type
REMARK                         _______ _______ _______ _____ _____    ______ ____
ROOT
ATOM      1  C   UNL     1      -0.347   9.818  23.014  0.00  0.00    +0.000 C 
ATOM      2  C   UNL     1       0.262   9.542  21.688  0.00  0.00    +0.000 A 
ATOM      3  N   UNL     1       0.977   8.383  21.610  0.00  0.00    +0.000 NA
ATOM      4  C   UNL     1       1.434   8.295  20.396  0.00  0.00    +0.000 A 
ATOM      5  C   UNL     1       2.172   7.235  19.776  0.00  0.00    +0.000 A 
ATOM      6  C   UNL     1       2.583   7.370  18.504  0.00  0.00    +0.000 A 
ATOM      7  C   UNL     1       2.196   8.517  17.715  0.00  0.00    +0.000 A 
ATOM      8  C   UNL     1       1.414   9.466  18.265  0.00  0.00    +0.000 A 
ATOM      9  N   UNL     1       1.064   9.407  19.628  0.00  0.00    +0.000 N 
ATOM     10  C   UNL     1       0.307  10.255  20.483  0.00  0.00    +0.000 A 
ENDROOT
BRANCH  10  11
ATOM     11  N   UNL     1      -0.287  11.525  20.169  0.00  0.00    +0.000 N 
ATOM     12  C   UNL     1      -1.690  11.601  19.784  0.00  0.00    +0.000 C 
ATOM     13  C   UNL     1       0.370  12.688  20.565  0.00  0.00    +0.000 C 
ATOM     14  O   UNL     1       1.383  12.673  21.280  0.00  0.00    +0.000 OA
BRANCH  13  15
ATOM     15  C   UNL     1      -0.183  14.104  20.285  0.00  0.00    +0.000 C 
ATOM     16  C   UNL     1       0.810  14.902  19.433  0.00  0.00    +0.000 C 
ATOM     17  C   UNL     1       0.043  15.946  18.626  0.00  0.00    +0.000 C 
ATOM     18  C   UNL     1      -0.770  16.878  19.526  0.00  0.00    +0.000 C 
ATOM     19  C   UNL     1      -1.616  16.137  20.570  0.00  0.00    +0.000 C 
ATOM     20  C   UNL     1      -0.819  15.048  21.310  0.00  0.00    +0.000 C 
ENDBRANCH  13  15
ENDBRANCH  10  11
BRANCH   5  21
ATOM     21  O   UNL     1       2.429   6.056  20.469  0.00  0.00    +0.000 OA
BRANCH  21  22
ATOM     22  C   UNL     1       1.485   5.004  20.239  0.00  0.00    +0.000 C 
BRANCH  22  23
ATOM     23  C   UNL     1       2.155   3.844  19.547  0.00  0.00    +0.000 A 
ATOM     24  C   UNL     1       1.670   3.368  18.323  0.00  0.00    +0.000 A 
ATOM     25  C   UNL     1       2.325   2.328  17.666  0.00  0.00    +0.000 A 
ATOM     26  C   UNL     1       3.464   1.754  18.228  0.00  0.00    +0.000 A 
ATOM     27  C   UNL     1       3.949   2.215  19.452  0.00  0.00    +0.000 A 
ATOM     28  C   UNL     1       3.294   3.252  20.112  0.00  0.00    +0.000 A 
ENDBRANCH  22  23
ENDBRANCH  21  22
ENDBRANCH   5  21
TORSDOF 5
ENDMDL
MODEL 2
REMARK VINA RESULT:      -7.5      0.361      1.345
REMARK  Name = 
REMARK  7 active torsions:
REMARK  status: ('A' for Active; 'I' for Inactive)
REMARK    1  A    between atoms: C_1  and  C_2
REMARK    2  A    between atoms: C_5  and  O_6
REMARK    3  A    between atoms: O_6  and  C_7
REMARK    4  A    between atoms: C_7  and  C_8
REMARK    5  A    between atoms: C_18  and  N_19
REMARK    6  A    between atoms: N_19  and  C_20
REMARK    7  A    between atoms: C_21  and  C_23
REMARK                            x       y       z     vdW  Elec       q    Type
REMARK                         _______ _______ _______ _____ _____    ______ ____
ROOT
ATOM      1  C   UNL     1      -0.408   9.989  22.954  0.00  0.00    +0.000 C 
ATOM      2  C   UNL     1       0.240   9.632  21.666  0.00  0.00    +0.000 A 
ATOM      3  N   UNL     1       0.891   8.434  21.660  0.00  0.00    +0.000 NA
ATOM      4  C   UNL     1       1.392   8.276  20.470  0.00  0.00    +0.000 A 
ATOM      5  C   UNL     1       2.095   7.155  19.920  0.00  0.00    +0.000 A 
ATOM      6  C   UNL     1       2.565   7.220  18.663  0.00  0.00    +0.000 A 
ATOM      7  C   UNL     1       2.276   8.357  17.818  0.00  0.00    +0.000 A 
ATOM      8  C   UNL     1       1.526   9.366  18.301  0.00  0.00    +0.000 A 
ATOM      9  N   UNL     1       1.117   9.377  19.649  0.00  0.00    +0.000 N 
ATOM     10  C   UNL     1       0.374  10.296  20.440  0.00  0.00    +0.000 A 
ENDROOT
BRANCH  10  11
ATOM     11  N   UNL     1      -0.135  11.584  20.056  0.00  0.00    +0.000 N 
ATOM     12  C   UNL     1      -1.513  11.721  19.604  0.00  0.00    +0.000 C 
ATOM     13  C   UNL     1       0.568  12.724  20.445  0.00  0.00    +0.000 C 
ATOM     14  O   UNL     1       1.544  12.681  21.206  0.00  0.00    +0.000 OA
BRANCH  13  15
ATOM     15  C   UNL     1       0.106  14.157  20.092  0.00  0.00    +0.000 C 
ATOM     16  C   UNL     1      -1.027  14.593  21.027  0.00  0.00    +0.000 C 
ATOM     17  C   UNL     1      -1.011  16.115  21.149  0.00  0.00    +0.000 C 
ATOM     18  C   UNL     1      -1.139  16.797  19.786  0.00  0.00    +0.000 C 
ATOM     19  C   UNL     1      -0.180  16.235  18.728  0.00  0.00    +0.000 C 
ATOM     20  C   UNL     1      -0.180  14.697  18.688  0.00  0.00    +0.000 C 
ENDBRANCH  13  15
ENDBRANCH  10  11
BRANCH   5  21
ATOM     21  O   UNL     1       2.257   5.990  20.664  0.00  0.00    +0.000 OA
BRANCH  21  22
ATOM     22  C   UNL     1       1.371   4.922  20.311  0.00  0.00    +0.000 C 
BRANCH  22  23
ATOM     23  C   UNL     1       2.129   3.827  19.604  0.00  0.00    +0.000 A 
ATOM     24  C   UNL     1       3.273   3.264  20.184  0.00  0.00    +0.000 A 
ATOM     25  C   UNL     1       3.938   2.218  19.548  0.00  0.00    +0.000 A 
ATOM     26  C   UNL     1       3.471   1.731  18.328  0.00  0.00    +0.000 A 
ATOM     27  C   UNL     1       2.338   2.293  17.739  0.00  0.00    +0.000 A 
ATOM     28  C   UNL     1       1.673   3.339  18.372  0.00  0.00    +0.000 A 
ENDBRANCH  22  23
ENDBRANCH  21  22
ENDBRANCH   5  21
TORSDOF 5
ENDMDL
MODEL 3
REMARK VINA RESULT:      -7.1      2.720      4.465
REMARK  Name = 
REMARK  7 active torsions:
REMARK  status: ('A' for Active; 'I' for Inactive)
REMARK    1  A    between atoms: C_1  and  C_2
REMARK    2  A    between atoms: C_5  and  O_6
REMARK    3  A    between atoms: O_6  and  C_7
REMARK    4  A    between atoms: C_7  and  C_8
REMARK    5  A    between atoms: C_18  and  N_19
REMARK    6  A    between atoms: N_19  and  C_20
REMARK    7  A    between atoms: C_21  and  C_23
REMARK                            x       y       z     vdW  Elec       q    Type
REMARK                         _______ _______ _______ _____ _____    ______ ____
ROOT
ATOM      1  C   UNL     1       2.284   9.853  17.830  0.00  0.00    +0.000 C 
ATOM      2  C   UNL     1       2.168   8.569  18.567  0.00  0.00    +0.000 A 
ATOM      3  N   UNL     1       2.605   7.471  17.887  0.00  0.00    +0.000 NA
ATOM      4  C   UNL     1       2.437   6.444  18.667  0.00  0.00    +0.000 A 
ATOM      5  C   UNL     1       2.808   5.076  18.464  0.00  0.00    +0.000 A 
ATOM      6  C   UNL     1       2.500   4.160  19.397  0.00  0.00    +0.000 A 
ATOM      7  C   UNL     1       1.902   4.550  20.654  0.00  0.00    +0.000 A 
ATOM      8  C   UNL     1       1.646   5.852  20.889  0.00  0.00    +0.000 A 
ATOM      9  N   UNL     1       1.853   6.818  19.885  0.00  0.00    +0.000 N 
ATOM     10  C   UNL     1       1.645   8.223  19.820  0.00  0.00    +0.000 A 
ENDROOT
BRANCH  10  11
ATOM     11  N   UNL     1       1.063   9.079  20.817  0.00  0.00    +0.000 N 
ATOM     12  C   UNL     1       1.791   9.374  22.044  0.00  0.00    +0.000 C 
ATOM     13  C   UNL     1      -0.017   9.885  20.460  0.00  0.00    +0.000 C 
ATOM     14  O   UNL     1      -0.419   9.984  19.292  0.00  0.00    +0.000 OA
BRANCH  13  15
ATOM     15  C   UNL     1      -0.713  10.846  21.450  0.00  0.00    +0.000 C 
ATOM     16  C   UNL     1      -0.083  12.241  21.366  0.00  0.00    +0.000 C 
ATOM     17  C   UNL     1      -1.124  13.280  21.776  0.00  0.00    +0.000 C 
ATOM     18  C   UNL     1      -1.671  13.015  23.180  0.00  0.00    +0.000 C 
ATOM     19  C   UNL     1      -2.104  11.560  23.404  0.00  0.00    +0.000 C 
ATOM     20  C   UNL     1      -1.053  10.549  22.913  0.00  0.00    +0.000 C 
ENDBRANCH  13  15
ENDBRANCH  10  11
BRANCH   5  21
ATOM     21  O   UNL     1       3.519   4.699  17.328  0.00  0.00    +0.000 OA
BRANCH  21  22
ATOM     22  C   UNL     1       4.777   4.065  17.587  0.00  0.00    +0.000 C 
BRANCH  22  23
ATOM     23  C   UNL     1       5.839   5.103  17.851  0.00  0.00    +0.000 A 
ATOM     24  C   UNL     1       6.692   4.984  18.955  0.00  0.00    +0.000 A 
ATOM     25  C   UNL     1       7.703   5.920  19.163  0.00  0.00    +0.000 A 
ATOM     26  C   UNL     1       7.866   6.982  18.276  0.00  0.00    +0.000 A 
ATOM     27  C   UNL     1       7.015   7.114  17.179  0.00  0.00    +0.000 A 
ATOM     28  C   UNL     1       6.002   6.181  16.970  0.00  0.00    +0.000 A 
ENDBRANCH  22  23
ENDBRANCH  21  22
ENDBRANCH   5  21
TORSDOF 5
ENDMDL
MODEL 4
REMARK VINA RESULT:      -7.0      4.385      6.747
REMARK  Name = 
REMARK  7 active torsions:
REMARK  status: ('A' for Active; 'I' for Inactive)
REMARK    1  A    between atoms: C_1  and  C_2
REMARK    2  A    between atoms: C_5  and  O_6
REMARK    3  A    between atoms: O_6  and  C_7
REMARK    4  A    between atoms: C_7  and  C_8
REMARK    5  A    between atoms: C_18  and  N_19
REMARK    6  A    between atoms: N_19  and  C_20
REMARK    7  A    between atoms: C_21  and  C_23
REMARK                            x       y       z     vdW  Elec       q    Type
REMARK                         _______ _______ _______ _____ _____    ______ ____
ROOT
ATOM      1  C   UNL     1       1.482   3.773  17.281  0.00  0.00    +0.000 C 
ATOM      2  C   UNL     1       2.811   4.371  17.567  0.00  0.00    +0.000 A 
ATOM      3  N   UNL     1       3.838   3.886  16.813  0.00  0.00    +0.000 NA
ATOM      4  C   UNL     1       4.916   4.511  17.184  0.00  0.00    +0.000 A 
ATOM      5  C   UNL     1       6.244   4.431  16.652  0.00  0.00    +0.000 A 
ATOM      6  C   UNL     1       7.229   5.145  17.220  0.00  0.00    +0.000 A 
ATOM      7  C   UNL     1       6.951   6.080  18.287  0.00  0.00    +0.000 A 
ATOM      8  C   UNL     1       5.684   6.233  18.719  0.00  0.00    +0.000 A 
ATOM      9  N   UNL     1       4.651   5.415  18.221  0.00  0.00    +0.000 N 
ATOM     10  C   UNL     1       3.261   5.312  18.502  0.00  0.00    +0.000 A 
ENDROOT
BRANCH  10  11
ATOM     11  N   UNL     1       2.503   6.027  19.492  0.00  0.00    +0.000 N 
ATOM     12  C   UNL     1       2.358   5.484  20.836  0.00  0.00    +0.000 C 
ATOM     13  C   UNL     1       2.214   7.373  19.271  0.00  0.00    +0.000 C 
ATOM     14  O   UNL     1       2.683   8.009  18.316  0.00  0.00    +0.000 OA
BRANCH  13  15
ATOM     15  C   UNL     1       1.414   8.237  20.272  0.00  0.00    +0.000 C 
ATOM     16  C   UNL     1       0.925   9.520  19.591  0.00  0.00    +0.000 C 
ATOM     17  C   UNL     1      -0.346   9.998  20.290  0.00  0.00    +0.000 C 
ATOM     18  C   UNL     1      -0.121  10.229  21.786  0.00  0.00    +0.000 C 
ATOM     19  C   UNL     1       0.587   9.061  22.486  0.00  0.00    +0.000 C 
ATOM     20  C   UNL     1       1.821   8.569  21.710  0.00  0.00    +0.000 C 
ENDBRANCH  13  15
ENDBRANCH  10  11
BRANCH   5  21
ATOM     21  O   UNL     1       6.508   3.651  15.530  0.00  0.00    +0.000 OA
BRANCH  21  22
ATOM     22  C   UNL     1       6.769   4.390  14.331  0.00  0.00    +0.000 C 
BRANCH  22  23
ATOM     23  C   UNL     1       6.121   3.713  13.150  0.00  0.00    +0.000 A 
ATOM     24  C   UNL     1       6.827   2.768  12.395  0.00  0.00    +0.000 A 
ATOM     25  C   UNL     1       6.204   2.110  11.336  0.00  0.00    +0.000 A 
ATOM     26  C   UNL     1       4.877   2.395  11.021  0.00  0.00    +0.000 A 
ATOM     27  C   UNL     1       4.169   3.342  11.761  0.00  0.00    +0.000 A 
ATOM     28  C   UNL     1       4.790   4.002  12.818  0.00  0.00    +0.000 A 
ENDBRANCH  22  23
ENDBRANCH  21  22
ENDBRANCH   5  21
TORSDOF 5
ENDMDL
MODEL 5
REMARK VINA RESULT:      -7.0      1.208      1.654
REMARK  Name = 
REMARK  7 active torsions:
REMARK  status: ('A' for Active; 'I' for Inactive)
REMARK    1  A    between atoms: C_1  and  C_2
REMARK    2  A    between atoms: C_5  and  O_6
REMARK    3  A    between atoms: O_6  and  C_7
REMARK    4  A    between atoms: C_7  and  C_8
REMARK    5  A    between atoms: C_18  and  N_19
REMARK    6  A    between atoms: N_19  and  C_20
REMARK    7  A    between atoms: C_21  and  C_23
REMARK                            x       y       z     vdW  Elec       q    Type
REMARK                         _______ _______ _______ _____ _____    ______ ____
ROOT
ATOM      1  C   UNL     1      -0.819  10.666  23.084  0.00  0.00    +0.000 C 
ATOM      2  C   UNL     1      -0.142  10.451  21.780  0.00  0.00    +0.000 A 
ATOM      3  N   UNL     1       0.482   9.246  21.644  0.00  0.00    +0.000 NA
ATOM      4  C   UNL     1       1.015   9.221  20.458  0.00  0.00    +0.000 A 
ATOM      5  C   UNL     1       1.707   8.157  19.794  0.00  0.00    +0.000 A 
ATOM      6  C   UNL     1       2.216   8.363  18.567  0.00  0.00    +0.000 A 
ATOM      7  C   UNL     1       1.978   9.601  17.860  0.00  0.00    +0.000 A 
ATOM      8  C   UNL     1       1.238  10.563  18.443  0.00  0.00    +0.000 A 
ATOM      9  N   UNL     1       0.789  10.421  19.771  0.00  0.00    +0.000 N 
ATOM     10  C   UNL     1       0.045  11.256  20.649  0.00  0.00    +0.000 A 
ENDROOT
BRANCH  10  11
ATOM     11  N   UNL     1      -0.423  12.594  20.413  0.00  0.00    +0.000 N 
ATOM     12  C   UNL     1      -1.809  12.828  20.029  0.00  0.00    +0.000 C 
ATOM     13  C   UNL     1       0.340  13.662  20.883  0.00  0.00    +0.000 C 
ATOM     14  O   UNL     1       1.339  13.506  21.598  0.00  0.00    +0.000 OA
BRANCH  13  15
ATOM     15  C   UNL     1      -0.073  15.140  20.690  0.00  0.00    +0.000 C 
ATOM     16  C   UNL     1      -1.017  15.577  21.815  0.00  0.00    +0.000 C 
ATOM     17  C   UNL     1      -0.880  17.083  22.020  0.00  0.00    +0.000 C 
ATOM     18  C   UNL     1      -1.170  17.862  20.735  0.00  0.00    +0.000 C 
ATOM     19  C   UNL     1      -0.426  17.317  19.508  0.00  0.00    +0.000 C 
ATOM     20  C   UNL     1      -0.536  15.788  19.382  0.00  0.00    +0.000 C 
ENDBRANCH  13  15
ENDBRANCH  10  11
BRANCH   5  21
ATOM     21  O   UNL     1       1.820   6.906  20.393  0.00  0.00    +0.000 OA
BRANCH  21  22
ATOM     22  C   UNL     1       2.822   6.054  19.826  0.00  0.00    +0.000 C 
BRANCH  22  23
ATOM     23  C   UNL     1       2.216   4.733  19.425  0.00  0.00    +0.000 A 
ATOM     24  C   UNL     1       2.389   4.235  18.128  0.00  0.00    +0.000 A 
ATOM     25  C   UNL     1       1.869   2.989  17.780  0.00  0.00    +0.000 A 
ATOM     26  C   UNL     1       1.170   2.237  18.722  0.00  0.00    +0.000 A 
ATOM     27  C   UNL     1       0.984   2.730  20.014  0.00  0.00    +0.000 A 
ATOM     28  C   UNL     1       1.501   3.975  20.362  0.00  0.00    +0.000 A 
ENDBRANCH  22  23
ENDBRANCH  21  22
ENDBRANCH   5  21
TORSDOF 5
ENDMDL
MODEL 6
REMARK VINA RESULT:      -6.9      1.327      1.844
REMARK  Name = 
REMARK  7 active torsions:
REMARK  status: ('A' for Active; 'I' for Inactive)
REMARK    1  A    between atoms: C_1  and  C_2
REMARK    2  A    between atoms: C_5  and  O_6
REMARK    3  A    between atoms: O_6  and  C_7
REMARK    4  A    between atoms: C_7  and  C_8
REMARK    5  A    between atoms: C_18  and  N_19
REMARK    6  A    between atoms: N_19  and  C_20
REMARK    7  A    between atoms: C_21  and  C_23
REMARK                            x       y       z     vdW  Elec       q    Type
REMARK                         _______ _______ _______ _____ _____    ______ ____
ROOT
ATOM      1  C   UNL     1      -0.862  11.119  22.884  0.00  0.00    +0.000 C 
ATOM      2  C   UNL     1      -0.162  10.758  21.625  0.00  0.00    +0.000 A 
ATOM      3  N   UNL     1       0.388   9.510  21.607  0.00  0.00    +0.000 NA
ATOM      4  C   UNL     1       0.953   9.357  20.446  0.00  0.00    +0.000 A 
ATOM      5  C   UNL     1       1.597   8.203  19.893  0.00  0.00    +0.000 A 
ATOM      6  C   UNL     1       2.153   8.276  18.672  0.00  0.00    +0.000 A 
ATOM      7  C   UNL     1       2.015   9.465  17.862  0.00  0.00    +0.000 A 
ATOM      8  C   UNL     1       1.321  10.515  18.340  0.00  0.00    +0.000 A 
ATOM      9  N   UNL     1       0.825  10.509  19.659  0.00  0.00    +0.000 N 
ATOM     10  C   UNL     1       0.109  11.456  20.442  0.00  0.00    +0.000 A 
ENDROOT
BRANCH  10  11
ATOM     11  N   UNL     1      -0.266  12.796  20.084  0.00  0.00    +0.000 N 
ATOM     12  C   UNL     1      -1.662  13.121  19.821  0.00  0.00    +0.000 C 
ATOM     13  C   UNL     1       0.636  13.831  20.328  0.00  0.00    +0.000 C 
ATOM     14  O   UNL     1       1.695  13.662  20.948  0.00  0.00    +0.000 OA
BRANCH  13  15
ATOM     15  C   UNL     1       0.332  15.309  19.989  0.00  0.00    +0.000 C 
ATOM     16  C   UNL     1      -0.327  16.002  21.187  0.00  0.00    +0.000 C 
ATOM     17  C   UNL     1      -0.012  17.495  21.129  0.00  0.00    +0.000 C 
ATOM     18  C   UNL     1      -0.476  18.125  19.815  0.00  0.00    +0.000 C 
ATOM     19  C   UNL     1      -0.043  17.337  18.571  0.00  0.00    +0.000 C 
ATOM     20  C   UNL     1      -0.316  15.828  18.703  0.00  0.00    +0.000 C 
ENDBRANCH  13  15
ENDBRANCH  10  11
BRANCH   5  21
ATOM     21  O   UNL     1       1.612   7.000  20.593  0.00  0.00    +0.000 OA
BRANCH  21  22
ATOM     22  C   UNL     1       2.655   6.095  20.214  0.00  0.00    +0.000 C 
BRANCH  22  23
ATOM     23  C   UNL     1       2.066   4.800  19.714  0.00  0.00    +0.000 A 
ATOM     24  C   UNL     1       1.394   3.938  20.590  0.00  0.00    +0.000 A 
ATOM     25  C   UNL     1       0.809   2.768  20.110  0.00  0.00    +0.000 A 
ATOM     26  C   UNL     1       0.895   2.449  18.756  0.00  0.00    +0.000 A 
ATOM     27  C   UNL     1       1.570   3.296  17.878  0.00  0.00    +0.000 A 
ATOM     28  C   UNL     1       2.158   4.465  18.356  0.00  0.00    +0.000 A 
ENDBRANCH  22  23
ENDBRANCH  21  22
ENDBRANCH   5  21
TORSDOF 5
ENDMDL
MODEL 7
REMARK VINA RESULT:      -6.9      1.602      2.306
REMARK  Name = 
REMARK  7 active torsions:
REMARK  status: ('A' for Active; 'I' for Inactive)
REMARK    1  A    between atoms: C_1  and  C_2
REMARK    2  A    between atoms: C_5  and  O_6
REMARK    3  A    between atoms: O_6  and  C_7
REMARK    4  A    between atoms: C_7  and  C_8
REMARK    5  A    between atoms: C_18  and  N_19
REMARK    6  A    between atoms: N_19  and  C_20
REMARK    7  A    between atoms: C_21  and  C_23
REMARK                            x       y       z     vdW  Elec       q    Type
REMARK                         _______ _______ _______ _____ _____    ______ ____
ROOT
ATOM      1  C   UNL     1      -0.232   9.485  23.352  0.00  0.00    +0.000 C 
ATOM      2  C   UNL     1       0.277   9.686  21.972  0.00  0.00    +0.000 A 
ATOM      3  N   UNL     1       0.947   8.623  21.442  0.00  0.00    +0.000 NA
ATOM      4  C   UNL     1       1.318   8.962  20.243  0.00  0.00    +0.000 A 
ATOM      5  C   UNL     1       1.978   8.182  19.239  0.00  0.00    +0.000 A 
ATOM      6  C   UNL     1       2.306   8.750  18.067  0.00  0.00    +0.000 A 
ATOM      7  C   UNL     1       1.903  10.104  17.758  0.00  0.00    +0.000 A 
ATOM      8  C   UNL     1       1.192  10.805  18.661  0.00  0.00    +0.000 A 
ATOM      9  N   UNL     1       0.933  10.275  19.941  0.00  0.00    +0.000 N 
ATOM     10  C   UNL     1       0.263  10.775  21.091  0.00  0.00    +0.000 A 
ENDROOT
BRANCH  10  11
ATOM     11  N   UNL     1      -0.310  12.079  21.284  0.00  0.00    +0.000 N 
ATOM     12  C   UNL     1       0.528  13.191  21.713  0.00  0.00    +0.000 C 
ATOM     13  C   UNL     1      -1.563  12.347  20.734  0.00  0.00    +0.000 C 
ATOM     14  O   UNL     1      -2.149  11.551  19.987  0.00  0.00    +0.000 OA
BRANCH  13  15
ATOM     15  C   UNL     1      -2.268  13.716  20.875  0.00  0.00    +0.000 C 
ATOM     16  C   UNL     1      -3.779  13.555  20.681  0.00  0.00    +0.000 C 
ATOM     17  C   UNL     1      -4.498  14.662  21.448  0.00  0.00    +0.000 C 
ATOM     18  C   UNL     1      -4.038  16.053  21.006  0.00  0.00    +0.000 C 
ATOM     19  C   UNL     1      -2.512  16.205  20.953  0.00  0.00    +0.000 C 
ATOM     20  C   UNL     1      -1.827  15.032  20.230  0.00  0.00    +0.000 C 
ENDBRANCH  13  15
ENDBRANCH  10  11
BRANCH   5  21
ATOM     21  O   UNL     1       2.243   6.833  19.456  0.00  0.00    +0.000 OA
BRANCH  21  22
ATOM     22  C   UNL     1       2.478   6.066  18.270  0.00  0.00    +0.000 C 
BRANCH  22  23
ATOM     23  C   UNL     1       2.104   4.623  18.500  0.00  0.00    +0.000 A 
ATOM     24  C   UNL     1       2.604   3.616  17.665  0.00  0.00    +0.000 A 
ATOM     25  C   UNL     1       2.293   2.281  17.915  0.00  0.00    +0.000 A 
ATOM     26  C   UNL     1       1.479   1.943  18.994  0.00  0.00    +0.000 A 
ATOM     27  C   UNL     1       0.968   2.940  19.825  0.00  0.00    +0.000 A 
ATOM     28  C   UNL     1       1.275   4.275  19.576  0.00  0.00    +0.000 A 
ENDBRANCH  22  23
ENDBRANCH  21  22
ENDBRANCH   5  21
TORSDOF 5
ENDMDL
MODEL 8
REMARK VINA RESULT:      -6.8      1.803      2.076
REMARK  Name = 
REMARK  7 active torsions:
REMARK  status: ('A' for Active; 'I' for Inactive)
REMARK    1  A    between atoms: C_1  and  C_2
REMARK    2  A    between atoms: C_5  and  O_6
REMARK    3  A    between atoms: O_6  and  C_7
REMARK    4  A    between atoms: C_7  and  C_8
REMARK    5  A    between atoms: C_18  and  N_19
REMARK    6  A    between atoms: N_19  and  C_20
REMARK    7  A    between atoms: C_21  and  C_23
REMARK                            x       y       z     vdW  Elec       q    Type
REMARK                         _______ _______ _______ _____ _____    ______ ____
ROOT
ATOM      1  C   UNL     1      -0.288   9.192  22.581  0.00  0.00    +0.000 C 
ATOM      2  C   UNL     1       0.403   9.144  21.267  0.00  0.00    +0.000 A 
ATOM      3  N   UNL     1       1.222   8.069  21.084  0.00  0.00    +0.000 NA
ATOM      4  C   UNL     1       1.739   8.179  19.896  0.00  0.00    +0.000 A 
ATOM      5  C   UNL     1       2.596   7.275  19.189  0.00  0.00    +0.000 A 
ATOM      6  C   UNL     1       3.051   7.610  17.970  0.00  0.00    +0.000 A 
ATOM      7  C   UNL     1       2.599   8.815  17.312  0.00  0.00    +0.000 A 
ATOM      8  C   UNL     1       1.711   9.615  17.933  0.00  0.00    +0.000 A 
ATOM      9  N   UNL     1       1.306   9.349  19.256  0.00  0.00    +0.000 N 
ATOM     10  C   UNL     1       0.439  10.011  20.168  0.00  0.00    +0.000 A 
ENDROOT
BRANCH  10  11
ATOM     11  N   UNL     1      -0.252  11.258  19.984  0.00  0.00    +0.000 N 
ATOM     12  C   UNL     1      -1.655  11.266  19.592  0.00  0.00    +0.000 C 
ATOM     13  C   UNL     1       0.311  12.419  20.512  0.00  0.00    +0.000 C 
ATOM     14  O   UNL     1       1.319  12.405  21.233  0.00  0.00    +0.000 OA
BRANCH  13  15
ATOM     15  C   UNL     1      -0.350  13.810  20.379  0.00  0.00    +0.000 C 
ATOM     16  C   UNL     1       0.463  14.693  19.426  0.00  0.00    +0.000 C 
ATOM     17  C   UNL     1      -0.469  15.720  18.787  0.00  0.00    +0.000 C 
ATOM     18  C   UNL     1      -1.186  16.571  19.837  0.00  0.00    +0.000 C 
ATOM     19  C   UNL     1      -1.827  15.745  20.960  0.00  0.00    +0.000 C 
ATOM     20  C   UNL     1      -0.874  14.677  21.526  0.00  0.00    +0.000 C 
ENDBRANCH  13  15
ENDBRANCH  10  11
BRANCH   5  21
ATOM     21  O   UNL     1       2.926   6.040  19.739  0.00  0.00    +0.000 OA
BRANCH  21  22
ATOM     22  C   UNL     1       3.055   4.973  18.793  0.00  0.00    +0.000 C 
BRANCH  22  23
ATOM     23  C   UNL     1       4.472   4.897  18.283  0.00  0.00    +0.000 A 
ATOM     24  C   UNL     1       5.546   5.243  19.111  0.00  0.00    +0.000 A 
ATOM     25  C   UNL     1       6.855   5.121  18.648  0.00  0.00    +0.000 A 
ATOM     26  C   UNL     1       7.099   4.660  17.355  0.00  0.00    +0.000 A 
ATOM     27  C   UNL     1       6.034   4.323  16.520  0.00  0.00    +0.000 A 
ATOM     28  C   UNL     1       4.725   4.446  16.980  0.00  0.00    +0.000 A 
ENDBRANCH  22  23
ENDBRANCH  21  22
ENDBRANCH   5  21
TORSDOF 5
ENDMDL
MODEL 9
REMARK VINA RESULT:      -6.8      1.918      2.508
REMARK  Name = 
REMARK  7 active torsions:
REMARK  status: ('A' for Active; 'I' for Inactive)
REMARK    1  A    between atoms: C_1  and  C_2
REMARK    2  A    between atoms: C_5  and  O_6
REMARK    3  A    between atoms: O_6  and  C_7
REMARK    4  A    between atoms: C_7  and  C_8
REMARK    5  A    between atoms: C_18  and  N_19
REMARK    6  A    between atoms: N_19  and  C_20
REMARK    7  A    between atoms: C_21  and  C_23
REMARK                            x       y       z     vdW  Elec       q    Type
REMARK                         _______ _______ _______ _____ _____    ______ ____
ROOT
ATOM      1  C   UNL     1       0.220   9.429  23.515  0.00  0.00    +0.000 C 
ATOM      2  C   UNL     1       0.547   9.532  22.070  0.00  0.00    +0.000 A 
ATOM      3  N   UNL     1       1.232   8.471  21.555  0.00  0.00    +0.000 NA
ATOM      4  C   UNL     1       1.432   8.719  20.294  0.00  0.00    +0.000 A 
ATOM      5  C   UNL     1       2.029   7.892  19.288  0.00  0.00    +0.000 A 
ATOM      6  C   UNL     1       2.172   8.368  18.040  0.00  0.00    +0.000 A 
ATOM      7  C   UNL     1       1.631   9.656  17.667  0.00  0.00    +0.000 A 
ATOM      8  C   UNL     1       0.978  10.390  18.588  0.00  0.00    +0.000 A 
ATOM      9  N   UNL     1       0.913   9.968  19.930  0.00  0.00    +0.000 N 
ATOM     10  C   UNL     1       0.346  10.529  21.108  0.00  0.00    +0.000 A 
ENDROOT
BRANCH  10  11
ATOM     11  N   UNL     1      -0.301  11.804  21.257  0.00  0.00    +0.000 N 
ATOM     12  C   UNL     1      -1.681  11.875  21.719  0.00  0.00    +0.000 C 
ATOM     13  C   UNL     1       0.487  12.954  21.297  0.00  0.00    +0.000 C 
ATOM     14  O   UNL     1       1.725  12.914  21.329  0.00  0.00    +0.000 OA
BRANCH  13  15
ATOM     15  C   UNL     1      -0.104  14.373  21.462  0.00  0.00    +0.000 C 
ATOM     16  C   UNL     1       0.502  15.322  20.422  0.00  0.00    +0.000 C 
ATOM     17  C   UNL     1      -0.496  16.441  20.133  0.00  0.00    +0.000 C 
ATOM     18  C   UNL     1      -0.882  17.202  21.403  0.00  0.00    +0.000 C 
ATOM     19  C   UNL     1      -1.277  16.286  22.569  0.00  0.00    +0.000 C 
ATOM     20  C   UNL     1      -0.279  15.134  22.779  0.00  0.00    +0.000 C 
ENDBRANCH  13  15
ENDBRANCH  10  11
BRANCH   5  21
ATOM     21  O   UNL     1       2.422   6.591  19.586  0.00  0.00    +0.000 OA
BRANCH  21  22
ATOM     22  C   UNL     1       2.861   5.821  18.461  0.00  0.00    +0.000 C 
BRANCH  22  23
ATOM     23  C   UNL     1       4.360   5.902  18.327  0.00  0.00    +0.000 A 
ATOM     24  C   UNL     1       5.194   5.355  19.311  0.00  0.00    +0.000 A 
ATOM     25  C   UNL     1       6.578   5.389  19.154  0.00  0.00    +0.000 A 
ATOM     26  C   UNL     1       7.139   5.974  18.020  0.00  0.00    +0.000 A 
ATOM     27  C   UNL     1       6.317   6.530  17.040  0.00  0.00    +0.000 A 
ATOM     28  C   UNL     1       4.933   6.499  17.195  0.00  0.00    +0.000 A 
ENDBRANCH  22  23
ENDBRANCH  21  22
ENDBRANCH   5  21
TORSDOF 5
ENDMDL
