MODEL 1
REMARK VINA RESULT:      -7.3      0.000      0.000
REMARK  Name = 
REMARK  12 active torsions:
REMARK  status: ('A' for Active; 'I' for Inactive)
REMARK    1  A    between atoms: C_1  and  C_2
REMARK    2  A    between atoms: C_2  and  N_3
REMARK    3  A    between atoms: N_3  and  C_4
REMARK    4  A    between atoms: N_3  and  S_22
REMARK    5  A    between atoms: C_4  and  C_5
REMARK    6  A    between atoms: C_7  and  C_8
REMARK    7  A    between atoms: C_7  and  C_10
REMARK    8  A    between atoms: C_8  and  C_9
REMARK    9  A    between atoms: C_10  and  O_12
REMARK   10  A    between atoms: O_12  and  C_13
REMARK   11  A    between atoms: N_17  and  C_18
REMARK   12  A    between atoms: S_22  and  C_25
REMARK                            x       y       z     vdW  Elec       q    Type
REMARK                         _______ _______ _______ _____ _____    ______ ____
ROOT
ATOM      1  C   UNL     1       2.613   6.560  19.531  0.00  0.00    +0.000 C 
ATOM      2  N   UNL     1       3.973   6.040  19.800  0.00  0.00    +0.000 NA
ATOM      3  C   UNL     1       4.432   5.516  18.451  0.00  0.00    +0.000 C 
ATOM      4  C   UNL     1       3.142   4.978  17.793  0.00  0.00    +0.000 C 
ATOM      5  C   UNL     1       2.901   3.490  17.761  0.00  0.00    +0.000 C 
ATOM      6  O   UNL     1       3.400   2.731  16.945  0.00  0.00    +0.000 OA
ATOM      7  N   UNL     1       2.000   3.164  18.733  0.00  0.00    +0.000 N 
ATOM      8  C   UNL     1       1.429   1.849  18.909  0.00  0.00    +0.000 C 
ATOM      9  C   UNL     1       1.488   4.258  19.370  0.00  0.00    +0.000 C 
ATOM     10  O   UNL     1       0.671   4.248  20.276  0.00  0.00    +0.000 OA
ATOM     11  C   UNL     1       1.996   5.485  18.665  0.00  0.00    +0.000 C 
ATOM     12  H   UNL     1       3.950   5.262  20.471  0.00  0.00    +0.000 HD
ENDROOT
BRANCH   3  13
ATOM     13  C   UNL     1       4.991   6.710  17.606  0.00  0.00    +0.000 C 
ATOM     14  C   UNL     1       4.737   6.635  16.104  0.00  0.00    +0.000 C 
ENDBRANCH   3  13
BRANCH   3  15
ATOM     15  C   UNL     1       5.521   4.427  18.576  0.00  0.00    +0.000 C 
ATOM     16  O   UNL     1       5.624   3.638  19.505  0.00  0.00    +0.000 OA
BRANCH  15  17
ATOM     17  O   UNL     1       6.323   4.456  17.472  0.00  0.00    +0.000 OA
ATOM     18  C   UNL     1       7.727   4.559  17.714  0.00  0.00    +0.000 C 
ENDBRANCH  15  17
ENDBRANCH   3  15
BRANCH   1  19
ATOM     19  C   UNL     1       1.704   7.140  20.634  0.00  0.00    +0.000 C 
BRANCH  19  20
ATOM     20  N   UNL     1       1.014   8.426  20.174  0.00  0.00    +0.000 NA
BRANCH  20  21
ATOM     21  S   UNL     1       0.588   9.405  21.578  0.00  0.00    +0.000 S 
ATOM     22  O   UNL     1      -0.610   8.868  22.185  0.00  0.00    +0.000 OA
ATOM     23  O   UNL     1       1.800   9.583  22.356  0.00  0.00    +0.000 OA
BRANCH  21  24
ATOM     24  C   UNL     1       0.134  10.976  20.884  0.00  0.00    +0.000 A 
ATOM     25  C   UNL     1       1.054  12.028  20.942  0.00  0.00    +0.000 A 
ATOM     26  C   UNL     1       0.762  13.238  20.299  0.00  0.00    +0.000 A 
ATOM     27  C   UNL     1      -0.433  13.378  19.599  0.00  0.00    +0.000 A 
ATOM     28  F   UNL     1      -0.698  14.526  18.965  0.00  0.00    +0.000 F 
ATOM     29  C   UNL     1      -1.352  12.334  19.540  0.00  0.00    +0.000 A 
ATOM     30  C   UNL     1      -1.074  11.121  20.185  0.00  0.00    +0.000 A 
ENDBRANCH  21  24
ENDBRANCH  20  21
BRANCH  20  32
ATOM     31  C   UNL     1       1.187   9.350  17.769  0.00  0.00    +0.000 C 
ATOM     32  C   UNL     1       1.769   9.277  19.173  0.00  0.00    +0.000 C 
ENDBRANCH  20  32
ENDBRANCH  19  20
ENDBRANCH   1  19
TORSDOF 8
ENDMDL
MODEL 2
REMARK VINA RESULT:      -7.0      0.673      1.082
REMARK  Name = 
REMARK  12 active torsions:
REMARK  status: ('A' for Active; 'I' for Inactive)
REMARK    1  A    between atoms: C_1  and  C_2
REMARK    2  A    between atoms: C_2  and  N_3
REMARK    3  A    between atoms: N_3  and  C_4
REMARK    4  A    between atoms: N_3  and  S_22
REMARK    5  A    between atoms: C_4  and  C_5
REMARK    6  A    between atoms: C_7  and  C_8
REMARK    7  A    between atoms: C_7  and  C_10
REMARK    8  A    between atoms: C_8  and  C_9
REMARK    9  A    between atoms: C_10  and  O_12
REMARK   10  A    between atoms: O_12  and  C_13
REMARK   11  A    between atoms: N_17  and  C_18
REMARK   12  A    between atoms: S_22  and  C_25
REMARK                            x       y       z     vdW  Elec       q    Type
REMARK                         _______ _______ _______ _____ _____    ______ ____
ROOT
ATOM      1  C   UNL     1       2.617   6.614  19.442  0.00  0.00    +0.000 C 
ATOM      2  N   UNL     1       3.932   5.936  19.510  0.00  0.00    +0.000 NA
ATOM      3  C   UNL     1       4.116   5.366  18.115  0.00  0.00    +0.000 C 
ATOM      4  C   UNL     1       2.686   4.987  17.667  0.00  0.00    +0.000 C 
ATOM      5  C   UNL     1       2.271   3.537  17.694  0.00  0.00    +0.000 C 
ATOM      6  O   UNL     1       2.547   2.728  16.823  0.00  0.00    +0.000 OA
ATOM      7  N   UNL     1       1.496   3.317  18.796  0.00  0.00    +0.000 N 
ATOM      8  C   UNL     1       0.808   2.078  19.076  0.00  0.00    +0.000 C 
ATOM      9  C   UNL     1       1.219   4.462  19.487  0.00  0.00    +0.000 C 
ATOM     10  O   UNL     1       0.554   4.545  20.507  0.00  0.00    +0.000 OA
ATOM     11  C   UNL     1       1.754   5.622  18.695  0.00  0.00    +0.000 C 
ATOM     12  H   UNL     1       3.921   5.164  20.188  0.00  0.00    +0.000 HD
ENDROOT
BRANCH   3  13
ATOM     13  C   UNL     1       4.676   6.489  17.178  0.00  0.00    +0.000 C 
ATOM     14  C   UNL     1       6.123   6.902  17.431  0.00  0.00    +0.000 C 
ENDBRANCH   3  13
BRANCH   3  15
ATOM     15  C   UNL     1       5.076   4.155  18.089  0.00  0.00    +0.000 C 
ATOM     16  O   UNL     1       5.568   3.670  17.080  0.00  0.00    +0.000 OA
BRANCH  15  17
ATOM     17  O   UNL     1       5.319   3.739  19.366  0.00  0.00    +0.000 OA
ATOM     18  C   UNL     1       4.715   2.504  19.752  0.00  0.00    +0.000 C 
ENDBRANCH  15  17
ENDBRANCH   3  15
BRANCH   1  19
ATOM     19  C   UNL     1       1.961   7.293  20.661  0.00  0.00    +0.000 C 
BRANCH  19  20
ATOM     20  N   UNL     1       1.081   8.472  20.241  0.00  0.00    +0.000 NA
BRANCH  20  21
ATOM     21  S   UNL     1       0.622   9.408  21.664  0.00  0.00    +0.000 S 
ATOM     22  O   UNL     1      -0.568   8.830  22.248  0.00  0.00    +0.000 OA
ATOM     23  O   UNL     1       1.823   9.593  22.456  0.00  0.00    +0.000 OA
BRANCH  21  24
ATOM     24  C   UNL     1       0.139  10.985  21.004  0.00  0.00    +0.000 A 
ATOM     25  C   UNL     1       1.076  12.024  20.991  0.00  0.00    +0.000 A 
ATOM     26  C   UNL     1       0.755  13.238  20.370  0.00  0.00    +0.000 A 
ATOM     27  C   UNL     1      -0.488  13.395  19.762  0.00  0.00    +0.000 A 
ATOM     28  F   UNL     1      -0.783  14.546  19.148  0.00  0.00    +0.000 F 
ATOM     29  C   UNL     1      -1.423  12.364  19.774  0.00  0.00    +0.000 A 
ATOM     30  C   UNL     1      -1.115  11.147  20.397  0.00  0.00    +0.000 A 
ENDBRANCH  21  24
ENDBRANCH  20  21
BRANCH  20  32
ATOM     31  C   UNL     1       0.970   9.382  17.826  0.00  0.00    +0.000 C 
ATOM     32  C   UNL     1       1.651   9.400  19.187  0.00  0.00    +0.000 C 
ENDBRANCH  20  32
ENDBRANCH  19  20
ENDBRANCH   1  19
TORSDOF 8
ENDMDL
MODEL 3
REMARK VINA RESULT:      -7.0      1.161      1.440
REMARK  Name = 
REMARK  12 active torsions:
REMARK  status: ('A' for Active; 'I' for Inactive)
REMARK    1  A    between atoms: C_1  and  C_2
REMARK    2  A    between atoms: C_2  and  N_3
REMARK    3  A    between atoms: N_3  and  C_4
REMARK    4  A    between atoms: N_3  and  S_22
REMARK    5  A    between atoms: C_4  and  C_5
REMARK    6  A    between atoms: C_7  and  C_8
REMARK    7  A    between atoms: C_7  and  C_10
REMARK    8  A    between atoms: C_8  and  C_9
REMARK    9  A    between atoms: C_10  and  O_12
REMARK   10  A    between atoms: O_12  and  C_13
REMARK   11  A    between atoms: N_17  and  C_18
REMARK   12  A    between atoms: S_22  and  C_25
REMARK                            x       y       z     vdW  Elec       q    Type
REMARK                         _______ _______ _______ _____ _____    ______ ____
ROOT
ATOM      1  C   UNL     1       2.708   6.727  19.341  0.00  0.00    +0.000 C 
ATOM      2  N   UNL     1       4.053   6.204  19.670  0.00  0.00    +0.000 NA
ATOM      3  C   UNL     1       4.522   5.573  18.371  0.00  0.00    +0.000 C 
ATOM      4  C   UNL     1       3.231   5.011  17.734  0.00  0.00    +0.000 C 
ATOM      5  C   UNL     1       2.963   3.529  17.808  0.00  0.00    +0.000 C 
ATOM      6  O   UNL     1       3.459   2.703  17.059  0.00  0.00    +0.000 OA
ATOM      7  N   UNL     1       2.042   3.292  18.787  0.00  0.00    +0.000 N 
ATOM      8  C   UNL     1       1.444   2.005  19.051  0.00  0.00    +0.000 C 
ATOM      9  C   UNL     1       1.542   4.440  19.333  0.00  0.00    +0.000 C 
ATOM     10  O   UNL     1       0.712   4.512  20.225  0.00  0.00    +0.000 OA
ATOM     11  C   UNL     1       2.083   5.601  18.547  0.00  0.00    +0.000 C 
ATOM     12  H   UNL     1       4.007   5.479  20.396  0.00  0.00    +0.000 HD
ENDROOT
BRANCH   3  13
ATOM     13  C   UNL     1       5.116   6.691  17.449  0.00  0.00    +0.000 C 
ATOM     14  C   UNL     1       4.832   6.540  15.957  0.00  0.00    +0.000 C 
ENDBRANCH   3  13
BRANCH   3  15
ATOM     15  C   UNL     1       5.589   4.477  18.593  0.00  0.00    +0.000 C 
ATOM     16  O   UNL     1       5.659   3.753  19.576  0.00  0.00    +0.000 OA
BRANCH  15  17
ATOM     17  O   UNL     1       6.412   4.416  17.506  0.00  0.00    +0.000 OA
ATOM     18  C   UNL     1       7.811   4.539  17.768  0.00  0.00    +0.000 C 
ENDBRANCH  15  17
ENDBRANCH   3  15
BRANCH   1  19
ATOM     19  C   UNL     1       1.795   7.403  20.384  0.00  0.00    +0.000 C 
BRANCH  19  20
ATOM     20  N   UNL     1       1.139   8.666  19.821  0.00  0.00    +0.000 NA
BRANCH  20  21
ATOM     21  S   UNL     1       0.308   9.530  21.114  0.00  0.00    +0.000 S 
ATOM     22  O   UNL     1      -0.441   8.585  21.912  0.00  0.00    +0.000 OA
ATOM     23  O   UNL     1       1.280  10.415  21.728  0.00  0.00    +0.000 OA
BRANCH  21  24
ATOM     24  C   UNL     1      -0.892  10.526  20.262  0.00  0.00    +0.000 A 
ATOM     25  C   UNL     1      -1.367  10.092  19.020  0.00  0.00    +0.000 A 
ATOM     26  C   UNL     1      -2.397  10.800  18.387  0.00  0.00    +0.000 A 
ATOM     27  C   UNL     1      -2.946  11.920  19.006  0.00  0.00    +0.000 A 
ATOM     28  F   UNL     1      -3.947  12.579  18.410  0.00  0.00    +0.000 F 
ATOM     29  C   UNL     1      -2.476  12.356  20.241  0.00  0.00    +0.000 A 
ATOM     30  C   UNL     1      -1.441  11.659  20.881  0.00  0.00    +0.000 A 
ENDBRANCH  21  24
ENDBRANCH  20  21
BRANCH  20  32
ATOM     31  C   UNL     1       1.984   9.571  17.554  0.00  0.00    +0.000 C 
ATOM     32  C   UNL     1       2.046   9.623  19.074  0.00  0.00    +0.000 C 
ENDBRANCH  20  32
ENDBRANCH  19  20
ENDBRANCH   1  19
TORSDOF 8
ENDMDL
MODEL 4
REMARK VINA RESULT:      -7.0      2.116      3.745
REMARK  Name = 
REMARK  12 active torsions:
REMARK  status: ('A' for Active; 'I' for Inactive)
REMARK    1  A    between atoms: C_1  and  C_2
REMARK    2  A    between atoms: C_2  and  N_3
REMARK    3  A    between atoms: N_3  and  C_4
REMARK    4  A    between atoms: N_3  and  S_22
REMARK    5  A    between atoms: C_4  and  C_5
REMARK    6  A    between atoms: C_7  and  C_8
REMARK    7  A    between atoms: C_7  and  C_10
REMARK    8  A    between atoms: C_8  and  C_9
REMARK    9  A    between atoms: C_10  and  O_12
REMARK   10  A    between atoms: O_12  and  C_13
REMARK   11  A    between atoms: N_17  and  C_18
REMARK   12  A    between atoms: S_22  and  C_25
REMARK                            x       y       z     vdW  Elec       q    Type
REMARK                         _______ _______ _______ _____ _____    ______ ____
ROOT
ATOM      1  C   UNL     1       2.310   6.420  19.186  0.00  0.00    +0.000 C 
ATOM      2  N   UNL     1       1.704   5.252  18.506  0.00  0.00    +0.000 NA
ATOM      3  C   UNL     1       2.148   4.072  19.352  0.00  0.00    +0.000 C 
ATOM      4  C   UNL     1       3.558   4.468  19.847  0.00  0.00    +0.000 C 
ATOM      5  C   UNL     1       4.765   3.848  19.190  0.00  0.00    +0.000 C 
ATOM      6  O   UNL     1       5.198   2.738  19.457  0.00  0.00    +0.000 OA
ATOM      7  N   UNL     1       5.312   4.749  18.323  0.00  0.00    +0.000 N 
ATOM      8  C   UNL     1       6.557   4.552  17.618  0.00  0.00    +0.000 C 
ATOM      9  C   UNL     1       4.704   5.971  18.375  0.00  0.00    +0.000 C 
ATOM     10  O   UNL     1       4.993   6.949  17.705  0.00  0.00    +0.000 OA
ATOM     11  C   UNL     1       3.711   5.947  19.503  0.00  0.00    +0.000 C 
ATOM     12  H   UNL     1       2.074   5.139  17.554  0.00  0.00    +0.000 HD
ENDROOT
BRANCH   3  13
ATOM     13  C   UNL     1       1.183   3.935  20.578  0.00  0.00    +0.000 C 
ATOM     14  C   UNL     1       1.773   3.262  21.813  0.00  0.00    +0.000 C 
ENDBRANCH   3  13
BRANCH   3  15
ATOM     15  C   UNL     1       2.159   2.744  18.562  0.00  0.00    +0.000 C 
ATOM     16  O   UNL     1       2.258   1.631  19.058  0.00  0.00    +0.000 OA
BRANCH  15  17
ATOM     17  O   UNL     1       2.001   3.005  17.231  0.00  0.00    +0.000 OA
ATOM     18  C   UNL     1       3.169   2.877  16.420  0.00  0.00    +0.000 C 
ENDBRANCH  15  17
ENDBRANCH   3  15
BRANCH   1  19
ATOM     19  C   UNL     1       2.192   7.859  18.644  0.00  0.00    +0.000 C 
BRANCH  19  20
ATOM     20  N   UNL     1       1.722   8.830  19.729  0.00  0.00    +0.000 NA
BRANCH  20  21
ATOM     21  S   UNL     1       0.533   9.943  19.055  0.00  0.00    +0.000 S 
ATOM     22  O   UNL     1       0.399   9.694  17.636  0.00  0.00    +0.000 OA
ATOM     23  O   UNL     1      -0.626   9.908  19.927  0.00  0.00    +0.000 OA
BRANCH  21  24
ATOM     24  C   UNL     1       1.300  11.538  19.210  0.00  0.00    +0.000 A 
ATOM     25  C   UNL     1       1.179  12.229  20.421  0.00  0.00    +0.000 A 
ATOM     26  C   UNL     1       1.872  13.431  20.604  0.00  0.00    +0.000 A 
ATOM     27  C   UNL     1       2.684  13.923  19.585  0.00  0.00    +0.000 A 
ATOM     28  F   UNL     1       3.365  15.059  19.773  0.00  0.00    +0.000 F 
ATOM     29  C   UNL     1       2.807  13.240  18.379  0.00  0.00    +0.000 A 
ATOM     30  C   UNL     1       2.113  12.038  18.182  0.00  0.00    +0.000 A 
ENDBRANCH  21  24
ENDBRANCH  20  21
BRANCH  20  32
ATOM     31  C   UNL     1       1.397   8.993  22.286  0.00  0.00    +0.000 C 
ATOM     32  C   UNL     1       1.175   8.212  20.999  0.00  0.00    +0.000 C 
ENDBRANCH  20  32
ENDBRANCH  19  20
ENDBRANCH   1  19
TORSDOF 8
ENDMDL
MODEL 5
REMARK VINA RESULT:      -6.9      2.333      3.935
REMARK  Name = 
REMARK  12 active torsions:
REMARK  status: ('A' for Active; 'I' for Inactive)
REMARK    1  A    between atoms: C_1  and  C_2
REMARK    2  A    between atoms: C_2  and  N_3
REMARK    3  A    between atoms: N_3  and  C_4
REMARK    4  A    between atoms: N_3  and  S_22
REMARK    5  A    between atoms: C_4  and  C_5
REMARK    6  A    between atoms: C_7  and  C_8
REMARK    7  A    between atoms: C_7  and  C_10
REMARK    8  A    between atoms: C_8  and  C_9
REMARK    9  A    between atoms: C_10  and  O_12
REMARK   10  A    between atoms: O_12  and  C_13
REMARK   11  A    between atoms: N_17  and  C_18
REMARK   12  A    between atoms: S_22  and  C_25
REMARK                            x       y       z     vdW  Elec       q    Type
REMARK                         _______ _______ _______ _____ _____    ______ ____
ROOT
ATOM      1  C   UNL     1       2.202   6.700  18.772  0.00  0.00    +0.000 C 
ATOM      2  N   UNL     1       1.730   5.477  18.082  0.00  0.00    +0.000 NA
ATOM      3  C   UNL     1       2.326   4.347  18.903  0.00  0.00    +0.000 C 
ATOM      4  C   UNL     1       3.686   4.904  19.384  0.00  0.00    +0.000 C 
ATOM      5  C   UNL     1       4.949   4.444  18.701  0.00  0.00    +0.000 C 
ATOM      6  O   UNL     1       5.516   3.391  18.943  0.00  0.00    +0.000 OA
ATOM      7  N   UNL     1       5.369   5.416  17.840  0.00  0.00    +0.000 N 
ATOM      8  C   UNL     1       6.617   5.381  17.115  0.00  0.00    +0.000 C 
ATOM      9  C   UNL     1       4.619   6.555  17.920  0.00  0.00    +0.000 C 
ATOM     10  O   UNL     1       4.777   7.570  17.261  0.00  0.00    +0.000 OA
ATOM     11  C   UNL     1       3.654   6.395  19.062  0.00  0.00    +0.000 C 
ATOM     12  H   UNL     1       2.095   5.423  17.124  0.00  0.00    +0.000 HD
ENDROOT
BRANCH   3  13
ATOM     13  C   UNL     1       1.405   4.077  20.140  0.00  0.00    +0.000 C 
ATOM     14  C   UNL     1       2.117   3.968  21.485  0.00  0.00    +0.000 C 
ENDBRANCH   3  13
BRANCH   3  15
ATOM     15  C   UNL     1       2.485   3.042  18.092  0.00  0.00    +0.000 C 
ATOM     16  O   UNL     1       2.533   2.973  16.872  0.00  0.00    +0.000 OA
BRANCH  15  17
ATOM     17  O   UNL     1       2.602   1.985  18.948  0.00  0.00    +0.000 OA
ATOM     18  C   UNL     1       3.610   1.025  18.631  0.00  0.00    +0.000 C 
ENDBRANCH  15  17
ENDBRANCH   3  15
BRANCH   1  19
ATOM     19  C   UNL     1       1.901   8.121  18.254  0.00  0.00    +0.000 C 
BRANCH  19  20
ATOM     20  N   UNL     1       1.711   9.109  19.407  0.00  0.00    +0.000 NA
BRANCH  20  21
ATOM     21  S   UNL     1       1.341  10.708  18.762  0.00  0.00    +0.000 S 
ATOM     22  O   UNL     1       1.573  11.700  19.789  0.00  0.00    +0.000 OA
ATOM     23  O   UNL     1       1.995  10.809  17.471  0.00  0.00    +0.000 OA
BRANCH  21  24
ATOM     24  C   UNL     1      -0.416  10.668  18.496  0.00  0.00    +0.000 A 
ATOM     25  C   UNL     1      -1.225  11.558  19.211  0.00  0.00    +0.000 A 
ATOM     26  C   UNL     1      -2.596  11.624  18.931  0.00  0.00    +0.000 A 
ATOM     27  C   UNL     1      -3.138  10.812  17.938  0.00  0.00    +0.000 A 
ATOM     28  F   UNL     1      -4.443  10.895  17.656  0.00  0.00    +0.000 F 
ATOM     29  C   UNL     1      -2.336   9.924  17.226  0.00  0.00    +0.000 A 
ATOM     30  C   UNL     1      -0.964   9.845  17.501  0.00  0.00    +0.000 A 
ENDBRANCH  21  24
ENDBRANCH  20  21
BRANCH  20  32
ATOM     31  C   UNL     1       1.117   8.867  21.908  0.00  0.00    +0.000 C 
ATOM     32  C   UNL     1       0.684   8.735  20.456  0.00  0.00    +0.000 C 
ENDBRANCH  20  32
ENDBRANCH  19  20
ENDBRANCH   1  19
TORSDOF 8
ENDMDL
MODEL 6
REMARK VINA RESULT:      -6.9      2.085      3.699
REMARK  Name = 
REMARK  12 active torsions:
REMARK  status: ('A' for Active; 'I' for Inactive)
REMARK    1  A    between atoms: C_1  and  C_2
REMARK    2  A    between atoms: C_2  and  N_3
REMARK    3  A    between atoms: N_3  and  C_4
REMARK    4  A    between atoms: N_3  and  S_22
REMARK    5  A    between atoms: C_4  and  C_5
REMARK    6  A    between atoms: C_7  and  C_8
REMARK    7  A    between atoms: C_7  and  C_10
REMARK    8  A    between atoms: C_8  and  C_9
REMARK    9  A    between atoms: C_10  and  O_12
REMARK   10  A    between atoms: O_12  and  C_13
REMARK   11  A    between atoms: N_17  and  C_18
REMARK   12  A    between atoms: S_22  and  C_25
REMARK                            x       y       z     vdW  Elec       q    Type
REMARK                         _______ _______ _______ _____ _____    ______ ____
ROOT
ATOM      1  C   UNL     1       2.321   6.772  18.847  0.00  0.00    +0.000 C 
ATOM      2  N   UNL     1       1.771   5.588  18.148  0.00  0.00    +0.000 NA
ATOM      3  C   UNL     1       2.353   4.414  18.916  0.00  0.00    +0.000 C 
ATOM      4  C   UNL     1       3.753   4.902  19.353  0.00  0.00    +0.000 C 
ATOM      5  C   UNL     1       4.967   4.409  18.607  0.00  0.00    +0.000 C 
ATOM      6  O   UNL     1       5.499   3.328  18.800  0.00  0.00    +0.000 OA
ATOM      7  N   UNL     1       5.392   5.386  17.753  0.00  0.00    +0.000 N 
ATOM      8  C   UNL     1       6.606   5.319  16.975  0.00  0.00    +0.000 C 
ATOM      9  C   UNL     1       4.693   6.552  17.892  0.00  0.00    +0.000 C 
ATOM     10  O   UNL     1       4.867   7.576  17.252  0.00  0.00    +0.000 OA
ATOM     11  C   UNL     1       3.770   6.402  19.069  0.00  0.00    +0.000 C 
ATOM     12  H   UNL     1       2.094   5.544  17.174  0.00  0.00    +0.000 HD
ENDROOT
BRANCH   3  13
ATOM     13  C   UNL     1       1.472   4.150  20.184  0.00  0.00    +0.000 C 
ATOM     14  C   UNL     1       2.232   3.995  21.498  0.00  0.00    +0.000 C 
ENDBRANCH   3  13
BRANCH   3  15
ATOM     15  C   UNL     1       2.424   3.125  18.068  0.00  0.00    +0.000 C 
ATOM     16  O   UNL     1       2.477   3.089  16.846  0.00  0.00    +0.000 OA
BRANCH  15  17
ATOM     17  O   UNL     1       2.457   2.038  18.893  0.00  0.00    +0.000 OA
ATOM     18  C   UNL     1       3.490   1.085  18.639  0.00  0.00    +0.000 C 
ENDBRANCH  15  17
ENDBRANCH   3  15
BRANCH   1  19
ATOM     19  C   UNL     1       2.060   8.218  18.377  0.00  0.00    +0.000 C 
BRANCH  19  20
ATOM     20  N   UNL     1       1.534   9.093  19.517  0.00  0.00    +0.000 NA
BRANCH  20  21
ATOM     21  S   UNL     1       0.199  10.086  18.937  0.00  0.00    +0.000 S 
ATOM     22  O   UNL     1      -0.083   9.746  17.559  0.00  0.00    +0.000 OA
ATOM     23  O   UNL     1      -0.845  10.027  19.943  0.00  0.00    +0.000 OA
BRANCH  21  24
ATOM     24  C   UNL     1       0.864  11.733  18.918  0.00  0.00    +0.000 A 
ATOM     25  C   UNL     1       2.134  11.940  18.368  0.00  0.00    +0.000 A 
ATOM     26  C   UNL     1       2.628  13.244  18.237  0.00  0.00    +0.000 A 
ATOM     27  C   UNL     1       1.846  14.322  18.644  0.00  0.00    +0.000 A 
ATOM     28  F   UNL     1       2.311  15.568  18.495  0.00  0.00    +0.000 F 
ATOM     29  C   UNL     1       0.583  14.121  19.193  0.00  0.00    +0.000 A 
ATOM     30  C   UNL     1       0.081  12.820  19.335  0.00  0.00    +0.000 A 
ENDBRANCH  21  24
ENDBRANCH  20  21
BRANCH  20  32
ATOM     31  C   UNL     1       1.423   9.079  22.098  0.00  0.00    +0.000 C 
ATOM     32  C   UNL     1       1.118   8.374  20.784  0.00  0.00    +0.000 C 
ENDBRANCH  20  32
ENDBRANCH  19  20
ENDBRANCH   1  19
TORSDOF 8
ENDMDL
MODEL 7
REMARK VINA RESULT:      -6.8      1.702      2.043
REMARK  Name = 
REMARK  12 active torsions:
REMARK  status: ('A' for Active; 'I' for Inactive)
REMARK    1  A    between atoms: C_1  and  C_2
REMARK    2  A    between atoms: C_2  and  N_3
REMARK    3  A    between atoms: N_3  and  C_4
REMARK    4  A    between atoms: N_3  and  S_22
REMARK    5  A    between atoms: C_4  and  C_5
REMARK    6  A    between atoms: C_7  and  C_8
REMARK    7  A    between atoms: C_7  and  C_10
REMARK    8  A    between atoms: C_8  and  C_9
REMARK    9  A    between atoms: C_10  and  O_12
REMARK   10  A    between atoms: O_12  and  C_13
REMARK   11  A    between atoms: N_17  and  C_18
REMARK   12  A    between atoms: S_22  and  C_25
REMARK                            x       y       z     vdW  Elec       q    Type
REMARK                         _______ _______ _______ _____ _____    ______ ____
ROOT
ATOM      1  C   UNL     1       2.528   6.824  19.229  0.00  0.00    +0.000 C 
ATOM      2  N   UNL     1       3.915   6.503  19.635  0.00  0.00    +0.000 NA
ATOM      3  C   UNL     1       4.500   5.819  18.412  0.00  0.00    +0.000 C 
ATOM      4  C   UNL     1       3.308   5.046  17.802  0.00  0.00    +0.000 C 
ATOM      5  C   UNL     1       3.219   3.556  18.010  0.00  0.00    +0.000 C 
ATOM      6  O   UNL     1       3.835   2.733  17.353  0.00  0.00    +0.000 OA
ATOM      7  N   UNL     1       2.300   3.297  18.987  0.00  0.00    +0.000 N 
ATOM      8  C   UNL     1       1.854   1.975  19.358  0.00  0.00    +0.000 C 
ATOM      9  C   UNL     1       1.647   4.419  19.411  0.00  0.00    +0.000 C 
ATOM     10  O   UNL     1       0.786   4.469  20.273  0.00  0.00    +0.000 OA
ATOM     11  C   UNL     1       2.071   5.562  18.531  0.00  0.00    +0.000 C 
ATOM     12  H   UNL     1       3.932   5.847  20.425  0.00  0.00    +0.000 HD
ENDROOT
BRANCH   3  13
ATOM     13  C   UNL     1       4.985   6.914  17.402  0.00  0.00    +0.000 C 
ATOM     14  C   UNL     1       4.881   6.544  15.925  0.00  0.00    +0.000 C 
ENDBRANCH   3  13
BRANCH   3  15
ATOM     15  C   UNL     1       5.683   4.888  18.759  0.00  0.00    +0.000 C 
ATOM     16  O   UNL     1       5.931   4.453  19.875  0.00  0.00    +0.000 OA
BRANCH  15  17
ATOM     17  O   UNL     1       6.381   4.596  17.624  0.00  0.00    +0.000 OA
ATOM     18  C   UNL     1       7.803   4.567  17.748  0.00  0.00    +0.000 C 
ENDBRANCH  15  17
ENDBRANCH   3  15
BRANCH   1  19
ATOM     19  C   UNL     1       1.505   7.474  20.182  0.00  0.00    +0.000 C 
BRANCH  19  20
ATOM     20  N   UNL     1       1.666   8.996  20.225  0.00  0.00    +0.000 NA
BRANCH  20  21
ATOM     21  S   UNL     1       0.755   9.725  18.903  0.00  0.00    +0.000 S 
ATOM     22  O   UNL     1       1.231   9.192  17.646  0.00  0.00    +0.000 OA
ATOM     23  O   UNL     1      -0.650   9.645  19.259  0.00  0.00    +0.000 OA
BRANCH  21  24
ATOM     24  C   UNL     1       1.242  11.434  18.937  0.00  0.00    +0.000 A 
ATOM     25  C   UNL     1       2.375  11.824  18.215  0.00  0.00    +0.000 A 
ATOM     26  C   UNL     1       2.709  13.182  18.132  0.00  0.00    +0.000 A 
ATOM     27  C   UNL     1       1.905  14.130  18.760  0.00  0.00    +0.000 A 
ATOM     28  F   UNL     1       2.212  15.429  18.659  0.00  0.00    +0.000 F 
ATOM     29  C   UNL     1       0.778  13.745  19.480  0.00  0.00    +0.000 A 
ATOM     30  C   UNL     1       0.437  12.389  19.574  0.00  0.00    +0.000 A 
ENDBRANCH  21  24
ENDBRANCH  20  21
BRANCH  20  32
ATOM     31  C   UNL     1       0.257   8.985  22.389  0.00  0.00    +0.000 C 
ATOM     32  C   UNL     1       1.303   9.678  21.528  0.00  0.00    +0.000 C 
ENDBRANCH  20  32
ENDBRANCH  19  20
ENDBRANCH   1  19
TORSDOF 8
ENDMDL
MODEL 8
REMARK VINA RESULT:      -6.7      1.983      2.369
REMARK  Name = 
REMARK  12 active torsions:
REMARK  status: ('A' for Active; 'I' for Inactive)
REMARK    1  A    between atoms: C_1  and  C_2
REMARK    2  A    between atoms: C_2  and  N_3
REMARK    3  A    between atoms: N_3  and  C_4
REMARK    4  A    between atoms: N_3  and  S_22
REMARK    5  A    between atoms: C_4  and  C_5
REMARK    6  A    between atoms: C_7  and  C_8
REMARK    7  A    between atoms: C_7  and  C_10
REMARK    8  A    between atoms: C_8  and  C_9
REMARK    9  A    between atoms: C_10  and  O_12
REMARK   10  A    between atoms: O_12  and  C_13
REMARK   11  A    between atoms: N_17  and  C_18
REMARK   12  A    between atoms: S_22  and  C_25
REMARK                            x       y       z     vdW  Elec       q    Type
REMARK                         _______ _______ _______ _____ _____    ______ ____
ROOT
ATOM      1  C   UNL     1       2.538   6.838  18.777  0.00  0.00    +0.000 C 
ATOM      2  N   UNL     1       3.879   6.639  19.374  0.00  0.00    +0.000 NA
ATOM      3  C   UNL     1       4.648   5.900  18.293  0.00  0.00    +0.000 C 
ATOM      4  C   UNL     1       3.585   5.008  17.613  0.00  0.00    +0.000 C 
ATOM      5  C   UNL     1       3.550   3.535  17.935  0.00  0.00    +0.000 C 
ATOM      6  O   UNL     1       4.287   2.704  17.430  0.00  0.00    +0.000 OA
ATOM      7  N   UNL     1       2.531   3.296  18.812  0.00  0.00    +0.000 N 
ATOM      8  C   UNL     1       2.113   1.982  19.238  0.00  0.00    +0.000 C 
ATOM      9  C   UNL     1       1.771   4.405  19.057  0.00  0.00    +0.000 C 
ATOM     10  O   UNL     1       0.807   4.466  19.802  0.00  0.00    +0.000 OA
ATOM     11  C   UNL     1       2.240   5.500  18.140  0.00  0.00    +0.000 C 
ATOM     12  H   UNL     1       3.831   6.049  20.213  0.00  0.00    +0.000 HD
ENDROOT
BRANCH   3  13
ATOM     13  C   UNL     1       5.197   6.941  17.259  0.00  0.00    +0.000 C 
ATOM     14  C   UNL     1       4.959   6.603  15.790  0.00  0.00    +0.000 C 
ENDBRANCH   3  13
BRANCH   3  15
ATOM     15  C   UNL     1       5.826   5.076  18.859  0.00  0.00    +0.000 C 
ATOM     16  O   UNL     1       5.728   4.204  19.712  0.00  0.00    +0.000 OA
BRANCH  15  17
ATOM     17  O   UNL     1       6.981   5.443  18.233  0.00  0.00    +0.000 OA
ATOM     18  C   UNL     1       7.594   4.451  17.408  0.00  0.00    +0.000 C 
ENDBRANCH  15  17
ENDBRANCH   3  15
BRANCH   1  19
ATOM     19  C   UNL     1       1.371   7.495  19.542  0.00  0.00    +0.000 C 
BRANCH  19  20
ATOM     20  N   UNL     1       1.660   8.965  19.853  0.00  0.00    +0.000 NA
BRANCH  20  21
ATOM     21  S   UNL     1       1.458   9.932  18.393  0.00  0.00    +0.000 S 
ATOM     22  O   UNL     1       2.186  11.174  18.540  0.00  0.00    +0.000 OA
ATOM     23  O   UNL     1       1.706   9.055  17.263  0.00  0.00    +0.000 OA
BRANCH  21  24
ATOM     24  C   UNL     1      -0.266  10.362  18.397  0.00  0.00    +0.000 A 
ATOM     25  C   UNL     1      -0.659  11.563  18.998  0.00  0.00    +0.000 A 
ATOM     26  C   UNL     1      -1.994  11.976  18.910  0.00  0.00    +0.000 A 
ATOM     27  C   UNL     1      -2.915  11.195  18.216  0.00  0.00    +0.000 A 
ATOM     28  F   UNL     1      -4.184  11.605  18.112  0.00  0.00    +0.000 F 
ATOM     29  C   UNL     1      -2.528   9.999  17.618  0.00  0.00    +0.000 A 
ATOM     30  C   UNL     1      -1.196   9.572  17.704  0.00  0.00    +0.000 A 
ENDBRANCH  21  24
ENDBRANCH  20  21
BRANCH  20  32
ATOM     31  C   UNL     1      -0.192   8.706  21.634  0.00  0.00    +0.000 C 
ATOM     32  C   UNL     1       0.867   9.585  20.985  0.00  0.00    +0.000 C 
ENDBRANCH  20  32
ENDBRANCH  19  20
ENDBRANCH   1  19
TORSDOF 8
ENDMDL
MODEL 9
REMARK VINA RESULT:      -6.6      1.321      1.593
REMARK  Name = 
REMARK  12 active torsions:
REMARK  status: ('A' for Active; 'I' for Inactive)
REMARK    1  A    between atoms: C_1  and  C_2
REMARK    2  A    between atoms: C_2  and  N_3
REMARK    3  A    between atoms: N_3  and  C_4
REMARK    4  A    between atoms: N_3  and  S_22
REMARK    5  A    between atoms: C_4  and  C_5
REMARK    6  A    between atoms: C_7  and  C_8
REMARK    7  A    between atoms: C_7  and  C_10
REMARK    8  A    between atoms: C_8  and  C_9
REMARK    9  A    between atoms: C_10  and  O_12
REMARK   10  A    between atoms: O_12  and  C_13
REMARK   11  A    between atoms: N_17  and  C_18
REMARK   12  A    between atoms: S_22  and  C_25
REMARK                            x       y       z     vdW  Elec       q    Type
REMARK                         _______ _______ _______ _____ _____    ______ ____
ROOT
ATOM      1  C   UNL     1       2.675   6.723  19.181  0.00  0.00    +0.000 C 
ATOM      2  N   UNL     1       4.078   6.302  19.393  0.00  0.00    +0.000 NA
ATOM      3  C   UNL     1       4.405   5.495  18.149  0.00  0.00    +0.000 C 
ATOM      4  C   UNL     1       3.073   4.800  17.786  0.00  0.00    +0.000 C 
ATOM      5  C   UNL     1       2.897   3.338  18.114  0.00  0.00    +0.000 C 
ATOM      6  O   UNL     1       3.333   2.424  17.434  0.00  0.00    +0.000 OA
ATOM      7  N   UNL     1       2.127   3.224  19.236  0.00  0.00    +0.000 N 
ATOM      8  C   UNL     1       1.638   1.974  19.767  0.00  0.00    +0.000 C 
ATOM      9  C   UNL     1       1.642   4.425  19.671  0.00  0.00    +0.000 C 
ATOM     10  O   UNL     1       0.934   4.605  20.648  0.00  0.00    +0.000 OA
ATOM     11  C   UNL     1       2.012   5.470  18.655  0.00  0.00    +0.000 C 
ATOM     12  H   UNL     1       4.167   5.695  20.218  0.00  0.00    +0.000 HD
ENDROOT
BRANCH   3  13
ATOM     13  C   UNL     1       4.812   6.478  16.999  0.00  0.00    +0.000 C 
ATOM     14  C   UNL     1       5.894   7.495  17.348  0.00  0.00    +0.000 C 
ENDBRANCH   3  13
BRANCH   3  15
ATOM     15  C   UNL     1       5.548   4.482  18.380  0.00  0.00    +0.000 C 
ATOM     16  O   UNL     1       5.802   3.939  19.447  0.00  0.00    +0.000 OA
BRANCH  15  17
ATOM     17  O   UNL     1       6.203   4.258  17.204  0.00  0.00    +0.000 OA
ATOM     18  C   UNL     1       7.624   4.397  17.236  0.00  0.00    +0.000 C 
ENDBRANCH  15  17
ENDBRANCH   3  15
BRANCH   1  19
ATOM     19  C   UNL     1       1.872   7.521  20.228  0.00  0.00    +0.000 C 
BRANCH  19  20
ATOM     20  N   UNL     1       1.227   8.765  19.614  0.00  0.00    +0.000 NA
BRANCH  20  21
ATOM     21  S   UNL     1       0.220   9.568  20.818  0.00  0.00    +0.000 S 
ATOM     22  O   UNL     1      -0.396   8.570  21.664  0.00  0.00    +0.000 OA
ATOM     23  O   UNL     1       1.014  10.639  21.390  0.00  0.00    +0.000 OA
BRANCH  21  24
ATOM     24  C   UNL     1      -1.093  10.294  19.865  0.00  0.00    +0.000 A 
ATOM     25  C   UNL     1      -1.583  11.548  20.243  0.00  0.00    +0.000 A 
ATOM     26  C   UNL     1      -2.535  12.189  19.439  0.00  0.00    +0.000 A 
ATOM     27  C   UNL     1      -2.974  11.578  18.268  0.00  0.00    +0.000 A 
ATOM     28  F   UNL     1      -3.864  12.204  17.489  0.00  0.00    +0.000 F 
ATOM     29  C   UNL     1      -2.489  10.329  17.889  0.00  0.00    +0.000 A 
ATOM     30  C   UNL     1      -1.541   9.675  18.689  0.00  0.00    +0.000 A 
ENDBRANCH  21  24
ENDBRANCH  20  21
BRANCH  20  32
ATOM     31  C   UNL     1       2.187   9.829  17.465  0.00  0.00    +0.000 C 
ATOM     32  C   UNL     1       2.167   9.773  18.985  0.00  0.00    +0.000 C 
ENDBRANCH  20  32
ENDBRANCH  19  20
ENDBRANCH   1  19
TORSDOF 8
ENDMDL
