MODEL 1
REMARK VINA RESULT:      -7.7      0.000      0.000
REMARK  Name = 
REMARK  7 active torsions:
REMARK  status: ('A' for Active; 'I' for Inactive)
REMARK    1  A    between atoms: C_1  and  N_2
REMARK    2  A    between atoms: N_2  and  C_3
REMARK    3  A    between atoms: C_3  and  C_4
REMARK    4  A    between atoms: C_7  and  C_8
REMARK    5  A    between atoms: C_15  and  C_17
REMARK    6  A    between atoms: C_17  and  C_18
REMARK    7  A    between atoms: C_18  and  C_19
REMARK                            x       y       z     vdW  Elec       q    Type
REMARK                         _______ _______ _______ _____ _____    ______ ____
ROOT
ATOM      1  C   UNL     1       4.090   3.237  19.692  0.00  0.00    +0.000 C 
ATOM      2  N   UNL     1       3.948   4.656  19.394  0.00  0.00    +0.000 N 
ATOM      3  C   UNL     1       2.661   5.116  19.147  0.00  0.00    +0.000 C 
ATOM      4  O   UNL     1       1.694   4.352  19.159  0.00  0.00    +0.000 OA
ENDROOT
BRANCH   2   5
ATOM      5  C   UNL     1       5.171   5.457  19.334  0.00  0.00    +0.000 C 
BRANCH   5   6
ATOM      6  C   UNL     1       5.979   5.116  18.126  0.00  0.00    +0.000 A 
ATOM      7  C   UNL     1       7.306   4.762  17.994  0.00  0.00    +0.000 A 
ATOM      8  N   UNL     1       7.746   4.531  16.699  0.00  0.00    +0.000 NA
ATOM      9  C   UNL     1       6.765   4.736  15.841  0.00  0.00    +0.000 A 
ATOM     10  S   UNL     1       5.260   5.164  16.567  0.00  0.00    +0.000 S 
BRANCH   9  11
ATOM     11  C   UNL     1       6.879   4.586  14.379  0.00  0.00    +0.000 A 
ATOM     12  C   UNL     1       6.085   3.636  13.716  0.00  0.00    +0.000 A 
ATOM     13  C   UNL     1       6.159   3.477  12.328  0.00  0.00    +0.000 A 
ATOM     14  C   UNL     1       7.035   4.261  11.581  0.00  0.00    +0.000 A 
ATOM     15  C   UNL     1       7.841   5.198  12.220  0.00  0.00    +0.000 A 
ATOM     16  C   UNL     1       7.765   5.358  13.606  0.00  0.00    +0.000 A 
ENDBRANCH   9  11
ENDBRANCH   5   6
ENDBRANCH   2   5
BRANCH   3  17
ATOM     17  C   UNL     1       2.472   6.580  18.801  0.00  0.00    +0.000 C 
BRANCH  17  18
ATOM     18  C   UNL     1       2.100   7.390  20.038  0.00  0.00    +0.000 C 
BRANCH  18  19
ATOM     19  C   UNL     1       1.484   8.707  19.625  0.00  0.00    +0.000 C 
ATOM     20  N   UNL     1       1.748   9.164  18.439  0.00  0.00    +0.000 NA
ATOM     21  N   UNL     1       1.155  10.325  18.056  0.00  0.00    +0.000 N 
ATOM     22  C   UNL     1       0.461  11.193  18.858  0.00  0.00    +0.000 C 
ATOM     23  O   UNL     1      -0.008  12.240  18.417  0.00  0.00    +0.000 OA
ATOM     24  C   UNL     1       0.388  10.837  20.316  0.00  0.00    +0.000 C 
ATOM     25  C   UNL     1       0.488   9.349  20.554  0.00  0.00    +0.000 C 
ATOM     26  H   UNL     1       1.296  10.606  17.090  0.00  0.00    +0.000 HD
ENDBRANCH  18  19
ENDBRANCH  17  18
ENDBRANCH   3  17
TORSDOF 6
ENDMDL
MODEL 2
REMARK VINA RESULT:      -7.6      3.338      7.742
REMARK  Name = 
REMARK  7 active torsions:
REMARK  status: ('A' for Active; 'I' for Inactive)
REMARK    1  A    between atoms: C_1  and  N_2
REMARK    2  A    between atoms: N_2  and  C_3
REMARK    3  A    between atoms: C_3  and  C_4
REMARK    4  A    between atoms: C_7  and  C_8
REMARK    5  A    between atoms: C_15  and  C_17
REMARK    6  A    between atoms: C_17  and  C_18
REMARK    7  A    between atoms: C_18  and  C_19
REMARK                            x       y       z     vdW  Elec       q    Type
REMARK                         _______ _______ _______ _____ _____    ______ ____
ROOT
ATOM      1  C   UNL     1       0.969   4.389  20.438  0.00  0.00    +0.000 C 
ATOM      2  N   UNL     1       1.986   4.680  19.436  0.00  0.00    +0.000 N 
ATOM      3  C   UNL     1       2.006   3.864  18.313  0.00  0.00    +0.000 C 
ATOM      4  O   UNL     1       1.214   2.928  18.185  0.00  0.00    +0.000 OA
ENDROOT
BRANCH   2   5
ATOM      5  C   UNL     1       2.921   5.767  19.722  0.00  0.00    +0.000 C 
BRANCH   5   6
ATOM      6  C   UNL     1       2.483   7.039  19.073  0.00  0.00    +0.000 A 
ATOM      7  C   UNL     1       2.738   7.549  17.816  0.00  0.00    +0.000 A 
ATOM      8  N   UNL     1       2.184   8.790  17.542  0.00  0.00    +0.000 NA
ATOM      9  C   UNL     1       1.532   9.241  18.597  0.00  0.00    +0.000 A 
ATOM     10  S   UNL     1       1.517   8.162  19.942  0.00  0.00    +0.000 S 
BRANCH   9  11
ATOM     11  C   UNL     1       0.824  10.533  18.661  0.00  0.00    +0.000 A 
ATOM     12  C   UNL     1      -0.579  10.557  18.592  0.00  0.00    +0.000 A 
ATOM     13  C   UNL     1      -1.282  11.764  18.663  0.00  0.00    +0.000 A 
ATOM     14  C   UNL     1      -0.594  12.968  18.796  0.00  0.00    +0.000 A 
ATOM     15  C   UNL     1       0.797  12.967  18.851  0.00  0.00    +0.000 A 
ATOM     16  C   UNL     1       1.499  11.760  18.783  0.00  0.00    +0.000 A 
ENDBRANCH   9  11
ENDBRANCH   5   6
ENDBRANCH   2   5
BRANCH   3  17
ATOM     17  C   UNL     1       3.069   4.111  17.260  0.00  0.00    +0.000 C 
BRANCH  17  18
ATOM     18  C   UNL     1       4.370   3.402  17.621  0.00  0.00    +0.000 C 
BRANCH  18  19
ATOM     19  C   UNL     1       5.462   4.420  17.862  0.00  0.00    +0.000 C 
ATOM     20  N   UNL     1       6.150   4.335  18.959  0.00  0.00    +0.000 NA
ATOM     21  N   UNL     1       7.159   5.224  19.149  0.00  0.00    +0.000 N 
ATOM     22  C   UNL     1       7.413   6.346  18.404  0.00  0.00    +0.000 C 
ATOM     23  O   UNL     1       8.336   7.108  18.684  0.00  0.00    +0.000 OA
ATOM     24  C   UNL     1       6.446   6.638  17.292  0.00  0.00    +0.000 C 
ATOM     25  C   UNL     1       5.786   5.389  16.757  0.00  0.00    +0.000 C 
ATOM     26  H   UNL     1       7.747   5.073  19.964  0.00  0.00    +0.000 HD
ENDBRANCH  18  19
ENDBRANCH  17  18
ENDBRANCH   3  17
TORSDOF 6
ENDMDL
MODEL 3
REMARK VINA RESULT:      -7.5      2.639      8.822
REMARK  Name = 
REMARK  7 active torsions:
REMARK  status: ('A' for Active; 'I' for Inactive)
REMARK    1  A    between atoms: C_1  and  N_2
REMARK    2  A    between atoms: N_2  and  C_3
REMARK    3  A    between atoms: C_3  and  C_4
REMARK    4  A    between atoms: C_7  and  C_8
REMARK    5  A    between atoms: C_15  and  C_17
REMARK    6  A    between atoms: C_17  and  C_18
REMARK    7  A    between atoms: C_18  and  C_19
REMARK                            x       y       z     vdW  Elec       q    Type
REMARK                         _______ _______ _______ _____ _____    ______ ____
ROOT
ATOM      1  C   UNL     1       1.747   5.032  17.860  0.00  0.00    +0.000 C 
ATOM      2  N   UNL     1       3.055   5.606  18.148  0.00  0.00    +0.000 N 
ATOM      3  C   UNL     1       3.914   4.841  18.925  0.00  0.00    +0.000 C 
ATOM      4  O   UNL     1       3.574   3.741  19.365  0.00  0.00    +0.000 OA
ENDROOT
BRANCH   2   5
ATOM      5  C   UNL     1       3.327   6.950  17.638  0.00  0.00    +0.000 C 
BRANCH   5   6
ATOM      6  C   UNL     1       2.397   7.952  18.238  0.00  0.00    +0.000 A 
ATOM      7  C   UNL     1       1.778   9.057  17.688  0.00  0.00    +0.000 A 
ATOM      8  N   UNL     1       0.981   9.796  18.549  0.00  0.00    +0.000 NA
ATOM      9  C   UNL     1       1.015   9.276  19.761  0.00  0.00    +0.000 A 
ATOM     10  S   UNL     1       1.965   7.843  19.897  0.00  0.00    +0.000 S 
BRANCH   9  11
ATOM     11  C   UNL     1       0.287   9.809  20.928  0.00  0.00    +0.000 A 
ATOM     12  C   UNL     1      -0.425  11.014  20.808  0.00  0.00    +0.000 A 
ATOM     13  C   UNL     1      -1.137  11.540  21.892  0.00  0.00    +0.000 A 
ATOM     14  C   UNL     1      -1.141  10.874  23.115  0.00  0.00    +0.000 A 
ATOM     15  C   UNL     1      -0.429   9.687  23.259  0.00  0.00    +0.000 A 
ATOM     16  C   UNL     1       0.279   9.160  22.175  0.00  0.00    +0.000 A 
ENDBRANCH   9  11
ENDBRANCH   5   6
ENDBRANCH   2   5
BRANCH   3  17
ATOM     17  C   UNL     1       5.273   5.415  19.276  0.00  0.00    +0.000 C 
BRANCH  17  18
ATOM     18  C   UNL     1       6.394   4.503  18.789  0.00  0.00    +0.000 C 
BRANCH  18  19
ATOM     19  C   UNL     1       6.573   4.659  17.296  0.00  0.00    +0.000 C 
ATOM     20  N   UNL     1       7.422   5.542  16.868  0.00  0.00    +0.000 NA
ATOM     21  N   UNL     1       7.613   5.646  15.527  0.00  0.00    +0.000 N 
ATOM     22  C   UNL     1       6.855   5.064  14.545  0.00  0.00    +0.000 C 
ATOM     23  O   UNL     1       7.092   5.252  13.354  0.00  0.00    +0.000 OA
ATOM     24  C   UNL     1       5.669   4.264  15.007  0.00  0.00    +0.000 C 
ATOM     25  C   UNL     1       5.862   3.689  16.390  0.00  0.00    +0.000 C 
ATOM     26  H   UNL     1       8.355   6.269  15.224  0.00  0.00    +0.000 HD
ENDBRANCH  18  19
ENDBRANCH  17  18
ENDBRANCH   3  17
TORSDOF 6
ENDMDL
MODEL 4
REMARK VINA RESULT:      -7.4      0.944      1.150
REMARK  Name = 
REMARK  7 active torsions:
REMARK  status: ('A' for Active; 'I' for Inactive)
REMARK    1  A    between atoms: C_1  and  N_2
REMARK    2  A    between atoms: N_2  and  C_3
REMARK    3  A    between atoms: C_3  and  C_4
REMARK    4  A    between atoms: C_7  and  C_8
REMARK    5  A    between atoms: C_15  and  C_17
REMARK    6  A    between atoms: C_17  and  C_18
REMARK    7  A    between atoms: C_18  and  C_19
REMARK                            x       y       z     vdW  Elec       q    Type
REMARK                         _______ _______ _______ _____ _____    ______ ____
ROOT
ATOM      1  C   UNL     1       3.971   2.858  18.811  0.00  0.00    +0.000 C 
ATOM      2  N   UNL     1       3.862   4.245  19.244  0.00  0.00    +0.000 N 
ATOM      3  C   UNL     1       2.582   4.722  19.492  0.00  0.00    +0.000 C 
ATOM      4  O   UNL     1       1.589   4.009  19.330  0.00  0.00    +0.000 OA
ENDROOT
BRANCH   2   5
ATOM      5  C   UNL     1       5.099   5.021  19.332  0.00  0.00    +0.000 C 
BRANCH   5   6
ATOM      6  C   UNL     1       5.944   4.827  18.116  0.00  0.00    +0.000 A 
ATOM      7  C   UNL     1       7.304   4.633  17.979  0.00  0.00    +0.000 A 
ATOM      8  N   UNL     1       7.770   4.509  16.679  0.00  0.00    +0.000 NA
ATOM      9  C   UNL     1       6.775   4.639  15.824  0.00  0.00    +0.000 A 
ATOM     10  S   UNL     1       5.229   4.861  16.555  0.00  0.00    +0.000 S 
BRANCH   9  11
ATOM     11  C   UNL     1       6.910   4.567  14.357  0.00  0.00    +0.000 A 
ATOM     12  C   UNL     1       6.183   3.601  13.641  0.00  0.00    +0.000 A 
ATOM     13  C   UNL     1       6.277   3.515  12.249  0.00  0.00    +0.000 A 
ATOM     14  C   UNL     1       7.107   4.387  11.549  0.00  0.00    +0.000 A 
ATOM     15  C   UNL     1       7.848   5.342  12.240  0.00  0.00    +0.000 A 
ATOM     16  C   UNL     1       7.750   5.429  13.632  0.00  0.00    +0.000 A 
ENDBRANCH   9  11
ENDBRANCH   5   6
ENDBRANCH   2   5
BRANCH   3  17
ATOM     17  C   UNL     1       2.422   6.170  19.913  0.00  0.00    +0.000 C 
BRANCH  17  18
ATOM     18  C   UNL     1       2.412   7.094  18.699  0.00  0.00    +0.000 C 
BRANCH  18  19
ATOM     19  C   UNL     1       1.739   8.400  19.053  0.00  0.00    +0.000 C 
ATOM     20  N   UNL     1       1.421   8.612  20.293  0.00  0.00    +0.000 NA
ATOM     21  N   UNL     1       0.859   9.807  20.613  0.00  0.00    +0.000 N 
ATOM     22  C   UNL     1       0.391  10.751  19.737  0.00  0.00    +0.000 C 
ATOM     23  O   UNL     1      -0.136  11.789  20.132  0.00  0.00    +0.000 OA
ATOM     24  C   UNL     1       0.475  10.404  18.278  0.00  0.00    +0.000 C 
ATOM     25  C   UNL     1       1.599   9.443  17.976  0.00  0.00    +0.000 C 
ATOM     26  H   UNL     1       0.715   9.988  21.602  0.00  0.00    +0.000 HD
ENDBRANCH  18  19
ENDBRANCH  17  18
ENDBRANCH   3  17
TORSDOF 6
ENDMDL
MODEL 5
REMARK VINA RESULT:      -7.3      2.710      8.747
REMARK  Name = 
REMARK  7 active torsions:
REMARK  status: ('A' for Active; 'I' for Inactive)
REMARK    1  A    between atoms: C_1  and  N_2
REMARK    2  A    between atoms: N_2  and  C_3
REMARK    3  A    between atoms: C_3  and  C_4
REMARK    4  A    between atoms: C_7  and  C_8
REMARK    5  A    between atoms: C_15  and  C_17
REMARK    6  A    between atoms: C_17  and  C_18
REMARK    7  A    between atoms: C_18  and  C_19
REMARK                            x       y       z     vdW  Elec       q    Type
REMARK                         _______ _______ _______ _____ _____    ______ ____
ROOT
ATOM      1  C   UNL     1       4.092   4.200  20.131  0.00  0.00    +0.000 C 
ATOM      2  N   UNL     1       4.390   5.112  19.035  0.00  0.00    +0.000 N 
ATOM      3  C   UNL     1       5.692   5.587  18.956  0.00  0.00    +0.000 C 
ATOM      4  O   UNL     1       6.544   5.268  19.789  0.00  0.00    +0.000 OA
ENDROOT
BRANCH   2   5
ATOM      5  C   UNL     1       3.287   5.482  18.148  0.00  0.00    +0.000 C 
BRANCH   5   6
ATOM      6  C   UNL     1       2.643   6.754  18.591  0.00  0.00    +0.000 A 
ATOM      7  C   UNL     1       2.596   7.999  17.997  0.00  0.00    +0.000 A 
ATOM      8  N   UNL     1       1.918   8.981  18.704  0.00  0.00    +0.000 NA
ATOM      9  C   UNL     1       1.476   8.496  19.848  0.00  0.00    +0.000 A 
ATOM     10  S   UNL     1       1.812   6.822  20.092  0.00  0.00    +0.000 S 
BRANCH   9  11
ATOM     11  C   UNL     1       0.716   9.264  20.852  0.00  0.00    +0.000 A 
ATOM     12  C   UNL     1       0.725   8.848  22.194  0.00  0.00    +0.000 A 
ATOM     13  C   UNL     1       0.025   9.561  23.173  0.00  0.00    +0.000 A 
ATOM     14  C   UNL     1      -0.701  10.698  22.826  0.00  0.00    +0.000 A 
ATOM     15  C   UNL     1      -0.735  11.118  21.500  0.00  0.00    +0.000 A 
ATOM     16  C   UNL     1      -0.034  10.406  20.522  0.00  0.00    +0.000 A 
ENDBRANCH   9  11
ENDBRANCH   5   6
ENDBRANCH   2   5
BRANCH   3  17
ATOM     17  C   UNL     1       6.038   6.565  17.849  0.00  0.00    +0.000 C 
BRANCH  17  18
ATOM     18  C   UNL     1       7.329   6.159  17.145  0.00  0.00    +0.000 C 
BRANCH  18  19
ATOM     19  C   UNL     1       7.008   5.370  15.896  0.00  0.00    +0.000 C 
ATOM     20  N   UNL     1       7.643   5.664  14.803  0.00  0.00    +0.000 NA
ATOM     21  N   UNL     1       7.385   4.922  13.696  0.00  0.00    +0.000 N 
ATOM     22  C   UNL     1       6.368   4.017  13.536  0.00  0.00    +0.000 C 
ATOM     23  O   UNL     1       6.199   3.421  12.474  0.00  0.00    +0.000 OA
ATOM     24  C   UNL     1       5.423   3.867  14.694  0.00  0.00    +0.000 C 
ATOM     25  C   UNL     1       6.073   4.196  16.017  0.00  0.00    +0.000 C 
ATOM     26  H   UNL     1       7.968   5.103  12.884  0.00  0.00    +0.000 HD
ENDBRANCH  18  19
ENDBRANCH  17  18
ENDBRANCH   3  17
TORSDOF 6
ENDMDL
MODEL 6
REMARK VINA RESULT:      -7.3      3.363      8.268
REMARK  Name = 
REMARK  7 active torsions:
REMARK  status: ('A' for Active; 'I' for Inactive)
REMARK    1  A    between atoms: C_1  and  N_2
REMARK    2  A    between atoms: N_2  and  C_3
REMARK    3  A    between atoms: C_3  and  C_4
REMARK    4  A    between atoms: C_7  and  C_8
REMARK    5  A    between atoms: C_15  and  C_17
REMARK    6  A    between atoms: C_17  and  C_18
REMARK    7  A    between atoms: C_18  and  C_19
REMARK                            x       y       z     vdW  Elec       q    Type
REMARK                         _______ _______ _______ _____ _____    ______ ____
ROOT
ATOM      1  C   UNL     1       1.400   3.310  20.796  0.00  0.00    +0.000 C 
ATOM      2  N   UNL     1       2.086   3.969  19.693  0.00  0.00    +0.000 N 
ATOM      3  C   UNL     1       1.805   3.502  18.416  0.00  0.00    +0.000 C 
ATOM      4  O   UNL     1       1.029   2.561  18.233  0.00  0.00    +0.000 OA
ENDROOT
BRANCH   2   5
ATOM      5  C   UNL     1       3.041   5.025  20.028  0.00  0.00    +0.000 C 
BRANCH   5   6
ATOM      6  C   UNL     1       2.408   6.374  19.932  0.00  0.00    +0.000 A 
ATOM      7  C   UNL     1       2.457   7.328  18.936  0.00  0.00    +0.000 A 
ATOM      8  N   UNL     1       1.758   8.500  19.185  0.00  0.00    +0.000 NA
ATOM      9  C   UNL     1       1.202   8.454  20.380  0.00  0.00    +0.000 A 
ATOM     10  S   UNL     1       1.455   6.973  21.228  0.00  0.00    +0.000 S 
BRANCH   9  11
ATOM     11  C   UNL     1       0.388   9.531  20.973  0.00  0.00    +0.000 A 
ATOM     12  C   UNL     1      -0.021   9.431  22.313  0.00  0.00    +0.000 A 
ATOM     13  C   UNL     1      -0.783  10.441  22.910  0.00  0.00    +0.000 A 
ATOM     14  C   UNL     1      -1.156  11.564  22.174  0.00  0.00    +0.000 A 
ATOM     15  C   UNL     1      -0.773  11.674  20.841  0.00  0.00    +0.000 A 
ATOM     16  C   UNL     1      -0.010  10.666  20.246  0.00  0.00    +0.000 A 
ENDBRANCH   9  11
ENDBRANCH   5   6
ENDBRANCH   2   5
BRANCH   3  17
ATOM     17  C   UNL     1       2.522   4.138  17.241  0.00  0.00    +0.000 C 
BRANCH  17  18
ATOM     18  C   UNL     1       3.865   3.461  16.990  0.00  0.00    +0.000 C 
BRANCH  18  19
ATOM     19  C   UNL     1       4.968   4.494  16.979  0.00  0.00    +0.000 C 
ATOM     20  N   UNL     1       4.882   5.476  16.134  0.00  0.00    +0.000 NA
ATOM     21  N   UNL     1       5.852   6.427  16.159  0.00  0.00    +0.000 N 
ATOM     22  C   UNL     1       7.039   6.367  16.841  0.00  0.00    +0.000 C 
ATOM     23  O   UNL     1       7.869   7.271  16.767  0.00  0.00    +0.000 OA
ATOM     24  C   UNL     1       7.305   5.099  17.602  0.00  0.00    +0.000 C 
ATOM     25  C   UNL     1       6.034   4.409  18.038  0.00  0.00    +0.000 C 
ATOM     26  H   UNL     1       5.707   7.235  15.561  0.00  0.00    +0.000 HD
ENDBRANCH  18  19
ENDBRANCH  17  18
ENDBRANCH   3  17
TORSDOF 6
ENDMDL
MODEL 7
REMARK VINA RESULT:      -7.3      0.898      1.093
REMARK  Name = 
REMARK  7 active torsions:
REMARK  status: ('A' for Active; 'I' for Inactive)
REMARK    1  A    between atoms: C_1  and  N_2
REMARK    2  A    between atoms: N_2  and  C_3
REMARK    3  A    between atoms: C_3  and  C_4
REMARK    4  A    between atoms: C_7  and  C_8
REMARK    5  A    between atoms: C_15  and  C_17
REMARK    6  A    between atoms: C_17  and  C_18
REMARK    7  A    between atoms: C_18  and  C_19
REMARK                            x       y       z     vdW  Elec       q    Type
REMARK                         _______ _______ _______ _____ _____    ______ ____
ROOT
ATOM      1  C   UNL     1       2.698   2.409  18.414  0.00  0.00    +0.000 C 
ATOM      2  N   UNL     1       3.274   3.650  18.916  0.00  0.00    +0.000 N 
ATOM      3  C   UNL     1       2.431   4.752  18.971  0.00  0.00    +0.000 C 
ATOM      4  O   UNL     1       1.260   4.683  18.590  0.00  0.00    +0.000 OA
ENDROOT
BRANCH   2   5
ATOM      5  C   UNL     1       4.693   3.637  19.271  0.00  0.00    +0.000 C 
BRANCH   5   6
ATOM      6  C   UNL     1       5.543   4.026  18.107  0.00  0.00    +0.000 A 
ATOM      7  C   UNL     1       6.719   4.746  18.044  0.00  0.00    +0.000 A 
ATOM      8  N   UNL     1       7.239   4.946  16.775  0.00  0.00    +0.000 NA
ATOM      9  C   UNL     1       6.448   4.407  15.867  0.00  0.00    +0.000 A 
ATOM     10  S   UNL     1       5.073   3.591  16.513  0.00  0.00    +0.000 S 
BRANCH   9  11
ATOM     11  C   UNL     1       6.692   4.435  14.413  0.00  0.00    +0.000 A 
ATOM     12  C   UNL     1       5.964   3.576  13.573  0.00  0.00    +0.000 A 
ATOM     13  C   UNL     1       6.161   3.586  12.188  0.00  0.00    +0.000 A 
ATOM     14  C   UNL     1       7.096   4.449  11.621  0.00  0.00    +0.000 A 
ATOM     15  C   UNL     1       7.838   5.297  12.437  0.00  0.00    +0.000 A 
ATOM     16  C   UNL     1       7.639   5.288  13.821  0.00  0.00    +0.000 A 
ENDBRANCH   9  11
ENDBRANCH   5   6
ENDBRANCH   2   5
BRANCH   3  17
ATOM     17  C   UNL     1       2.999   6.071  19.456  0.00  0.00    +0.000 C 
BRANCH  17  18
ATOM     18  C   UNL     1       3.184   7.046  18.298  0.00  0.00    +0.000 C 
BRANCH  18  19
ATOM     19  C   UNL     1       2.274   8.239  18.480  0.00  0.00    +0.000 C 
ATOM     20  N   UNL     1       2.163   9.082  17.499  0.00  0.00    +0.000 NA
ATOM     21  N   UNL     1       1.309  10.128  17.650  0.00  0.00    +0.000 N 
ATOM     22  C   UNL     1       0.695  10.521  18.810  0.00  0.00    +0.000 C 
ATOM     23  O   UNL     1      -0.036  11.509  18.847  0.00  0.00    +0.000 OA
ATOM     24  C   UNL     1       1.037   9.735  20.043  0.00  0.00    +0.000 C 
ATOM     25  C   UNL     1       1.440   8.314  19.730  0.00  0.00    +0.000 C 
ATOM     26  H   UNL     1       1.163  10.713  16.833  0.00  0.00    +0.000 HD
ENDBRANCH  18  19
ENDBRANCH  17  18
ENDBRANCH   3  17
TORSDOF 6
ENDMDL
MODEL 8
REMARK VINA RESULT:      -7.3      3.055      8.637
REMARK  Name = 
REMARK  7 active torsions:
REMARK  status: ('A' for Active; 'I' for Inactive)
REMARK    1  A    between atoms: C_1  and  N_2
REMARK    2  A    between atoms: N_2  and  C_3
REMARK    3  A    between atoms: C_3  and  C_4
REMARK    4  A    between atoms: C_7  and  C_8
REMARK    5  A    between atoms: C_15  and  C_17
REMARK    6  A    between atoms: C_17  and  C_18
REMARK    7  A    between atoms: C_18  and  C_19
REMARK                            x       y       z     vdW  Elec       q    Type
REMARK                         _______ _______ _______ _____ _____    ______ ____
ROOT
ATOM      1  C   UNL     1       2.064   4.394  21.449  0.00  0.00    +0.000 C 
ATOM      2  N   UNL     1       2.271   4.802  20.066  0.00  0.00    +0.000 N 
ATOM      3  C   UNL     1       1.648   4.035  19.090  0.00  0.00    +0.000 C 
ATOM      4  O   UNL     1       0.973   3.047  19.385  0.00  0.00    +0.000 OA
ENDROOT
BRANCH   2   5
ATOM      5  C   UNL     1       3.151   5.946  19.826  0.00  0.00    +0.000 C 
BRANCH   5   6
ATOM      6  C   UNL     1       2.365   7.206  19.672  0.00  0.00    +0.000 A 
ATOM      7  C   UNL     1       2.261   8.084  18.612  0.00  0.00    +0.000 A 
ATOM      8  N   UNL     1       1.445   9.187  18.817  0.00  0.00    +0.000 NA
ATOM      9  C   UNL     1       0.952   9.168  20.040  0.00  0.00    +0.000 A 
ATOM     10  S   UNL     1       1.408   7.790  20.972  0.00  0.00    +0.000 S 
BRANCH   9  11
ATOM     11  C   UNL     1       0.047  10.189  20.600  0.00  0.00    +0.000 A 
ATOM     12  C   UNL     1      -0.531  11.144  19.748  0.00  0.00    +0.000 A 
ATOM     13  C   UNL     1      -1.403  12.119  20.245  0.00  0.00    +0.000 A 
ATOM     14  C   UNL     1      -1.704  12.159  21.604  0.00  0.00    +0.000 A 
ATOM     15  C   UNL     1      -1.130  11.231  22.468  0.00  0.00    +0.000 A 
ATOM     16  C   UNL     1      -0.261  10.256  21.970  0.00  0.00    +0.000 A 
ENDBRANCH   9  11
ENDBRANCH   5   6
ENDBRANCH   2   5
BRANCH   3  17
ATOM     17  C   UNL     1       1.864   4.406  17.635  0.00  0.00    +0.000 C 
BRANCH  17  18
ATOM     18  C   UNL     1       2.720   3.360  16.928  0.00  0.00    +0.000 C 
BRANCH  18  19
ATOM     19  C   UNL     1       4.181   3.734  17.034  0.00  0.00    +0.000 C 
ATOM     20  N   UNL     1       4.770   3.594  18.182  0.00  0.00    +0.000 NA
ATOM     21  N   UNL     1       6.094   3.887  18.261  0.00  0.00    +0.000 N 
ATOM     22  C   UNL     1       6.850   4.519  17.308  0.00  0.00    +0.000 C 
ATOM     23  O   UNL     1       8.038   4.770  17.494  0.00  0.00    +0.000 OA
ATOM     24  C   UNL     1       6.123   4.966  16.072  0.00  0.00    +0.000 C 
ATOM     25  C   UNL     1       4.911   4.116  15.774  0.00  0.00    +0.000 C 
ATOM     26  H   UNL     1       6.552   3.671  19.141  0.00  0.00    +0.000 HD
ENDBRANCH  18  19
ENDBRANCH  17  18
ENDBRANCH   3  17
TORSDOF 6
ENDMDL
MODEL 9
REMARK VINA RESULT:      -7.2      2.851      8.106
REMARK  Name = 
REMARK  7 active torsions:
REMARK  status: ('A' for Active; 'I' for Inactive)
REMARK    1  A    between atoms: C_1  and  N_2
REMARK    2  A    between atoms: N_2  and  C_3
REMARK    3  A    between atoms: C_3  and  C_4
REMARK    4  A    between atoms: C_7  and  C_8
REMARK    5  A    between atoms: C_15  and  C_17
REMARK    6  A    between atoms: C_17  and  C_18
REMARK    7  A    between atoms: C_18  and  C_19
REMARK                            x       y       z     vdW  Elec       q    Type
REMARK                         _______ _______ _______ _____ _____    ______ ____
ROOT
ATOM      1  C   UNL     1       1.386   4.664  20.798  0.00  0.00    +0.000 C 
ATOM      2  N   UNL     1       2.161   4.862  19.581  0.00  0.00    +0.000 N 
ATOM      3  C   UNL     1       1.930   3.970  18.543  0.00  0.00    +0.000 C 
ATOM      4  O   UNL     1       1.125   3.044  18.659  0.00  0.00    +0.000 OA
ENDROOT
BRANCH   2   5
ATOM      5  C   UNL     1       3.142   5.947  19.577  0.00  0.00    +0.000 C 
BRANCH   5   6
ATOM      6  C   UNL     1       2.570   7.189  18.978  0.00  0.00    +0.000 A 
ATOM      7  C   UNL     1       2.675   7.713  17.705  0.00  0.00    +0.000 A 
ATOM      8  N   UNL     1       2.023   8.918  17.490  0.00  0.00    +0.000 NA
ATOM      9  C   UNL     1       1.447   9.330  18.603  0.00  0.00    +0.000 A 
ATOM     10  S   UNL     1       1.623   8.252  19.939  0.00  0.00    +0.000 S 
BRANCH   9  11
ATOM     11  C   UNL     1       0.671  10.576  18.740  0.00  0.00    +0.000 A 
ATOM     12  C   UNL     1      -0.679  10.597  18.351  0.00  0.00    +0.000 A 
ATOM     13  C   UNL     1      -1.446  11.760  18.480  0.00  0.00    +0.000 A 
ATOM     14  C   UNL     1      -0.875  12.922  18.991  0.00  0.00    +0.000 A 
ATOM     15  C   UNL     1       0.465  12.926  19.368  0.00  0.00    +0.000 A 
ATOM     16  C   UNL     1       1.231  11.764  19.242  0.00  0.00    +0.000 A 
ENDBRANCH   9  11
ENDBRANCH   5   6
ENDBRANCH   2   5
BRANCH   3  17
ATOM     17  C   UNL     1       2.740   4.120  17.269  0.00  0.00    +0.000 C 
BRANCH  17  18
ATOM     18  C   UNL     1       4.032   3.314  17.345  0.00  0.00    +0.000 C 
BRANCH  18  19
ATOM     19  C   UNL     1       5.097   3.967  16.494  0.00  0.00    +0.000 C 
ATOM     20  N   UNL     1       5.552   3.314  15.469  0.00  0.00    +0.000 NA
ATOM     21  N   UNL     1       6.475   3.924  14.682  0.00  0.00    +0.000 N 
ATOM     22  C   UNL     1       7.148   5.086  14.959  0.00  0.00    +0.000 C 
ATOM     23  O   UNL     1       7.995   5.537  14.192  0.00  0.00    +0.000 OA
ATOM     24  C   UNL     1       6.858   5.720  16.290  0.00  0.00    +0.000 C 
ATOM     25  C   UNL     1       5.474   5.393  16.797  0.00  0.00    +0.000 C 
ATOM     26  H   UNL     1       6.738   3.435  13.831  0.00  0.00    +0.000 HD
ENDBRANCH  18  19
ENDBRANCH  17  18
ENDBRANCH   3  17
TORSDOF 6
ENDMDL
