MODEL 1
REMARK VINA RESULT:      -6.6      0.000      0.000
REMARK  Name = 
REMARK  8 active torsions:
REMARK  status: ('A' for Active; 'I' for Inactive)
REMARK    1  A    between atoms: C_1  and  C_2
REMARK    2  A    between atoms: C_2  and  C_4
REMARK    3  A    between atoms: C_4  and  C_5
REMARK    4  A    between atoms: C_5  and  C_6
REMARK    5  A    between atoms: C_6  and  N_7
REMARK    6  A    between atoms: N_7  and  C_8
REMARK    7  A    between atoms: N_7  and  S_18
REMARK    8  A    between atoms: S_18  and  C_21
REMARK                            x       y       z     vdW  Elec       q    Type
REMARK                         _______ _______ _______ _____ _____    ______ ____
ROOT
ATOM      1  N   UNL     1      -0.022  11.471  19.468  0.00  0.00    +0.000 N 
ENDROOT
BRANCH   1   2
ATOM      2  C   UNL     1       0.783  10.269  19.483  0.00  0.00    +0.000 A 
ATOM      3  S   UNL     1       1.781   9.909  18.148  0.00  0.00    +0.000 S 
ATOM      4  C   UNL     1       2.069   8.306  18.698  0.00  0.00    +0.000 A 
ATOM      5  C   UNL     1       2.714   7.277  17.982  0.00  0.00    +0.000 A 
ATOM      6  C   UNL     1       2.903   6.040  18.597  0.00  0.00    +0.000 A 
ATOM      7  C   UNL     1       2.507   5.841  19.910  0.00  0.00    +0.000 A 
ATOM      8  C   UNL     1       1.851   6.861  20.611  0.00  0.00    +0.000 A 
ATOM      9  C   UNL     1       1.575   8.110  19.992  0.00  0.00    +0.000 A 
ATOM     10  C   UNL     1       0.799   9.249  20.411  0.00  0.00    +0.000 A 
ATOM     11 BR   UNL     1      -0.193   9.193  22.031  0.00  0.00    +0.000 Br
ENDBRANCH   1   2
BRANCH   1  12
ATOM     12  S   UNL     1       0.425  12.629  20.651  0.00  0.00    +0.000 S 
ATOM     13  O   UNL     1      -0.681  12.807  21.569  0.00  0.00    +0.000 OA
ATOM     14  O   UNL     1       1.756  12.348  21.144  0.00  0.00    +0.000 OA
BRANCH  12  15
ATOM     15  C   UNL     1       0.567  14.140  19.695  0.00  0.00    +0.000 A 
ATOM     16  C   UNL     1      -0.530  14.997  19.566  0.00  0.00    +0.000 A 
ATOM     17  C   UNL     1      -0.372  16.240  18.940  0.00  0.00    +0.000 A 
ATOM     18  C   UNL     1       0.884  16.630  18.463  0.00  0.00    +0.000 A 
ATOM     19  C   UNL     1       1.979  15.779  18.605  0.00  0.00    +0.000 A 
ATOM     20  C   UNL     1       1.826  14.536  19.223  0.00  0.00    +0.000 A 
ENDBRANCH  12  15
ENDBRANCH   1  12
BRANCH   1  21
ATOM     21  C   UNL     1      -1.498  11.285  19.267  0.00  0.00    +0.000 C 
BRANCH  21  22
ATOM     22  C   UNL     1      -1.884  11.622  17.825  0.00  0.00    +0.000 C 
BRANCH  22  23
ATOM     23  C   UNL     1      -2.101  10.402  16.929  0.00  0.00    +0.000 C 
BRANCH  23  25
ATOM     24  C   UNL     1      -3.117  10.123  14.570  0.00  0.00    +0.000 C 
ATOM     25  C   UNL     1      -3.267  10.636  15.977  0.00  0.00    +0.000 C 
ATOM     26  O   UNL     1      -4.294  11.223  16.321  0.00  0.00    +0.000 OA
ENDBRANCH  23  25
ENDBRANCH  22  23
ENDBRANCH  21  22
ENDBRANCH   1  21
TORSDOF 7
ENDMDL
MODEL 2
REMARK VINA RESULT:      -6.5      5.647      9.614
REMARK  Name = 
REMARK  8 active torsions:
REMARK  status: ('A' for Active; 'I' for Inactive)
REMARK    1  A    between atoms: C_1  and  C_2
REMARK    2  A    between atoms: C_2  and  C_4
REMARK    3  A    between atoms: C_4  and  C_5
REMARK    4  A    between atoms: C_5  and  C_6
REMARK    5  A    between atoms: C_6  and  N_7
REMARK    6  A    between atoms: N_7  and  C_8
REMARK    7  A    between atoms: N_7  and  S_18
REMARK    8  A    between atoms: S_18  and  C_21
REMARK                            x       y       z     vdW  Elec       q    Type
REMARK                         _______ _______ _______ _____ _____    ______ ____
ROOT
ATOM      1  N   UNL     1       4.567   4.528  18.017  0.00  0.00    +0.000 N 
ENDROOT
BRANCH   1   2
ATOM      2  C   UNL     1       3.932   5.793  18.315  0.00  0.00    +0.000 A 
ATOM      3  S   UNL     1       3.153   6.009  19.816  0.00  0.00    +0.000 S 
ATOM      4  C   UNL     1       2.395   7.464  19.299  0.00  0.00    +0.000 A 
ATOM      5  C   UNL     1       1.395   8.179  19.990  0.00  0.00    +0.000 A 
ATOM      6  C   UNL     1       0.917   9.370  19.445  0.00  0.00    +0.000 A 
ATOM      7  C   UNL     1       1.452   9.868  18.268  0.00  0.00    +0.000 A 
ATOM      8  C   UNL     1       2.433   9.146  17.578  0.00  0.00    +0.000 A 
ATOM      9  C   UNL     1       2.892   7.892  18.064  0.00  0.00    +0.000 A 
ATOM     10  C   UNL     1       3.752   6.887  17.494  0.00  0.00    +0.000 A 
ATOM     11 BR   UNL     1       4.402   7.072  15.718  0.00  0.00    +0.000 Br
ENDBRANCH   1   2
BRANCH   1  12
ATOM     12  S   UNL     1       3.471   3.266  17.631  0.00  0.00    +0.000 S 
ATOM     13  O   UNL     1       2.468   3.783  16.724  0.00  0.00    +0.000 OA
ATOM     14  O   UNL     1       4.199   2.055  17.316  0.00  0.00    +0.000 OA
BRANCH  12  15
ATOM     15  C   UNL     1       2.656   2.954  19.198  0.00  0.00    +0.000 A 
ATOM     16  C   UNL     1       3.402   2.564  20.314  0.00  0.00    +0.000 A 
ATOM     17  C   UNL     1       2.780   2.462  21.564  0.00  0.00    +0.000 A 
ATOM     18  C   UNL     1       1.421   2.765  21.699  0.00  0.00    +0.000 A 
ATOM     19  C   UNL     1       0.683   3.166  20.587  0.00  0.00    +0.000 A 
ATOM     20  C   UNL     1       1.296   3.265  19.336  0.00  0.00    +0.000 A 
ENDBRANCH  12  15
ENDBRANCH   1  12
BRANCH   1  21
ATOM     21  C   UNL     1       5.723   4.138  18.893  0.00  0.00    +0.000 C 
BRANCH  21  22
ATOM     22  C   UNL     1       7.037   4.647  18.295  0.00  0.00    +0.000 C 
BRANCH  22  23
ATOM     23  C   UNL     1       7.425   6.058  18.736  0.00  0.00    +0.000 C 
BRANCH  23  25
ATOM     24  C   UNL     1       7.902   8.415  17.791  0.00  0.00    +0.000 C 
ATOM     25  C   UNL     1       7.657   6.954  17.525  0.00  0.00    +0.000 C 
ATOM     26  O   UNL     1       7.642   6.522  16.372  0.00  0.00    +0.000 OA
ENDBRANCH  23  25
ENDBRANCH  22  23
ENDBRANCH  21  22
ENDBRANCH   1  21
TORSDOF 7
ENDMDL
MODEL 3
REMARK VINA RESULT:      -6.5      5.678      9.287
REMARK  Name = 
REMARK  8 active torsions:
REMARK  status: ('A' for Active; 'I' for Inactive)
REMARK    1  A    between atoms: C_1  and  C_2
REMARK    2  A    between atoms: C_2  and  C_4
REMARK    3  A    between atoms: C_4  and  C_5
REMARK    4  A    between atoms: C_5  and  C_6
REMARK    5  A    between atoms: C_6  and  N_7
REMARK    6  A    between atoms: N_7  and  C_8
REMARK    7  A    between atoms: N_7  and  S_18
REMARK    8  A    between atoms: S_18  and  C_21
REMARK                            x       y       z     vdW  Elec       q    Type
REMARK                         _______ _______ _______ _____ _____    ______ ____
ROOT
ATOM      1  N   UNL     1       4.895   5.460  16.320  0.00  0.00    +0.000 N 
ENDROOT
BRANCH   1   2
ATOM      2  C   UNL     1       4.249   4.656  17.335  0.00  0.00    +0.000 A 
ATOM      3  S   UNL     1       2.789   3.856  16.968  0.00  0.00    +0.000 S 
ATOM      4  C   UNL     1       2.489   3.486  18.620  0.00  0.00    +0.000 A 
ATOM      5  C   UNL     1       1.303   2.943  19.156  0.00  0.00    +0.000 A 
ATOM      6  C   UNL     1       1.242   2.663  20.520  0.00  0.00    +0.000 A 
ATOM      7  C   UNL     1       2.349   2.868  21.328  0.00  0.00    +0.000 A 
ATOM      8  C   UNL     1       3.520   3.422  20.795  0.00  0.00    +0.000 A 
ATOM      9  C   UNL     1       3.592   3.789  19.423  0.00  0.00    +0.000 A 
ATOM     10  C   UNL     1       4.586   4.504  18.663  0.00  0.00    +0.000 A 
ATOM     11 BR   UNL     1       6.102   5.255  19.527  0.00  0.00    +0.000 Br
ENDBRANCH   1   2
BRANCH   1  12
ATOM     12  S   UNL     1       6.549   5.081  16.071  0.00  0.00    +0.000 S 
ATOM     13  O   UNL     1       7.339   6.273  16.303  0.00  0.00    +0.000 OA
ATOM     14  O   UNL     1       6.878   3.837  16.733  0.00  0.00    +0.000 OA
BRANCH  12  15
ATOM     15  C   UNL     1       6.618   4.734  14.314  0.00  0.00    +0.000 A 
ATOM     16  C   UNL     1       7.626   5.297  13.524  0.00  0.00    +0.000 A 
ATOM     17  C   UNL     1       7.758   4.910  12.185  0.00  0.00    +0.000 A 
ATOM     18  C   UNL     1       6.896   3.949  11.644  0.00  0.00    +0.000 A 
ATOM     19  C   UNL     1       5.901   3.380  12.437  0.00  0.00    +0.000 A 
ATOM     20  C   UNL     1       5.760   3.767  13.771  0.00  0.00    +0.000 A 
ENDBRANCH  12  15
ENDBRANCH   1  12
BRANCH   1  21
ATOM     21  C   UNL     1       4.556   6.923  16.311  0.00  0.00    +0.000 C 
BRANCH  21  22
ATOM     22  C   UNL     1       4.016   7.351  17.678  0.00  0.00    +0.000 C 
BRANCH  22  23
ATOM     23  C   UNL     1       2.711   8.145  17.619  0.00  0.00    +0.000 C 
BRANCH  23  25
ATOM     24  C   UNL     1       1.134   9.331  19.287  0.00  0.00    +0.000 C 
ATOM     25  C   UNL     1       2.032   8.162  18.983  0.00  0.00    +0.000 C 
ATOM     26  O   UNL     1       2.202   7.272  19.817  0.00  0.00    +0.000 OA
ENDBRANCH  23  25
ENDBRANCH  22  23
ENDBRANCH  21  22
ENDBRANCH   1  21
TORSDOF 7
ENDMDL
MODEL 4
REMARK VINA RESULT:      -6.3      5.662      9.559
REMARK  Name = 
REMARK  8 active torsions:
REMARK  status: ('A' for Active; 'I' for Inactive)
REMARK    1  A    between atoms: C_1  and  C_2
REMARK    2  A    between atoms: C_2  and  C_4
REMARK    3  A    between atoms: C_4  and  C_5
REMARK    4  A    between atoms: C_5  and  C_6
REMARK    5  A    between atoms: C_6  and  N_7
REMARK    6  A    between atoms: N_7  and  C_8
REMARK    7  A    between atoms: N_7  and  S_18
REMARK    8  A    between atoms: S_18  and  C_21
REMARK                            x       y       z     vdW  Elec       q    Type
REMARK                         _______ _______ _______ _____ _____    ______ ____
ROOT
ATOM      1  N   UNL     1       4.549   4.542  17.935  0.00  0.00    +0.000 N 
ENDROOT
BRANCH   1   2
ATOM      2  C   UNL     1       3.927   5.810  18.249  0.00  0.00    +0.000 A 
ATOM      3  S   UNL     1       3.144   6.012  19.750  0.00  0.00    +0.000 S 
ATOM      4  C   UNL     1       2.404   7.482  19.253  0.00  0.00    +0.000 A 
ATOM      5  C   UNL     1       1.409   8.198  19.950  0.00  0.00    +0.000 A 
ATOM      6  C   UNL     1       0.945   9.402  19.422  0.00  0.00    +0.000 A 
ATOM      7  C   UNL     1       1.491   9.912  18.255  0.00  0.00    +0.000 A 
ATOM      8  C   UNL     1       2.467   9.189  17.557  0.00  0.00    +0.000 A 
ATOM      9  C   UNL     1       2.910   7.923  18.026  0.00  0.00    +0.000 A 
ATOM     10  C   UNL     1       3.762   6.917  17.445  0.00  0.00    +0.000 A 
ATOM     11 BR   UNL     1       4.421   7.123  15.674  0.00  0.00    +0.000 Br
ENDBRANCH   1   2
BRANCH   1  12
ATOM     12  S   UNL     1       3.440   3.256  17.696  0.00  0.00    +0.000 S 
ATOM     13  O   UNL     1       2.433   3.681  16.746  0.00  0.00    +0.000 OA
ATOM     14  O   UNL     1       4.156   2.012  17.506  0.00  0.00    +0.000 OA
BRANCH  12  15
ATOM     15  C   UNL     1       2.637   3.121  19.293  0.00  0.00    +0.000 A 
ATOM     16  C   UNL     1       1.262   3.345  19.411  0.00  0.00    +0.000 A 
ATOM     17  C   UNL     1       0.620   3.099  20.630  0.00  0.00    +0.000 A 
ATOM     18  C   UNL     1       1.348   2.613  21.722  0.00  0.00    +0.000 A 
ATOM     19  C   UNL     1       2.716   2.378  21.597  0.00  0.00    +0.000 A 
ATOM     20  C   UNL     1       3.364   2.627  20.386  0.00  0.00    +0.000 A 
ENDBRANCH  12  15
ENDBRANCH   1  12
BRANCH   1  21
ATOM     21  C   UNL     1       5.787   4.196  18.711  0.00  0.00    +0.000 C 
BRANCH  21  22
ATOM     22  C   UNL     1       6.395   5.457  19.331  0.00  0.00    +0.000 C 
BRANCH  22  23
ATOM     23  C   UNL     1       7.781   5.817  18.795  0.00  0.00    +0.000 C 
BRANCH  23  25
ATOM     24  C   UNL     1       7.705   8.137  17.659  0.00  0.00    +0.000 C 
ATOM     25  C   UNL     1       7.664   6.639  17.517  0.00  0.00    +0.000 C 
ATOM     26  O   UNL     1       7.535   6.120  16.408  0.00  0.00    +0.000 OA
ENDBRANCH  23  25
ENDBRANCH  22  23
ENDBRANCH  21  22
ENDBRANCH   1  21
TORSDOF 7
ENDMDL
MODEL 5
REMARK VINA RESULT:      -6.3      5.674      9.230
REMARK  Name = 
REMARK  8 active torsions:
REMARK  status: ('A' for Active; 'I' for Inactive)
REMARK    1  A    between atoms: C_1  and  C_2
REMARK    2  A    between atoms: C_2  and  C_4
REMARK    3  A    between atoms: C_4  and  C_5
REMARK    4  A    between atoms: C_5  and  C_6
REMARK    5  A    between atoms: C_6  and  N_7
REMARK    6  A    between atoms: N_7  and  C_8
REMARK    7  A    between atoms: N_7  and  S_18
REMARK    8  A    between atoms: S_18  and  C_21
REMARK                            x       y       z     vdW  Elec       q    Type
REMARK                         _______ _______ _______ _____ _____    ______ ____
ROOT
ATOM      1  N   UNL     1       5.059   5.485  16.318  0.00  0.00    +0.000 N 
ENDROOT
BRANCH   1   2
ATOM      2  C   UNL     1       4.419   4.639  17.302  0.00  0.00    +0.000 A 
ATOM      3  S   UNL     1       3.012   3.775  16.877  0.00  0.00    +0.000 S 
ATOM      4  C   UNL     1       2.674   3.370  18.513  0.00  0.00    +0.000 A 
ATOM      5  C   UNL     1       1.498   2.765  19.002  0.00  0.00    +0.000 A 
ATOM      6  C   UNL     1       1.404   2.466  20.360  0.00  0.00    +0.000 A 
ATOM      7  C   UNL     1       2.472   2.713  21.208  0.00  0.00    +0.000 A 
ATOM      8  C   UNL     1       3.632   3.329  20.721  0.00  0.00    +0.000 A 
ATOM      9  C   UNL     1       3.734   3.716  19.357  0.00  0.00    +0.000 A 
ATOM     10  C   UNL     1       4.717   4.486  18.639  0.00  0.00    +0.000 A 
ATOM     11 BR   UNL     1       6.165   5.298  19.563  0.00  0.00    +0.000 Br
ENDBRANCH   1   2
BRANCH   1  12
ATOM     12  S   UNL     1       6.733   5.177  16.111  0.00  0.00    +0.000 S 
ATOM     13  O   UNL     1       7.453   6.431  16.213  0.00  0.00    +0.000 OA
ATOM     14  O   UNL     1       7.130   4.032  16.903  0.00  0.00    +0.000 OA
BRANCH  12  15
ATOM     15  C   UNL     1       6.833   4.648  14.401  0.00  0.00    +0.000 A 
ATOM     16  C   UNL     1       5.922   3.714  13.899  0.00  0.00    +0.000 A 
ATOM     17  C   UNL     1       5.916   3.415  12.531  0.00  0.00    +0.000 A 
ATOM     18  C   UNL     1       6.808   4.061  11.668  0.00  0.00    +0.000 A 
ATOM     19  C   UNL     1       7.706   5.001  12.169  0.00  0.00    +0.000 A 
ATOM     20  C   UNL     1       7.721   5.299  13.533  0.00  0.00    +0.000 A 
ENDBRANCH  12  15
ENDBRANCH   1  12
BRANCH   1  21
ATOM     21  C   UNL     1       4.661   6.933  16.322  0.00  0.00    +0.000 C 
BRANCH  21  22
ATOM     22  C   UNL     1       3.910   7.273  17.612  0.00  0.00    +0.000 C 
BRANCH  22  23
ATOM     23  C   UNL     1       2.450   7.676  17.403  0.00  0.00    +0.000 C 
BRANCH  23  25
ATOM     24  C   UNL     1       1.563   9.953  18.241  0.00  0.00    +0.000 C 
ATOM     25  C   UNL     1       1.960   8.537  18.561  0.00  0.00    +0.000 C 
ATOM     26  O   UNL     1       1.892   8.114  19.715  0.00  0.00    +0.000 OA
ENDBRANCH  23  25
ENDBRANCH  22  23
ENDBRANCH  21  22
ENDBRANCH   1  21
TORSDOF 7
ENDMDL
MODEL 6
REMARK VINA RESULT:      -6.3      0.547      1.104
REMARK  Name = 
REMARK  8 active torsions:
REMARK  status: ('A' for Active; 'I' for Inactive)
REMARK    1  A    between atoms: C_1  and  C_2
REMARK    2  A    between atoms: C_2  and  C_4
REMARK    3  A    between atoms: C_4  and  C_5
REMARK    4  A    between atoms: C_5  and  C_6
REMARK    5  A    between atoms: C_6  and  N_7
REMARK    6  A    between atoms: N_7  and  C_8
REMARK    7  A    between atoms: N_7  and  S_18
REMARK    8  A    between atoms: S_18  and  C_21
REMARK                            x       y       z     vdW  Elec       q    Type
REMARK                         _______ _______ _______ _____ _____    ______ ____
ROOT
ATOM      1  N   UNL     1       0.060  11.553  19.350  0.00  0.00    +0.000 N 
ENDROOT
BRANCH   1   2
ATOM      2  C   UNL     1       0.909  10.383  19.288  0.00  0.00    +0.000 A 
ATOM      3  S   UNL     1       2.014  10.216  18.000  0.00  0.00    +0.000 S 
ATOM      4  C   UNL     1       2.327   8.569  18.382  0.00  0.00    +0.000 A 
ATOM      5  C   UNL     1       3.064   7.653  17.604  0.00  0.00    +0.000 A 
ATOM      6  C   UNL     1       3.258   6.359  18.084  0.00  0.00    +0.000 A 
ATOM      7  C   UNL     1       2.778   5.994  19.331  0.00  0.00    +0.000 A 
ATOM      8  C   UNL     1       2.032   6.902  20.094  0.00  0.00    +0.000 A 
ATOM      9  C   UNL     1       1.751   8.206  19.603  0.00  0.00    +0.000 A 
ATOM     10  C   UNL     1       0.901   9.262  20.090  0.00  0.00    +0.000 A 
ATOM     11 BR   UNL     1      -0.202   8.984  21.613  0.00  0.00    +0.000 Br
ENDBRANCH   1   2
BRANCH   1  12
ATOM     12  S   UNL     1       0.351  12.560  20.706  0.00  0.00    +0.000 S 
ATOM     13  O   UNL     1      -0.826  12.557  21.550  0.00  0.00    +0.000 OA
ATOM     14  O   UNL     1       1.659  12.281  21.261  0.00  0.00    +0.000 OA
BRANCH  12  15
ATOM     15  C   UNL     1       0.470  14.192  19.972  0.00  0.00    +0.000 A 
ATOM     16  C   UNL     1       1.684  14.640  19.443  0.00  0.00    +0.000 A 
ATOM     17  C   UNL     1       1.734  15.853  18.746  0.00  0.00    +0.000 A 
ATOM     18  C   UNL     1       0.569  16.606  18.564  0.00  0.00    +0.000 A 
ATOM     19  C   UNL     1      -0.643  16.151  19.082  0.00  0.00    +0.000 A 
ATOM     20  C   UNL     1      -0.698  14.945  19.783  0.00  0.00    +0.000 A 
ENDBRANCH  12  15
ENDBRANCH   1  12
BRANCH   1  21
ATOM     21  C   UNL     1      -1.384  11.349  18.991  0.00  0.00    +0.000 C 
BRANCH  21  22
ATOM     22  C   UNL     1      -1.517  10.262  17.921  0.00  0.00    +0.000 C 
BRANCH  22  23
ATOM     23  C   UNL     1      -2.956   9.830  17.637  0.00  0.00    +0.000 C 
BRANCH  23  25
ATOM     24  C   UNL     1      -2.973  10.594  15.169  0.00  0.00    +0.000 C 
ATOM     25  C   UNL     1      -3.570  10.699  16.547  0.00  0.00    +0.000 C 
ATOM     26  O   UNL     1      -4.511  11.464  16.763  0.00  0.00    +0.000 OA
ENDBRANCH  23  25
ENDBRANCH  22  23
ENDBRANCH  21  22
ENDBRANCH   1  21
TORSDOF 7
ENDMDL
MODEL 7
REMARK VINA RESULT:      -6.3      2.032      2.698
REMARK  Name = 
REMARK  8 active torsions:
REMARK  status: ('A' for Active; 'I' for Inactive)
REMARK    1  A    between atoms: C_1  and  C_2
REMARK    2  A    between atoms: C_2  and  C_4
REMARK    3  A    between atoms: C_4  and  C_5
REMARK    4  A    between atoms: C_5  and  C_6
REMARK    5  A    between atoms: C_6  and  N_7
REMARK    6  A    between atoms: N_7  and  C_8
REMARK    7  A    between atoms: N_7  and  S_18
REMARK    8  A    between atoms: S_18  and  C_21
REMARK                            x       y       z     vdW  Elec       q    Type
REMARK                         _______ _______ _______ _____ _____    ______ ____
ROOT
ATOM      1  N   UNL     1      -0.075  11.161  19.323  0.00  0.00    +0.000 N 
ENDROOT
BRANCH   1   2
ATOM      2  C   UNL     1       0.860  10.057  19.277  0.00  0.00    +0.000 A 
ATOM      3  S   UNL     1       1.955   9.940  17.976  0.00  0.00    +0.000 S 
ATOM      4  C   UNL     1       2.398   8.332  18.393  0.00  0.00    +0.000 A 
ATOM      5  C   UNL     1       3.191   7.454  17.627  0.00  0.00    +0.000 A 
ATOM      6  C   UNL     1       3.490   6.191  18.136  0.00  0.00    +0.000 A 
ATOM      7  C   UNL     1       3.056   5.824  19.400  0.00  0.00    +0.000 A 
ATOM      8  C   UNL     1       2.256   6.693  20.152  0.00  0.00    +0.000 A 
ATOM      9  C   UNL     1       1.869   7.959  19.633  0.00  0.00    +0.000 A 
ATOM     10  C   UNL     1       0.948   8.960  20.107  0.00  0.00    +0.000 A 
ATOM     11 BR   UNL     1      -0.108   8.640  21.655  0.00  0.00    +0.000 Br
ENDBRANCH   1   2
BRANCH   1  12
ATOM     12  S   UNL     1       0.393  12.433  20.373  0.00  0.00    +0.000 S 
ATOM     13  O   UNL     1       1.456  11.958  21.235  0.00  0.00    +0.000 OA
ATOM     14  O   UNL     1       0.542  13.664  19.626  0.00  0.00    +0.000 OA
BRANCH  12  15
ATOM     15  C   UNL     1      -1.059  12.656  21.400  0.00  0.00    +0.000 A 
ATOM     16  C   UNL     1      -2.100  13.490  20.978  0.00  0.00    +0.000 A 
ATOM     17  C   UNL     1      -3.288  13.547  21.716  0.00  0.00    +0.000 A 
ATOM     18  C   UNL     1      -3.441  12.759  22.862  0.00  0.00    +0.000 A 
ATOM     19  C   UNL     1      -2.408  11.920  23.273  0.00  0.00    +0.000 A 
ATOM     20  C   UNL     1      -1.218  11.863  22.545  0.00  0.00    +0.000 A 
ENDBRANCH  12  15
ENDBRANCH   1  12
BRANCH   1  21
ATOM     21  C   UNL     1      -1.533  10.800  19.350  0.00  0.00    +0.000 C 
BRANCH  21  22
ATOM     22  C   UNL     1      -2.232  11.324  18.093  0.00  0.00    +0.000 C 
BRANCH  22  23
ATOM     23  C   UNL     1      -2.110  10.406  16.876  0.00  0.00    +0.000 C 
BRANCH  23  25
ATOM     24  C   UNL     1      -3.088  10.087  14.506  0.00  0.00    +0.000 C 
ATOM     25  C   UNL     1      -3.229  10.686  15.880  0.00  0.00    +0.000 C 
ATOM     26  O   UNL     1      -4.209  11.375  16.163  0.00  0.00    +0.000 OA
ENDBRANCH  23  25
ENDBRANCH  22  23
ENDBRANCH  21  22
ENDBRANCH   1  21
TORSDOF 7
ENDMDL
MODEL 8
REMARK VINA RESULT:      -6.2      2.554      6.853
REMARK  Name = 
REMARK  8 active torsions:
REMARK  status: ('A' for Active; 'I' for Inactive)
REMARK    1  A    between atoms: C_1  and  C_2
REMARK    2  A    between atoms: C_2  and  C_4
REMARK    3  A    between atoms: C_4  and  C_5
REMARK    4  A    between atoms: C_5  and  C_6
REMARK    5  A    between atoms: C_6  and  N_7
REMARK    6  A    between atoms: N_7  and  C_8
REMARK    7  A    between atoms: N_7  and  S_18
REMARK    8  A    between atoms: S_18  and  C_21
REMARK                            x       y       z     vdW  Elec       q    Type
REMARK                         _______ _______ _______ _____ _____    ______ ____
ROOT
ATOM      1  N   UNL     1      -0.248  11.899  19.485  0.00  0.00    +0.000 N 
ENDROOT
BRANCH   1   2
ATOM      2  C   UNL     1      -1.676  11.993  19.269  0.00  0.00    +0.000 A 
ATOM      3  S   UNL     1      -2.617  12.978  20.295  0.00  0.00    +0.000 S 
ATOM      4  C   UNL     1      -4.090  12.316  19.706  0.00  0.00    +0.000 A 
ATOM      5  C   UNL     1      -5.379  12.533  20.235  0.00  0.00    +0.000 A 
ATOM      6  C   UNL     1      -6.477  11.950  19.606  0.00  0.00    +0.000 A 
ATOM      7  C   UNL     1      -6.309  11.208  18.447  0.00  0.00    +0.000 A 
ATOM      8  C   UNL     1      -5.026  10.981  17.934  0.00  0.00    +0.000 A 
ATOM      9  C   UNL     1      -3.877  11.499  18.591  0.00  0.00    +0.000 A 
ATOM     10  C   UNL     1      -2.466  11.294  18.381  0.00  0.00    +0.000 A 
ATOM     11 BR   UNL     1      -1.858  10.047  17.083  0.00  0.00    +0.000 Br
ENDBRANCH   1   2
BRANCH   1  12
ATOM     12  S   UNL     1       0.206  10.780  20.702  0.00  0.00    +0.000 S 
ATOM     13  O   UNL     1       1.223  11.386  21.536  0.00  0.00    +0.000 OA
ATOM     14  O   UNL     1      -0.973  10.181  21.291  0.00  0.00    +0.000 OA
BRANCH  12  15
ATOM     15  C   UNL     1       1.001   9.474  19.765  0.00  0.00    +0.000 A 
ATOM     16  C   UNL     1       1.313   9.665  18.415  0.00  0.00    +0.000 A 
ATOM     17  C   UNL     1       2.059   8.698  17.731  0.00  0.00    +0.000 A 
ATOM     18  C   UNL     1       2.507   7.554  18.400  0.00  0.00    +0.000 A 
ATOM     19  C   UNL     1       2.206   7.372  19.748  0.00  0.00    +0.000 A 
ATOM     20  C   UNL     1       1.457   8.330  20.435  0.00  0.00    +0.000 A 
ENDBRANCH  12  15
ENDBRANCH   1  12
BRANCH   1  21
ATOM     21  C   UNL     1       0.515  13.193  19.476  0.00  0.00    +0.000 C 
BRANCH  21  22
ATOM     22  C   UNL     1       1.585  13.169  18.381  0.00  0.00    +0.000 C 
BRANCH  22  23
ATOM     23  C   UNL     1       2.935  13.746  18.808  0.00  0.00    +0.000 C 
BRANCH  23  25
ATOM     24  C   UNL     1       4.457  15.444  17.594  0.00  0.00    +0.000 C 
ATOM     25  C   UNL     1       3.127  15.143  18.231  0.00  0.00    +0.000 C 
ATOM     26  O   UNL     1       2.249  16.005  18.279  0.00  0.00    +0.000 OA
ENDBRANCH  23  25
ENDBRANCH  22  23
ENDBRANCH  21  22
ENDBRANCH   1  21
TORSDOF 7
ENDMDL
MODEL 9
REMARK VINA RESULT:      -6.2      2.269      2.986
REMARK  Name = 
REMARK  8 active torsions:
REMARK  status: ('A' for Active; 'I' for Inactive)
REMARK    1  A    between atoms: C_1  and  C_2
REMARK    2  A    between atoms: C_2  and  C_4
REMARK    3  A    between atoms: C_4  and  C_5
REMARK    4  A    between atoms: C_5  and  C_6
REMARK    5  A    between atoms: C_6  and  N_7
REMARK    6  A    between atoms: N_7  and  C_8
REMARK    7  A    between atoms: N_7  and  S_18
REMARK    8  A    between atoms: S_18  and  C_21
REMARK                            x       y       z     vdW  Elec       q    Type
REMARK                         _______ _______ _______ _____ _____    ______ ____
ROOT
ATOM      1  N   UNL     1      -0.041  10.912  19.215  0.00  0.00    +0.000 N 
ENDROOT
BRANCH   1   2
ATOM      2  C   UNL     1       0.908   9.820  19.232  0.00  0.00    +0.000 A 
ATOM      3  S   UNL     1       2.031   9.665  17.959  0.00  0.00    +0.000 S 
ATOM      4  C   UNL     1       2.485   8.081  18.450  0.00  0.00    +0.000 A 
ATOM      5  C   UNL     1       3.304   7.184  17.736  0.00  0.00    +0.000 A 
ATOM      6  C   UNL     1       3.609   5.947  18.302  0.00  0.00    +0.000 A 
ATOM      7  C   UNL     1       3.155   5.626  19.571  0.00  0.00    +0.000 A 
ATOM      8  C   UNL     1       2.328   6.514  20.271  0.00  0.00    +0.000 A 
ATOM      9  C   UNL     1       1.936   7.752  19.693  0.00  0.00    +0.000 A 
ATOM     10  C   UNL     1       0.993   8.759  20.108  0.00  0.00    +0.000 A 
ATOM     11 BR   UNL     1      -0.090   8.488  21.646  0.00  0.00    +0.000 Br
ENDBRANCH   1   2
BRANCH   1  12
ATOM     12  S   UNL     1       0.304  12.160  20.339  0.00  0.00    +0.000 S 
ATOM     13  O   UNL     1       1.327  11.693  21.253  0.00  0.00    +0.000 OA
ATOM     14  O   UNL     1       0.452  13.424  19.649  0.00  0.00    +0.000 OA
BRANCH  12  15
ATOM     15  C   UNL     1      -1.221  12.287  21.274  0.00  0.00    +0.000 A 
ATOM     16  C   UNL     1      -1.319  11.710  22.543  0.00  0.00    +0.000 A 
ATOM     17  C   UNL     1      -2.460  11.936  23.323  0.00  0.00    +0.000 A 
ATOM     18  C   UNL     1      -3.490  12.750  22.840  0.00  0.00    +0.000 A 
ATOM     19  C   UNL     1      -3.384  13.335  21.579  0.00  0.00    +0.000 A 
ATOM     20  C   UNL     1      -2.251  13.109  20.795  0.00  0.00    +0.000 A 
ENDBRANCH  12  15
ENDBRANCH   1  12
BRANCH   1  21
ATOM     21  C   UNL     1      -1.490  10.536  19.088  0.00  0.00    +0.000 C 
BRANCH  21  22
ATOM     22  C   UNL     1      -1.883  10.431  17.612  0.00  0.00    +0.000 C 
BRANCH  22  23
ATOM     23  C   UNL     1      -3.259   9.808  17.370  0.00  0.00    +0.000 C 
BRANCH  23  25
ATOM     24  C   UNL     1      -5.322  11.012  18.354  0.00  0.00    +0.000 C 
ATOM     25  C   UNL     1      -4.321  10.892  17.236  0.00  0.00    +0.000 C 
ATOM     26  O   UNL     1      -4.380  11.642  16.262  0.00  0.00    +0.000 OA
ENDBRANCH  23  25
ENDBRANCH  22  23
ENDBRANCH  21  22
ENDBRANCH   1  21
TORSDOF 7
ENDMDL
