MODEL 1
REMARK VINA RESULT:      -6.9      0.000      0.000
REMARK  Name = 
REMARK  2 active torsions:
REMARK  status: ('A' for Active; 'I' for Inactive)
REMARK    1  A    between atoms: N_13  and  C_14
REMARK    2  A    between atoms: C_14  and  C_15
REMARK                            x       y       z     vdW  Elec       q    Type
REMARK                         _______ _______ _______ _____ _____    ______ ____
ROOT
ATOM      1  O   UNL     1       2.203   9.312  17.450  0.00  0.00    +0.000 OA
ATOM      2  C   UNL     1       1.833   8.910  18.553  0.00  0.00    +0.000 A 
ATOM      3  C   UNL     1       0.952   9.631  19.413  0.00  0.00    +0.000 A 
ATOM      4  S   UNL     1       0.292  11.151  19.058  0.00  0.00    +0.000 S 
ATOM      5  C   UNL     1      -0.576  11.162  20.541  0.00  0.00    +0.000 A 
ATOM      6  C   UNL     1      -0.346  10.022  21.287  0.00  0.00    +0.000 A 
ATOM      7  C   UNL     1       0.540   9.150  20.617  0.00  0.00    +0.000 A 
ATOM      8  N   UNL     1       0.945   7.915  21.115  0.00  0.00    +0.000 NA
ATOM      9  C   UNL     1       1.754   7.248  20.341  0.00  0.00    +0.000 A 
ATOM     10  N   UNL     1       2.223   7.683  19.097  0.00  0.00    +0.000 N 
ATOM     11  C   UNL     1       3.092   6.856  18.271  0.00  0.00    +0.000 C 
ATOM     12  C   UNL     1       2.388   5.564  17.825  0.00  0.00    +0.000 C 
ATOM     13  N   UNL     1       2.495   4.440  18.768  0.00  0.00    +0.000 NA
ATOM     14  C   UNL     1       1.727   4.719  19.995  0.00  0.00    +0.000 C 
ATOM     15  C   UNL     1       2.213   5.889  20.855  0.00  0.00    +0.000 C 
ENDROOT
BRANCH  13  16
ATOM     16  C   UNL     1       3.881   4.019  19.066  0.00  0.00    +0.000 C 
BRANCH  16  17
ATOM     17  C   UNL     1       4.826   4.117  17.893  0.00  0.00    +0.000 A 
ATOM     18  C   UNL     1       4.684   3.631  16.610  0.00  0.00    +0.000 A 
ATOM     19  C   UNL     1       5.843   3.863  15.805  0.00  0.00    +0.000 A 
ATOM     20  C   UNL     1       6.813   4.561  16.487  0.00  0.00    +0.000 A 
ATOM     21  S   UNL     1       6.349   4.893  18.096  0.00  0.00    +0.000 S 
ENDBRANCH  16  17
ENDBRANCH  13  16
TORSDOF 2
ENDMDL
MODEL 2
REMARK VINA RESULT:      -6.8      4.427      7.327
REMARK  Name = 
REMARK  2 active torsions:
REMARK  status: ('A' for Active; 'I' for Inactive)
REMARK    1  A    between atoms: N_13  and  C_14
REMARK    2  A    between atoms: C_14  and  C_15
REMARK                            x       y       z     vdW  Elec       q    Type
REMARK                         _______ _______ _______ _____ _____    ______ ____
ROOT
ATOM      1  O   UNL     1       7.850   6.441  15.832  0.00  0.00    +0.000 OA
ATOM      2  C   UNL     1       6.997   5.607  15.527  0.00  0.00    +0.000 A 
ATOM      3  C   UNL     1       6.940   4.946  14.264  0.00  0.00    +0.000 A 
ATOM      4  S   UNL     1       8.022   5.215  12.988  0.00  0.00    +0.000 S 
ATOM      5  C   UNL     1       7.225   4.043  12.015  0.00  0.00    +0.000 A 
ATOM      6  C   UNL     1       6.147   3.473  12.666  0.00  0.00    +0.000 A 
ATOM      7  C   UNL     1       6.000   4.009  13.964  0.00  0.00    +0.000 A 
ATOM      8  N   UNL     1       5.012   3.618  14.863  0.00  0.00    +0.000 NA
ATOM      9  C   UNL     1       5.051   4.216  16.019  0.00  0.00    +0.000 A 
ATOM     10  N   UNL     1       5.982   5.191  16.392  0.00  0.00    +0.000 N 
ATOM     11  C   UNL     1       5.984   5.783  17.724  0.00  0.00    +0.000 C 
ATOM     12  C   UNL     1       6.285   4.734  18.808  0.00  0.00    +0.000 C 
ATOM     13  N   UNL     1       5.109   4.010  19.315  0.00  0.00    +0.000 NA
ATOM     14  C   UNL     1       4.557   3.124  18.273  0.00  0.00    +0.000 C 
ATOM     15  C   UNL     1       3.985   3.807  17.028  0.00  0.00    +0.000 C 
ENDROOT
BRANCH  13  16
ATOM     16  C   UNL     1       4.069   4.872  19.916  0.00  0.00    +0.000 C 
BRANCH  16  17
ATOM     17  C   UNL     1       2.778   4.160  20.236  0.00  0.00    +0.000 A 
ATOM     18  C   UNL     1       1.513   4.362  19.722  0.00  0.00    +0.000 A 
ATOM     19  C   UNL     1       0.530   3.530  20.342  0.00  0.00    +0.000 A 
ATOM     20  C   UNL     1       1.084   2.685  21.275  0.00  0.00    +0.000 A 
ATOM     21  S   UNL     1       2.767   2.926  21.435  0.00  0.00    +0.000 S 
ENDBRANCH  16  17
ENDBRANCH  13  16
TORSDOF 2
ENDMDL
MODEL 3
REMARK VINA RESULT:      -6.5      2.664      8.117
REMARK  Name = 
REMARK  2 active torsions:
REMARK  status: ('A' for Active; 'I' for Inactive)
REMARK    1  A    between atoms: N_13  and  C_14
REMARK    2  A    between atoms: C_14  and  C_15
REMARK                            x       y       z     vdW  Elec       q    Type
REMARK                         _______ _______ _______ _____ _____    ______ ____
ROOT
ATOM      1  O   UNL     1       2.150   9.412  17.493  0.00  0.00    +0.000 OA
ATOM      2  C   UNL     1       1.972   8.698  18.480  0.00  0.00    +0.000 A 
ATOM      3  C   UNL     1       2.605   7.435  18.678  0.00  0.00    +0.000 A 
ATOM      4  S   UNL     1       3.683   6.717  17.585  0.00  0.00    +0.000 S 
ATOM      5  C   UNL     1       3.905   5.370  18.630  0.00  0.00    +0.000 A 
ATOM      6  C   UNL     1       3.152   5.478  19.784  0.00  0.00    +0.000 A 
ATOM      7  C   UNL     1       2.408   6.678  19.792  0.00  0.00    +0.000 A 
ATOM      8  N   UNL     1       1.570   7.070  20.832  0.00  0.00    +0.000 NA
ATOM      9  C   UNL     1       0.983   8.221  20.662  0.00  0.00    +0.000 A 
ATOM     10  N   UNL     1       1.133   9.046  19.542  0.00  0.00    +0.000 N 
ATOM     11  C   UNL     1       0.473  10.341  19.448  0.00  0.00    +0.000 C 
ATOM     12  C   UNL     1       0.973  11.311  20.531  0.00  0.00    +0.000 C 
ATOM     13  N   UNL     1       0.260  11.230  21.815  0.00  0.00    +0.000 NA
ATOM     14  C   UNL     1       0.550   9.951  22.488  0.00  0.00    +0.000 C 
ATOM     15  C   UNL     1       0.062   8.681  21.785  0.00  0.00    +0.000 C 
ENDROOT
BRANCH  13  16
ATOM     16  C   UNL     1      -1.192  11.493  21.728  0.00  0.00    +0.000 C 
BRANCH  16  17
ATOM     17  C   UNL     1      -1.687  12.571  22.662  0.00  0.00    +0.000 A 
ATOM     18  C   UNL     1      -1.043  13.706  23.110  0.00  0.00    +0.000 A 
ATOM     19  C   UNL     1      -1.825  14.444  24.052  0.00  0.00    +0.000 A 
ATOM     20  C   UNL     1      -3.060  13.873  24.257  0.00  0.00    +0.000 A 
ATOM     21  S   UNL     1      -3.256  12.436  23.355  0.00  0.00    +0.000 S 
ENDBRANCH  16  17
ENDBRANCH  13  16
TORSDOF 2
ENDMDL
MODEL 4
REMARK VINA RESULT:      -6.2      4.413      5.468
REMARK  Name = 
REMARK  2 active torsions:
REMARK  status: ('A' for Active; 'I' for Inactive)
REMARK    1  A    between atoms: N_13  and  C_14
REMARK    2  A    between atoms: C_14  and  C_15
REMARK                            x       y       z     vdW  Elec       q    Type
REMARK                         _______ _______ _______ _____ _____    ______ ____
ROOT
ATOM      1  O   UNL     1       2.293   2.284  17.222  0.00  0.00    +0.000 OA
ATOM      2  C   UNL     1       2.772   3.105  18.004  0.00  0.00    +0.000 A 
ATOM      3  C   UNL     1       2.338   3.274  19.352  0.00  0.00    +0.000 A 
ATOM      4  S   UNL     1       1.091   2.386  20.079  0.00  0.00    +0.000 S 
ATOM      5  C   UNL     1       1.321   3.212  21.569  0.00  0.00    +0.000 A 
ATOM      6  C   UNL     1       2.330   4.154  21.491  0.00  0.00    +0.000 A 
ATOM      7  C   UNL     1       2.904   4.174  20.201  0.00  0.00    +0.000 A 
ATOM      8  N   UNL     1       3.953   5.008  19.827  0.00  0.00    +0.000 NA
ATOM      9  C   UNL     1       4.358   4.866  18.596  0.00  0.00    +0.000 A 
ATOM     10  N   UNL     1       3.818   3.969  17.668  0.00  0.00    +0.000 N 
ATOM     11  C   UNL     1       4.358   3.840  16.321  0.00  0.00    +0.000 C 
ATOM     12  C   UNL     1       5.807   3.328  16.338  0.00  0.00    +0.000 C 
ATOM     13  N   UNL     1       6.834   4.374  16.468  0.00  0.00    +0.000 NA
ATOM     14  C   UNL     1       6.782   4.987  17.807  0.00  0.00    +0.000 C 
ATOM     15  C   UNL     1       5.508   5.762  18.156  0.00  0.00    +0.000 C 
ENDROOT
BRANCH  13  16
ATOM     16  C   UNL     1       6.815   5.389  15.393  0.00  0.00    +0.000 C 
BRANCH  16  17
ATOM     17  C   UNL     1       6.823   4.817  13.996  0.00  0.00    +0.000 A 
ATOM     18  C   UNL     1       6.000   3.861  13.436  0.00  0.00    +0.000 A 
ATOM     19  C   UNL     1       6.379   3.530  12.097  0.00  0.00    +0.000 A 
ATOM     20  C   UNL     1       7.448   4.279  11.663  0.00  0.00    +0.000 A 
ATOM     21  S   UNL     1       8.019   5.339  12.874  0.00  0.00    +0.000 S 
ENDBRANCH  16  17
ENDBRANCH  13  16
TORSDOF 2
ENDMDL
MODEL 5
REMARK VINA RESULT:      -6.2      1.918      2.730
REMARK  Name = 
REMARK  2 active torsions:
REMARK  status: ('A' for Active; 'I' for Inactive)
REMARK    1  A    between atoms: N_13  and  C_14
REMARK    2  A    between atoms: C_14  and  C_15
REMARK                            x       y       z     vdW  Elec       q    Type
REMARK                         _______ _______ _______ _____ _____    ______ ____
ROOT
ATOM      1  O   UNL     1       1.392   6.676  21.249  0.00  0.00    +0.000 OA
ATOM      2  C   UNL     1       1.650   7.367  20.264  0.00  0.00    +0.000 A 
ATOM      3  C   UNL     1       1.217   8.716  20.096  0.00  0.00    +0.000 A 
ATOM      4  S   UNL     1       0.270   9.568  21.214  0.00  0.00    +0.000 S 
ATOM      5  C   UNL     1       0.303  10.974  20.227  0.00  0.00    +0.000 A 
ATOM      6  C   UNL     1       1.020  10.776  19.062  0.00  0.00    +0.000 A 
ATOM      7  C   UNL     1       1.539   9.464  19.006  0.00  0.00    +0.000 A 
ATOM      8  N   UNL     1       2.317   8.976  17.960  0.00  0.00    +0.000 NA
ATOM      9  C   UNL     1       2.717   7.744  18.099  0.00  0.00    +0.000 A 
ATOM     10  N   UNL     1       2.418   6.916  19.186  0.00  0.00    +0.000 N 
ATOM     11  C   UNL     1       2.942   5.561  19.287  0.00  0.00    +0.000 C 
ATOM     12  C   UNL     1       4.476   5.553  19.393  0.00  0.00    +0.000 C 
ATOM     13  N   UNL     1       5.187   5.552  18.105  0.00  0.00    +0.000 NA
ATOM     14  C   UNL     1       5.002   6.839  17.410  0.00  0.00    +0.000 C 
ATOM     15  C   UNL     1       3.575   7.182  16.973  0.00  0.00    +0.000 C 
ENDROOT
BRANCH  13  16
ATOM     16  C   UNL     1       4.873   4.401  17.231  0.00  0.00    +0.000 C 
BRANCH  16  17
ATOM     17  C   UNL     1       5.585   4.416  15.901  0.00  0.00    +0.000 A 
ATOM     18  C   UNL     1       5.103   4.104  14.645  0.00  0.00    +0.000 A 
ATOM     19  C   UNL     1       6.117   4.168  13.639  0.00  0.00    +0.000 A 
ATOM     20  C   UNL     1       7.328   4.572  14.151  0.00  0.00    +0.000 A 
ATOM     21  S   UNL     1       7.254   4.829  15.838  0.00  0.00    +0.000 S 
ENDBRANCH  16  17
ENDBRANCH  13  16
TORSDOF 2
ENDMDL
MODEL 6
REMARK VINA RESULT:      -6.2      2.753      3.961
REMARK  Name = 
REMARK  2 active torsions:
REMARK  status: ('A' for Active; 'I' for Inactive)
REMARK    1  A    between atoms: N_13  and  C_14
REMARK    2  A    between atoms: C_14  and  C_15
REMARK                            x       y       z     vdW  Elec       q    Type
REMARK                         _______ _______ _______ _____ _____    ______ ____
ROOT
ATOM      1  O   UNL     1       0.479  10.008  22.268  0.00  0.00    +0.000 OA
ATOM      2  C   UNL     1       0.674  10.307  21.090  0.00  0.00    +0.000 A 
ATOM      3  C   UNL     1       0.651  11.643  20.589  0.00  0.00    +0.000 A 
ATOM      4  S   UNL     1       0.337  13.017  21.529  0.00  0.00    +0.000 S 
ATOM      5  C   UNL     1       0.546  14.043  20.166  0.00  0.00    +0.000 A 
ATOM      6  C   UNL     1       0.840  13.331  19.019  0.00  0.00    +0.000 A 
ATOM      7  C   UNL     1       0.895  11.945  19.285  0.00  0.00    +0.000 A 
ATOM      8  N   UNL     1       1.187  10.978  18.328  0.00  0.00    +0.000 NA
ATOM      9  C   UNL     1       1.208   9.753  18.772  0.00  0.00    +0.000 A 
ATOM     10  N   UNL     1       0.960   9.369  20.094  0.00  0.00    +0.000 N 
ATOM     11  C   UNL     1       1.046   7.979  20.520  0.00  0.00    +0.000 C 
ATOM     12  C   UNL     1       2.475   7.430  20.374  0.00  0.00    +0.000 C 
ATOM     13  N   UNL     1       2.793   6.869  19.052  0.00  0.00    +0.000 NA
ATOM     14  C   UNL     1       2.842   7.935  18.035  0.00  0.00    +0.000 C 
ATOM     15  C   UNL     1       1.529   8.670  17.750  0.00  0.00    +0.000 C 
ENDROOT
BRANCH  13  16
ATOM     16  C   UNL     1       1.924   5.747  18.636  0.00  0.00    +0.000 C 
BRANCH  16  17
ATOM     17  C   UNL     1       1.946   4.563  19.571  0.00  0.00    +0.000 A 
ATOM     18  C   UNL     1       0.935   4.047  20.357  0.00  0.00    +0.000 A 
ATOM     19  C   UNL     1       1.375   2.956  21.168  0.00  0.00    +0.000 A 
ATOM     20  C   UNL     1       2.695   2.642  20.941  0.00  0.00    +0.000 A 
ATOM     21  S   UNL     1       3.409   3.685  19.792  0.00  0.00    +0.000 S 
ENDBRANCH  16  17
ENDBRANCH  13  16
TORSDOF 2
ENDMDL
MODEL 7
REMARK VINA RESULT:      -6.0      2.397      7.828
REMARK  Name = 
REMARK  2 active torsions:
REMARK  status: ('A' for Active; 'I' for Inactive)
REMARK    1  A    between atoms: N_13  and  C_14
REMARK    2  A    between atoms: C_14  and  C_15
REMARK                            x       y       z     vdW  Elec       q    Type
REMARK                         _______ _______ _______ _____ _____    ______ ____
ROOT
ATOM      1  O   UNL     1       2.206   9.642  17.469  0.00  0.00    +0.000 OA
ATOM      2  C   UNL     1       2.044   8.855  18.402  0.00  0.00    +0.000 A 
ATOM      3  C   UNL     1       2.693   7.588  18.503  0.00  0.00    +0.000 A 
ATOM      4  S   UNL     1       3.772   6.967  17.353  0.00  0.00    +0.000 S 
ATOM      5  C   UNL     1       4.017   5.549  18.294  0.00  0.00    +0.000 A 
ATOM      6  C   UNL     1       3.272   5.563  19.457  0.00  0.00    +0.000 A 
ATOM      7  C   UNL     1       2.513   6.750  19.559  0.00  0.00    +0.000 A 
ATOM      8  N   UNL     1       1.679   7.054  20.630  0.00  0.00    +0.000 NA
ATOM      9  C   UNL     1       1.077   8.206  20.549  0.00  0.00    +0.000 A 
ATOM     10  N   UNL     1       1.208   9.113  19.492  0.00  0.00    +0.000 N 
ATOM     11  C   UNL     1       0.533  10.404  19.498  0.00  0.00    +0.000 C 
ATOM     12  C   UNL     1       1.029  11.298  20.646  0.00  0.00    +0.000 C 
ATOM     13  N   UNL     1       0.327  11.113  21.926  0.00  0.00    +0.000 NA
ATOM     14  C   UNL     1       0.637   9.792  22.501  0.00  0.00    +0.000 C 
ATOM     15  C   UNL     1       0.159   8.571  21.709  0.00  0.00    +0.000 C 
ENDROOT
BRANCH  13  16
ATOM     16  C   UNL     1      -1.129  11.364  21.868  0.00  0.00    +0.000 C 
BRANCH  16  17
ATOM     17  C   UNL     1      -1.504  12.816  21.701  0.00  0.00    +0.000 A 
ATOM     18  C   UNL     1      -2.102  13.450  20.631  0.00  0.00    +0.000 A 
ATOM     19  C   UNL     1      -2.223  14.861  20.828  0.00  0.00    +0.000 A 
ATOM     20  C   UNL     1      -1.758  15.251  22.063  0.00  0.00    +0.000 A 
ATOM     21  S   UNL     1      -1.139  13.935  22.957  0.00  0.00    +0.000 S 
ENDBRANCH  16  17
ENDBRANCH  13  16
TORSDOF 2
ENDMDL
MODEL 8
REMARK VINA RESULT:      -6.0      2.097      7.589
REMARK  Name = 
REMARK  2 active torsions:
REMARK  status: ('A' for Active; 'I' for Inactive)
REMARK    1  A    between atoms: N_13  and  C_14
REMARK    2  A    between atoms: C_14  and  C_15
REMARK                            x       y       z     vdW  Elec       q    Type
REMARK                         _______ _______ _______ _____ _____    ______ ____
ROOT
ATOM      1  O   UNL     1       2.022   5.439  21.117  0.00  0.00    +0.000 OA
ATOM      2  C   UNL     1       2.394   5.962  20.066  0.00  0.00    +0.000 A 
ATOM      3  C   UNL     1       3.086   5.269  19.028  0.00  0.00    +0.000 A 
ATOM      4  S   UNL     1       3.514   3.631  19.086  0.00  0.00    +0.000 S 
ATOM      5  C   UNL     1       4.207   3.718  17.516  0.00  0.00    +0.000 A 
ATOM      6  C   UNL     1       4.114   4.987  16.976  0.00  0.00    +0.000 A 
ATOM      7  C   UNL     1       3.463   5.868  17.866  0.00  0.00    +0.000 A 
ATOM      8  N   UNL     1       3.208   7.208  17.591  0.00  0.00    +0.000 NA
ATOM      9  C   UNL     1       2.580   7.854  18.533  0.00  0.00    +0.000 A 
ATOM     10  N   UNL     1       2.170   7.305  19.753  0.00  0.00    +0.000 N 
ATOM     11  C   UNL     1       1.432   8.086  20.737  0.00  0.00    +0.000 C 
ATOM     12  C   UNL     1       0.061   8.526  20.198  0.00  0.00    +0.000 C 
ATOM     13  N   UNL     1       0.066   9.791  19.446  0.00  0.00    +0.000 NA
ATOM     14  C   UNL     1       0.785   9.632  18.170  0.00  0.00    +0.000 C 
ATOM     15  C   UNL     1       2.282   9.323  18.261  0.00  0.00    +0.000 C 
ENDROOT
BRANCH  13  16
ATOM     16  C   UNL     1       0.551  10.958  20.214  0.00  0.00    +0.000 C 
BRANCH  16  17
ATOM     17  C   UNL     1      -0.457  11.532  21.178  0.00  0.00    +0.000 A 
ATOM     18  C   UNL     1      -0.629  11.276  22.524  0.00  0.00    +0.000 A 
ATOM     19  C   UNL     1      -1.753  11.967  23.074  0.00  0.00    +0.000 A 
ATOM     20  C   UNL     1      -2.374  12.766  22.142  0.00  0.00    +0.000 A 
ATOM     21  S   UNL     1      -1.636  12.648  20.607  0.00  0.00    +0.000 S 
ENDBRANCH  16  17
ENDBRANCH  13  16
TORSDOF 2
ENDMDL
MODEL 9
REMARK VINA RESULT:      -5.9      2.381      7.269
REMARK  Name = 
REMARK  2 active torsions:
REMARK  status: ('A' for Active; 'I' for Inactive)
REMARK    1  A    between atoms: N_13  and  C_14
REMARK    2  A    between atoms: C_14  and  C_15
REMARK                            x       y       z     vdW  Elec       q    Type
REMARK                         _______ _______ _______ _____ _____    ______ ____
ROOT
ATOM      1  O   UNL     1       1.898   5.304  21.245  0.00  0.00    +0.000 OA
ATOM      2  C   UNL     1       2.273   5.763  20.167  0.00  0.00    +0.000 A 
ATOM      3  C   UNL     1       2.832   4.980  19.114  0.00  0.00    +0.000 A 
ATOM      4  S   UNL     1       3.080   3.305  19.189  0.00  0.00    +0.000 S 
ATOM      5  C   UNL     1       3.700   3.287  17.587  0.00  0.00    +0.000 A 
ATOM      6  C   UNL     1       3.721   4.548  17.023  0.00  0.00    +0.000 A 
ATOM      7  C   UNL     1       3.216   5.512  17.922  0.00  0.00    +0.000 A 
ATOM      8  N   UNL     1       3.097   6.868  17.629  0.00  0.00    +0.000 NA
ATOM      9  C   UNL     1       2.591   7.596  18.583  0.00  0.00    +0.000 A 
ATOM     10  N   UNL     1       2.183   7.118  19.833  0.00  0.00    +0.000 N 
ATOM     11  C   UNL     1       1.585   7.992  20.833  0.00  0.00    +0.000 C 
ATOM     12  C   UNL     1       0.246   8.573  20.348  0.00  0.00    +0.000 C 
ATOM     13  N   UNL     1       0.354   9.816  19.569  0.00  0.00    +0.000 NA
ATOM     14  C   UNL     1       0.988   9.556  18.264  0.00  0.00    +0.000 C 
ATOM     15  C   UNL     1       2.444   9.084  18.292  0.00  0.00    +0.000 C 
ENDROOT
BRANCH  13  16
ATOM     16  C   UNL     1       1.002  10.935  20.286  0.00  0.00    +0.000 C 
BRANCH  16  17
ATOM     17  C   UNL     1       0.802  12.286  19.643  0.00  0.00    +0.000 A 
ATOM     18  C   UNL     1       1.741  13.214  19.242  0.00  0.00    +0.000 A 
ATOM     19  C   UNL     1       1.147  14.414  18.742  0.00  0.00    +0.000 A 
ATOM     20  C   UNL     1      -0.227  14.345  18.734  0.00  0.00    +0.000 A 
ATOM     21  S   UNL     1      -0.795  12.863  19.366  0.00  0.00    +0.000 S 
ENDBRANCH  16  17
ENDBRANCH  13  16
TORSDOF 2
ENDMDL
