MODEL 1
REMARK VINA RESULT:      -8.6      0.000      0.000
REMARK  Name = 
REMARK  5 active torsions:
REMARK  status: ('A' for Active; 'I' for Inactive)
REMARK    1  A    between atoms: C_2  and  C_22
REMARK    2  A    between atoms: N_3  and  C_4
REMARK    3  A    between atoms: C_4  and  C_5
REMARK    4  A    between atoms: C_5  and  O_6
REMARK    5  A    between atoms: O_6  and  C_7
REMARK                            x       y       z     vdW  Elec       q    Type
REMARK                         _______ _______ _______ _____ _____    ______ ____
ROOT
ATOM      1  C   UNL     1       3.074   6.125  18.934  0.00  0.00    +0.000 A 
ATOM      2  N   UNL     1       4.110   6.130  18.087  0.00  0.00    +0.000 NA
ATOM      3  C   UNL     1       4.675   4.960  17.755  0.00  0.00    +0.000 A 
ATOM      4  N   UNL     1       5.648   4.960  16.766  0.00  0.00    +0.000 N 
ATOM      5  C   UNL     1       5.487   6.021  15.774  0.00  0.00    +0.000 C 
ATOM      6  C   UNL     1       5.563   5.330  14.420  0.00  0.00    +0.000 C 
ATOM      7  C   UNL     1       6.394   4.097  14.702  0.00  0.00    +0.000 C 
ATOM      8  C   UNL     1       5.963   3.695  16.114  0.00  0.00    +0.000 C 
ATOM      9  N   UNL     1       4.303   3.803  18.310  0.00  0.00    +0.000 NA
ATOM     10  C   UNL     1       3.274   3.808  19.161  0.00  0.00    +0.000 A 
ATOM     11  C   UNL     1       2.868   2.596  19.705  0.00  0.00    +0.000 A 
ATOM     12  C   UNL     1       1.778   2.500  20.577  0.00  0.00    +0.000 A 
ATOM     13  C   UNL     1       1.069   3.646  20.915  0.00  0.00    +0.000 A 
ATOM     14  C   UNL     1       1.465   4.876  20.397  0.00  0.00    +0.000 A 
ATOM     15  C   UNL     1       2.574   4.963  19.515  0.00  0.00    +0.000 A 
ENDROOT
BRANCH   1  16
ATOM     16  O   UNL     1       2.452   7.332  19.208  0.00  0.00    +0.000 OA
BRANCH  16  17
ATOM     17  C   UNL     1       2.227   8.169  18.055  0.00  0.00    +0.000 C 
BRANCH  17  18
ATOM     18  C   UNL     1       1.556   9.494  18.452  0.00  0.00    +0.000 C 
BRANCH  18  21
ATOM     19  O   UNL     1      -0.771  10.559  19.593  0.00  0.00    +0.000 OA
ATOM     20  C   UNL     1      -0.800  10.287  18.400  0.00  0.00    +0.000 C 
ATOM     21  N   UNL     1       0.300   9.759  17.753  0.00  0.00    +0.000 N 
ATOM     22  H   UNL     1       0.244   9.618  16.754  0.00  0.00    +0.000 HD
BRANCH  20  23
ATOM     23  C   UNL     1      -2.006  10.535  17.632  0.00  0.00    +0.000 A 
ATOM     24  C   UNL     1      -2.234  10.063  16.350  0.00  0.00    +0.000 A 
ATOM     25  C   UNL     1      -3.498  10.456  15.836  0.00  0.00    +0.000 A 
ATOM     26  C   UNL     1      -4.198  11.216  16.746  0.00  0.00    +0.000 A 
ATOM     27  S   UNL     1      -3.328  11.449  18.204  0.00  0.00    +0.000 S 
ENDBRANCH  20  23
ENDBRANCH  18  21
ENDBRANCH  17  18
ENDBRANCH  16  17
ENDBRANCH   1  16
TORSDOF 5
ENDMDL
MODEL 2
REMARK VINA RESULT:      -8.3      1.891      2.624
REMARK  Name = 
REMARK  5 active torsions:
REMARK  status: ('A' for Active; 'I' for Inactive)
REMARK    1  A    between atoms: C_2  and  C_22
REMARK    2  A    between atoms: N_3  and  C_4
REMARK    3  A    between atoms: C_4  and  C_5
REMARK    4  A    between atoms: C_5  and  O_6
REMARK    5  A    between atoms: O_6  and  C_7
REMARK                            x       y       z     vdW  Elec       q    Type
REMARK                         _______ _______ _______ _____ _____    ______ ____
ROOT
ATOM      1  C   UNL     1       3.042   6.065  18.663  0.00  0.00    +0.000 A 
ATOM      2  N   UNL     1       4.080   6.050  17.817  0.00  0.00    +0.000 NA
ATOM      3  C   UNL     1       4.674   4.878  17.550  0.00  0.00    +0.000 A 
ATOM      4  N   UNL     1       5.650   4.850  16.563  0.00  0.00    +0.000 N 
ATOM      5  C   UNL     1       5.465   5.851  15.516  0.00  0.00    +0.000 C 
ATOM      6  C   UNL     1       5.562   5.091  14.201  0.00  0.00    +0.000 C 
ATOM      7  C   UNL     1       6.422   3.895  14.550  0.00  0.00    +0.000 C 
ATOM      8  C   UNL     1       5.997   3.559  15.980  0.00  0.00    +0.000 C 
ATOM      9  N   UNL     1       4.329   3.743  18.165  0.00  0.00    +0.000 NA
ATOM     10  C   UNL     1       3.298   3.769  19.013  0.00  0.00    +0.000 A 
ATOM     11  C   UNL     1       2.920   2.578  19.621  0.00  0.00    +0.000 A 
ATOM     12  C   UNL     1       1.831   2.503  20.496  0.00  0.00    +0.000 A 
ATOM     13  C   UNL     1       1.093   3.647  20.771  0.00  0.00    +0.000 A 
ATOM     14  C   UNL     1       1.460   4.857  20.188  0.00  0.00    +0.000 A 
ATOM     15  C   UNL     1       2.569   4.924  19.304  0.00  0.00    +0.000 A 
ENDROOT
BRANCH   1  16
ATOM     16  O   UNL     1       2.389   7.269  18.870  0.00  0.00    +0.000 OA
BRANCH  16  17
ATOM     17  C   UNL     1       2.637   8.270  17.862  0.00  0.00    +0.000 C 
BRANCH  17  18
ATOM     18  C   UNL     1       1.577   9.383  17.910  0.00  0.00    +0.000 C 
BRANCH  18  21
ATOM     19  O   UNL     1      -0.986  10.258  18.626  0.00  0.00    +0.000 OA
ATOM     20  C   UNL     1      -0.156  10.150  19.519  0.00  0.00    +0.000 C 
ATOM     21  N   UNL     1       1.132   9.725  19.259  0.00  0.00    +0.000 N 
ATOM     22  H   UNL     1       1.756   9.586  20.042  0.00  0.00    +0.000 HD
BRANCH  20  23
ATOM     23  C   UNL     1      -0.525  10.456  20.888  0.00  0.00    +0.000 A 
ATOM     24  C   UNL     1      -0.313   9.614  21.968  0.00  0.00    +0.000 A 
ATOM     25  C   UNL     1      -0.773  10.165  23.193  0.00  0.00    +0.000 A 
ATOM     26  C   UNL     1      -1.320  11.415  23.010  0.00  0.00    +0.000 A 
ATOM     27  S   UNL     1      -1.277  11.909  21.369  0.00  0.00    +0.000 S 
ENDBRANCH  20  23
ENDBRANCH  18  21
ENDBRANCH  17  18
ENDBRANCH  16  17
ENDBRANCH   1  16
TORSDOF 5
ENDMDL
MODEL 3
REMARK VINA RESULT:      -8.2      1.151      4.122
REMARK  Name = 
REMARK  5 active torsions:
REMARK  status: ('A' for Active; 'I' for Inactive)
REMARK    1  A    between atoms: C_2  and  C_22
REMARK    2  A    between atoms: N_3  and  C_4
REMARK    3  A    between atoms: C_4  and  C_5
REMARK    4  A    between atoms: C_5  and  O_6
REMARK    5  A    between atoms: O_6  and  C_7
REMARK                            x       y       z     vdW  Elec       q    Type
REMARK                         _______ _______ _______ _____ _____    ______ ____
ROOT
ATOM      1  C   UNL     1       3.489   6.336  17.625  0.00  0.00    +0.000 A 
ATOM      2  N   UNL     1       2.642   5.681  18.428  0.00  0.00    +0.000 NA
ATOM      3  C   UNL     1       2.722   4.344  18.493  0.00  0.00    +0.000 A 
ATOM      4  N   UNL     1       1.942   3.688  19.436  0.00  0.00    +0.000 N 
ATOM      5  C   UNL     1       1.661   4.481  20.631  0.00  0.00    +0.000 C 
ATOM      6  C   UNL     1       2.024   3.587  21.809  0.00  0.00    +0.000 C 
ATOM      7  C   UNL     1       1.853   2.190  21.254  0.00  0.00    +0.000 C 
ATOM      8  C   UNL     1       2.311   2.326  19.802  0.00  0.00    +0.000 C 
ATOM      9  N   UNL     1       3.550   3.637  17.719  0.00  0.00    +0.000 NA
ATOM     10  C   UNL     1       4.386   4.298  16.915  0.00  0.00    +0.000 A 
ATOM     11  C   UNL     1       5.272   3.558  16.141  0.00  0.00    +0.000 A 
ATOM     12  C   UNL     1       6.206   4.166  15.296  0.00  0.00    +0.000 A 
ATOM     13  C   UNL     1       6.265   5.552  15.222  0.00  0.00    +0.000 A 
ATOM     14  C   UNL     1       5.378   6.317  15.976  0.00  0.00    +0.000 A 
ATOM     15  C   UNL     1       4.431   5.691  16.828  0.00  0.00    +0.000 A 
ENDROOT
BRANCH   1  16
ATOM     16  O   UNL     1       3.447   7.721  17.624  0.00  0.00    +0.000 OA
BRANCH  16  17
ATOM     17  C   UNL     1       2.369   8.290  18.394  0.00  0.00    +0.000 C 
BRANCH  17  18
ATOM     18  C   UNL     1       2.003   9.694  17.885  0.00  0.00    +0.000 C 
BRANCH  18  21
ATOM     19  O   UNL     1       0.296  11.029  19.661  0.00  0.00    +0.000 OA
ATOM     20  C   UNL     1      -0.196  10.579  18.634  0.00  0.00    +0.000 C 
ATOM     21  N   UNL     1       0.569   9.908  17.702  0.00  0.00    +0.000 N 
ATOM     22  H   UNL     1       0.127   9.618  16.839  0.00  0.00    +0.000 HD
BRANCH  20  23
ATOM     23  C   UNL     1      -1.612  10.763  18.371  0.00  0.00    +0.000 A 
ATOM     24  C   UNL     1      -2.357   9.989  17.496  0.00  0.00    +0.000 A 
ATOM     25  C   UNL     1      -3.717  10.388  17.431  0.00  0.00    +0.000 A 
ATOM     26  C   UNL     1      -3.970  11.456  18.263  0.00  0.00    +0.000 A 
ATOM     27  S   UNL     1      -2.569  11.966  19.109  0.00  0.00    +0.000 S 
ENDBRANCH  20  23
ENDBRANCH  18  21
ENDBRANCH  17  18
ENDBRANCH  16  17
ENDBRANCH   1  16
TORSDOF 5
ENDMDL
MODEL 4
REMARK VINA RESULT:      -8.1      1.309      4.002
REMARK  Name = 
REMARK  5 active torsions:
REMARK  status: ('A' for Active; 'I' for Inactive)
REMARK    1  A    between atoms: C_2  and  C_22
REMARK    2  A    between atoms: N_3  and  C_4
REMARK    3  A    between atoms: C_4  and  C_5
REMARK    4  A    between atoms: C_5  and  O_6
REMARK    5  A    between atoms: O_6  and  C_7
REMARK                            x       y       z     vdW  Elec       q    Type
REMARK                         _______ _______ _______ _____ _____    ______ ____
ROOT
ATOM      1  C   UNL     1       3.597   6.660  17.833  0.00  0.00    +0.000 A 
ATOM      2  N   UNL     1       2.692   5.755  18.223  0.00  0.00    +0.000 NA
ATOM      3  C   UNL     1       3.099   4.499  18.460  0.00  0.00    +0.000 A 
ATOM      4  N   UNL     1       2.186   3.607  19.005  0.00  0.00    +0.000 N 
ATOM      5  C   UNL     1       1.171   4.235  19.846  0.00  0.00    +0.000 C 
ATOM      6  C   UNL     1       1.170   3.445  21.147  0.00  0.00    +0.000 C 
ATOM      7  C   UNL     1       1.675   2.081  20.728  0.00  0.00    +0.000 C 
ATOM      8  C   UNL     1       2.703   2.402  19.641  0.00  0.00    +0.000 C 
ATOM      9  N   UNL     1       4.353   4.098  18.231  0.00  0.00    +0.000 NA
ATOM     10  C   UNL     1       5.248   5.006  17.835  0.00  0.00    +0.000 A 
ATOM     11  C   UNL     1       6.559   4.591  17.636  0.00  0.00    +0.000 A 
ATOM     12  C   UNL     1       7.570   5.478  17.254  0.00  0.00    +0.000 A 
ATOM     13  C   UNL     1       7.269   6.822  17.069  0.00  0.00    +0.000 A 
ATOM     14  C   UNL     1       5.959   7.262  17.246  0.00  0.00    +0.000 A 
ATOM     15  C   UNL     1       4.939   6.353  17.630  0.00  0.00    +0.000 A 
ENDROOT
BRANCH   1  16
ATOM     16  O   UNL     1       3.178   7.970  17.667  0.00  0.00    +0.000 OA
BRANCH  16  17
ATOM     17  C   UNL     1       2.034   8.341  18.462  0.00  0.00    +0.000 C 
BRANCH  17  18
ATOM     18  C   UNL     1       1.687   9.828  18.279  0.00  0.00    +0.000 C 
BRANCH  18  21
ATOM     19  O   UNL     1      -0.752  10.308  19.572  0.00  0.00    +0.000 OA
ATOM     20  C   UNL     1      -0.754  10.293  18.348  0.00  0.00    +0.000 C 
ATOM     21  N   UNL     1       0.402  10.066  17.627  0.00  0.00    +0.000 N 
ATOM     22  H   UNL     1       0.357  10.134  16.619  0.00  0.00    +0.000 HD
BRANCH  20  23
ATOM     23  C   UNL     1      -1.989  10.535  17.625  0.00  0.00    +0.000 A 
ATOM     24  C   UNL     1      -2.271  10.043  16.361  0.00  0.00    +0.000 A 
ATOM     25  C   UNL     1      -3.552  10.435  15.892  0.00  0.00    +0.000 A 
ATOM     26  C   UNL     1      -4.211  11.214  16.816  0.00  0.00    +0.000 A 
ATOM     27  S   UNL     1      -3.281  11.466  18.234  0.00  0.00    +0.000 S 
ENDBRANCH  20  23
ENDBRANCH  18  21
ENDBRANCH  17  18
ENDBRANCH  16  17
ENDBRANCH   1  16
TORSDOF 5
ENDMDL
MODEL 5
REMARK VINA RESULT:      -8.1      5.952      8.332
REMARK  Name = 
REMARK  5 active torsions:
REMARK  status: ('A' for Active; 'I' for Inactive)
REMARK    1  A    between atoms: C_2  and  C_22
REMARK    2  A    between atoms: N_3  and  C_4
REMARK    3  A    between atoms: C_4  and  C_5
REMARK    4  A    between atoms: C_5  and  O_6
REMARK    5  A    between atoms: O_6  and  C_7
REMARK                            x       y       z     vdW  Elec       q    Type
REMARK                         _______ _______ _______ _____ _____    ______ ____
ROOT
ATOM      1  C   UNL     1       6.688   5.644  16.258  0.00  0.00    +0.000 A 
ATOM      2  N   UNL     1       5.780   5.298  17.178  0.00  0.00    +0.000 NA
ATOM      3  C   UNL     1       4.873   4.360  16.865  0.00  0.00    +0.000 A 
ATOM      4  N   UNL     1       4.032   3.903  17.870  0.00  0.00    +0.000 N 
ATOM      5  C   UNL     1       4.617   3.961  19.208  0.00  0.00    +0.000 C 
ATOM      6  C   UNL     1       4.406   2.578  19.808  0.00  0.00    +0.000 C 
ATOM      7  C   UNL     1       3.185   2.063  19.077  0.00  0.00    +0.000 C 
ATOM      8  C   UNL     1       3.350   2.631  17.666  0.00  0.00    +0.000 C 
ATOM      9  N   UNL     1       4.785   3.829  15.643  0.00  0.00    +0.000 NA
ATOM     10  C   UNL     1       5.690   4.186  14.728  0.00  0.00    +0.000 A 
ATOM     11  C   UNL     1       5.616   3.601  13.470  0.00  0.00    +0.000 A 
ATOM     12  C   UNL     1       6.542   3.889  12.461  0.00  0.00    +0.000 A 
ATOM     13  C   UNL     1       7.575   4.782  12.714  0.00  0.00    +0.000 A 
ATOM     14  C   UNL     1       7.663   5.395  13.961  0.00  0.00    +0.000 A 
ATOM     15  C   UNL     1       6.717   5.099  14.977  0.00  0.00    +0.000 A 
ENDROOT
BRANCH   1  16
ATOM     16  O   UNL     1       7.665   6.557  16.620  0.00  0.00    +0.000 OA
BRANCH  16  17
ATOM     17  C   UNL     1       7.173   7.724  17.309  0.00  0.00    +0.000 C 
BRANCH  17  18
ATOM     18  C   UNL     1       8.242   8.309  18.247  0.00  0.00    +0.000 C 
BRANCH  18  21
ATOM     19  O   UNL     1       9.318  10.226  19.984  0.00  0.00    +0.000 OA
ATOM     20  C   UNL     1       9.214  10.528  18.802  0.00  0.00    +0.000 C 
ATOM     21  N   UNL     1       8.696   9.646  17.874  0.00  0.00    +0.000 N 
ATOM     22  H   UNL     1       8.698   9.921  16.901  0.00  0.00    +0.000 HD
BRANCH  20  23
ATOM     23  C   UNL     1       9.657  11.834  18.350  0.00  0.00    +0.000 A 
ATOM     24  C   UNL     1      10.753  12.054  17.530  0.00  0.00    +0.000 A 
ATOM     25  C   UNL     1      10.959  13.429  17.244  0.00  0.00    +0.000 A 
ATOM     26  C   UNL     1      10.009  14.218  17.854  0.00  0.00    +0.000 A 
ATOM     27  S   UNL     1       8.885  13.297  18.763  0.00  0.00    +0.000 S 
ENDBRANCH  20  23
ENDBRANCH  18  21
ENDBRANCH  17  18
ENDBRANCH  16  17
ENDBRANCH   1  16
TORSDOF 5
ENDMDL
MODEL 6
REMARK VINA RESULT:      -8.0      2.240      2.932
REMARK  Name = 
REMARK  5 active torsions:
REMARK  status: ('A' for Active; 'I' for Inactive)
REMARK    1  A    between atoms: C_2  and  C_22
REMARK    2  A    between atoms: N_3  and  C_4
REMARK    3  A    between atoms: C_4  and  C_5
REMARK    4  A    between atoms: C_5  and  O_6
REMARK    5  A    between atoms: O_6  and  C_7
REMARK                            x       y       z     vdW  Elec       q    Type
REMARK                         _______ _______ _______ _____ _____    ______ ____
ROOT
ATOM      1  C   UNL     1       3.107   6.110  18.818  0.00  0.00    +0.000 A 
ATOM      2  N   UNL     1       4.137   6.090  17.964  0.00  0.00    +0.000 NA
ATOM      3  C   UNL     1       4.690   4.909  17.651  0.00  0.00    +0.000 A 
ATOM      4  N   UNL     1       5.656   4.883  16.655  0.00  0.00    +0.000 N 
ATOM      5  C   UNL     1       5.497   5.926  15.645  0.00  0.00    +0.000 C 
ATOM      6  C   UNL     1       5.559   5.209  14.303  0.00  0.00    +0.000 C 
ATOM      7  C   UNL     1       6.381   3.974  14.604  0.00  0.00    +0.000 C 
ATOM      8  C   UNL     1       5.956   3.603  16.025  0.00  0.00    +0.000 C 
ATOM      9  N   UNL     1       4.312   3.766  18.230  0.00  0.00    +0.000 NA
ATOM     10  C   UNL     1       3.289   3.796  19.087  0.00  0.00    +0.000 A 
ATOM     11  C   UNL     1       2.876   2.597  19.657  0.00  0.00    +0.000 A 
ATOM     12  C   UNL     1       1.792   2.528  20.538  0.00  0.00    +0.000 A 
ATOM     13  C   UNL     1       1.094   3.686  20.859  0.00  0.00    +0.000 A 
ATOM     14  C   UNL     1       1.497   4.903  20.315  0.00  0.00    +0.000 A 
ATOM     15  C   UNL     1       2.601   4.963  19.424  0.00  0.00    +0.000 A 
ENDROOT
BRANCH   1  16
ATOM     16  O   UNL     1       2.496   7.327  19.073  0.00  0.00    +0.000 OA
BRANCH  16  17
ATOM     17  C   UNL     1       2.582   8.281  17.995  0.00  0.00    +0.000 C 
BRANCH  17  18
ATOM     18  C   UNL     1       1.379   9.239  18.002  0.00  0.00    +0.000 C 
BRANCH  18  21
ATOM     19  O   UNL     1       0.471  11.255  19.723  0.00  0.00    +0.000 OA
ATOM     20  C   UNL     1       1.242  11.579  18.828  0.00  0.00    +0.000 C 
ATOM     21  N   UNL     1       1.741  10.652  17.935  0.00  0.00    +0.000 N 
ATOM     22  H   UNL     1       2.428  10.961  17.260  0.00  0.00    +0.000 HD
BRANCH  20  23
ATOM     23  C   UNL     1       1.661  12.963  18.704  0.00  0.00    +0.000 A 
ATOM     24  C   UNL     1       2.882  13.372  18.193  0.00  0.00    +0.000 A 
ATOM     25  C   UNL     1       3.030  14.784  18.187  0.00  0.00    +0.000 A 
ATOM     26  C   UNL     1       1.913  15.410  18.693  0.00  0.00    +0.000 A 
ATOM     27  S   UNL     1       0.703  14.294  19.170  0.00  0.00    +0.000 S 
ENDBRANCH  20  23
ENDBRANCH  18  21
ENDBRANCH  17  18
ENDBRANCH  16  17
ENDBRANCH   1  16
TORSDOF 5
ENDMDL
MODEL 7
REMARK VINA RESULT:      -7.9      5.147      7.281
REMARK  Name = 
REMARK  5 active torsions:
REMARK  status: ('A' for Active; 'I' for Inactive)
REMARK    1  A    between atoms: C_2  and  C_22
REMARK    2  A    between atoms: N_3  and  C_4
REMARK    3  A    between atoms: C_4  and  C_5
REMARK    4  A    between atoms: C_5  and  O_6
REMARK    5  A    between atoms: O_6  and  C_7
REMARK                            x       y       z     vdW  Elec       q    Type
REMARK                         _______ _______ _______ _____ _____    ______ ____
ROOT
ATOM      1  C   UNL     1       5.794   5.003  18.418  0.00  0.00    +0.000 A 
ATOM      2  N   UNL     1       6.412   4.583  17.308  0.00  0.00    +0.000 NA
ATOM      3  C   UNL     1       5.671   4.068  16.316  0.00  0.00    +0.000 A 
ATOM      4  N   UNL     1       6.300   3.773  15.115  0.00  0.00    +0.000 N 
ATOM      5  C   UNL     1       7.453   4.621  14.824  0.00  0.00    +0.000 C 
ATOM      6  C   UNL     1       7.236   5.135  13.408  0.00  0.00    +0.000 C 
ATOM      7  C   UNL     1       6.370   4.067  12.776  0.00  0.00    +0.000 C 
ATOM      8  C   UNL     1       5.470   3.615  13.927  0.00  0.00    +0.000 C 
ATOM      9  N   UNL     1       4.354   3.873  16.433  0.00  0.00    +0.000 NA
ATOM     10  C   UNL     1       3.747   4.288  17.547  0.00  0.00    +0.000 A 
ATOM     11  C   UNL     1       2.372   4.117  17.647  0.00  0.00    +0.000 A 
ATOM     12  C   UNL     1       1.647   4.551  18.762  0.00  0.00    +0.000 A 
ATOM     13  C   UNL     1       2.311   5.180  19.808  0.00  0.00    +0.000 A 
ATOM     14  C   UNL     1       3.692   5.349  19.741  0.00  0.00    +0.000 A 
ATOM     15  C   UNL     1       4.419   4.901  18.607  0.00  0.00    +0.000 A 
ENDROOT
BRANCH   1  16
ATOM     16  O   UNL     1       6.562   5.604  19.403  0.00  0.00    +0.000 OA
BRANCH  16  17
ATOM     17  C   UNL     1       7.895   5.965  18.989  0.00  0.00    +0.000 C 
BRANCH  17  18
ATOM     18  C   UNL     1       7.907   7.324  18.271  0.00  0.00    +0.000 C 
BRANCH  18  21
ATOM     19  O   UNL     1       7.978  10.052  17.635  0.00  0.00    +0.000 OA
ATOM     20  C   UNL     1       8.702   9.664  18.542  0.00  0.00    +0.000 C 
ATOM     21  N   UNL     1       8.732   8.338  18.924  0.00  0.00    +0.000 N 
ATOM     22  H   UNL     1       9.296   8.084  19.725  0.00  0.00    +0.000 HD
BRANCH  20  23
ATOM     23  C   UNL     1       9.542  10.612  19.251  0.00  0.00    +0.000 A 
ATOM     24  C   UNL     1      10.662  11.226  18.714  0.00  0.00    +0.000 A 
ATOM     25  C   UNL     1      11.297  12.108  19.628  0.00  0.00    +0.000 A 
ATOM     26  C   UNL     1      10.638  12.141  20.837  0.00  0.00    +0.000 A 
ATOM     27  S   UNL     1       9.268  11.111  20.858  0.00  0.00    +0.000 S 
ENDBRANCH  20  23
ENDBRANCH  18  21
ENDBRANCH  17  18
ENDBRANCH  16  17
ENDBRANCH   1  16
TORSDOF 5
ENDMDL
MODEL 8
REMARK VINA RESULT:      -7.8      2.895      3.106
REMARK  Name = 
REMARK  5 active torsions:
REMARK  status: ('A' for Active; 'I' for Inactive)
REMARK    1  A    between atoms: C_2  and  C_22
REMARK    2  A    between atoms: N_3  and  C_4
REMARK    3  A    between atoms: C_4  and  C_5
REMARK    4  A    between atoms: C_5  and  O_6
REMARK    5  A    between atoms: O_6  and  C_7
REMARK                            x       y       z     vdW  Elec       q    Type
REMARK                         _______ _______ _______ _____ _____    ______ ____
ROOT
ATOM      1  C   UNL     1       2.653   6.033  19.018  0.00  0.00    +0.000 A 
ATOM      2  N   UNL     1       3.727   6.263  18.253  0.00  0.00    +0.000 NA
ATOM      3  C   UNL     1       4.680   5.322  18.182  0.00  0.00    +0.000 A 
ATOM      4  N   UNL     1       5.714   5.506  17.275  0.00  0.00    +0.000 N 
ATOM      5  C   UNL     1       5.339   6.281  16.095  0.00  0.00    +0.000 C 
ATOM      6  C   UNL     1       5.804   5.460  14.901  0.00  0.00    +0.000 C 
ATOM      7  C   UNL     1       6.950   4.646  15.461  0.00  0.00    +0.000 C 
ATOM      8  C   UNL     1       6.503   4.342  16.892  0.00  0.00    +0.000 C 
ATOM      9  N   UNL     1       4.641   4.208  18.918  0.00  0.00    +0.000 NA
ATOM     10  C   UNL     1       3.570   3.989  19.684  0.00  0.00    +0.000 A 
ATOM     11  C   UNL     1       3.518   2.810  20.417  0.00  0.00    +0.000 A 
ATOM     12  C   UNL     1       2.421   2.481  21.220  0.00  0.00    +0.000 A 
ATOM     13  C   UNL     1       1.340   3.350  21.292  0.00  0.00    +0.000 A 
ATOM     14  C   UNL     1       1.373   4.547  20.580  0.00  0.00    +0.000 A 
ATOM     15  C   UNL     1       2.493   4.873  19.771  0.00  0.00    +0.000 A 
ENDROOT
BRANCH   1  16
ATOM     16  O   UNL     1       1.641   6.979  19.022  0.00  0.00    +0.000 OA
BRANCH  16  17
ATOM     17  C   UNL     1       1.993   8.234  19.639  0.00  0.00    +0.000 C 
BRANCH  17  18
ATOM     18  C   UNL     1       1.322   8.385  21.014  0.00  0.00    +0.000 C 
BRANCH  18  21
ATOM     19  O   UNL     1       0.584   9.681  23.386  0.00  0.00    +0.000 OA
ATOM     20  C   UNL     1       0.124  10.114  22.338  0.00  0.00    +0.000 C 
ATOM     21  N   UNL     1       0.434   9.540  21.122  0.00  0.00    +0.000 N 
ATOM     22  H   UNL     1       0.082   9.980  20.282  0.00  0.00    +0.000 HD
BRANCH  20  23
ATOM     23  C   UNL     1      -0.756  11.269  22.359  0.00  0.00    +0.000 A 
ATOM     24  C   UNL     1      -1.829  11.425  23.221  0.00  0.00    +0.000 A 
ATOM     25  C   UNL     1      -2.519  12.650  23.023  0.00  0.00    +0.000 A 
ATOM     26  C   UNL     1      -1.948  13.393  22.015  0.00  0.00    +0.000 A 
ATOM     27  S   UNL     1      -0.592  12.609  21.318  0.00  0.00    +0.000 S 
ENDBRANCH  20  23
ENDBRANCH  18  21
ENDBRANCH  17  18
ENDBRANCH  16  17
ENDBRANCH   1  16
TORSDOF 5
ENDMDL
MODEL 9
REMARK VINA RESULT:      -7.8      2.246      4.837
REMARK  Name = 
REMARK  5 active torsions:
REMARK  status: ('A' for Active; 'I' for Inactive)
REMARK    1  A    between atoms: C_2  and  C_22
REMARK    2  A    between atoms: N_3  and  C_4
REMARK    3  A    between atoms: C_4  and  C_5
REMARK    4  A    between atoms: C_5  and  O_6
REMARK    5  A    between atoms: O_6  and  C_7
REMARK                            x       y       z     vdW  Elec       q    Type
REMARK                         _______ _______ _______ _____ _____    ______ ____
ROOT
ATOM      1  C   UNL     1       3.384   6.469  17.647  0.00  0.00    +0.000 A 
ATOM      2  N   UNL     1       2.561   5.788  18.453  0.00  0.00    +0.000 NA
ATOM      3  C   UNL     1       2.680   4.454  18.514  0.00  0.00    +0.000 A 
ATOM      4  N   UNL     1       1.925   3.773  19.459  0.00  0.00    +0.000 N 
ATOM      5  C   UNL     1       1.629   4.554  20.658  0.00  0.00    +0.000 C 
ATOM      6  C   UNL     1       2.024   3.668  21.831  0.00  0.00    +0.000 C 
ATOM      7  C   UNL     1       1.890   2.268  21.274  0.00  0.00    +0.000 C 
ATOM      8  C   UNL     1       2.336   2.421  19.819  0.00  0.00    +0.000 C 
ATOM      9  N   UNL     1       3.524   3.774  17.733  0.00  0.00    +0.000 NA
ATOM     10  C   UNL     1       4.336   4.461  16.926  0.00  0.00    +0.000 A 
ATOM     11  C   UNL     1       5.238   3.749  16.144  0.00  0.00    +0.000 A 
ATOM     12  C   UNL     1       6.150   4.385  15.296  0.00  0.00    +0.000 A 
ATOM     13  C   UNL     1       6.168   5.773  15.226  0.00  0.00    +0.000 A 
ATOM     14  C   UNL     1       5.263   6.510  15.987  0.00  0.00    +0.000 A 
ATOM     15  C   UNL     1       4.339   5.854  16.842  0.00  0.00    +0.000 A 
ENDROOT
BRANCH   1  16
ATOM     16  O   UNL     1       3.302   7.853  17.651  0.00  0.00    +0.000 OA
BRANCH  16  17
ATOM     17  C   UNL     1       1.960   8.376  17.707  0.00  0.00    +0.000 C 
BRANCH  17  18
ATOM     18  C   UNL     1       1.949   9.824  18.223  0.00  0.00    +0.000 C 
BRANCH  18  21
ATOM     19  O   UNL     1      -0.193  11.560  18.724  0.00  0.00    +0.000 OA
ATOM     20  C   UNL     1       0.215  10.881  19.657  0.00  0.00    +0.000 C 
ATOM     21  N   UNL     1       1.265   9.998  19.502  0.00  0.00    +0.000 N 
ATOM     22  H   UNL     1       1.515   9.411  20.286  0.00  0.00    +0.000 HD
BRANCH  20  23
ATOM     23  C   UNL     1      -0.422  10.985  20.957  0.00  0.00    +0.000 A 
ATOM     24  C   UNL     1      -0.219  10.102  22.006  0.00  0.00    +0.000 A 
ATOM     25  C   UNL     1      -0.969  10.440  23.162  0.00  0.00    +0.000 A 
ATOM     26  C   UNL     1      -1.721  11.576  22.961  0.00  0.00    +0.000 A 
ATOM     27  S   UNL     1      -1.518  12.219  21.385  0.00  0.00    +0.000 S 
ENDBRANCH  20  23
ENDBRANCH  18  21
ENDBRANCH  17  18
ENDBRANCH  16  17
ENDBRANCH   1  16
TORSDOF 5
ENDMDL
