MODEL 1
REMARK VINA RESULT:      -7.8      0.000      0.000
REMARK  Name = 
REMARK  7 active torsions:
REMARK  status: ('A' for Active; 'I' for Inactive)
REMARK    1  A    between atoms: C_1  and  C_2
REMARK    2  A    between atoms: C_2  and  C_3
REMARK    3  A    between atoms: C_6  and  C_7
REMARK    4  A    between atoms: C_7  and  N_8
REMARK    5  A    between atoms: C_9  and  C_11
REMARK    6  A    between atoms: C_16  and  O_17
REMARK    7  A    between atoms: O_17  and  C_18
REMARK                            x       y       z     vdW  Elec       q    Type
REMARK                         _______ _______ _______ _____ _____    ______ ____
ROOT
ATOM      1  N   UNL     1       5.951   5.452  16.777  0.00  0.00    +0.000 N 
ATOM      2  C   UNL     1       5.969   4.943  18.062  0.00  0.00    +0.000 C 
ATOM      3  O   UNL     1       7.018   4.626  18.609  0.00  0.00    +0.000 OA
ATOM      4  H   UNL     1       5.103   5.805  16.351  0.00  0.00    +0.000 HD
ENDROOT
BRANCH   2   5
ATOM      5  C   UNL     1       4.642   4.774  18.725  0.00  0.00    +0.000 A 
ATOM      6  C   UNL     1       4.382   3.621  19.482  0.00  0.00    +0.000 A 
ATOM      7  C   UNL     1       3.149   3.494  20.094  0.00  0.00    +0.000 A 
ATOM      8  C   UNL     1       2.214   4.504  19.951  0.00  0.00    +0.000 A 
ATOM      9  N   UNL     1       2.415   5.629  19.251  0.00  0.00    +0.000 NA
ATOM     10  C   UNL     1       3.639   5.758  18.661  0.00  0.00    +0.000 A 
ATOM     11  C   UNL     1       0.927   4.159  20.639  0.00  0.00    +0.000 C 
ATOM     12  C   UNL     1       1.336   2.950  21.495  0.00  0.00    +0.000 C 
ATOM     13  C   UNL     1       2.616   2.354  20.888  0.00  0.00    +0.000 C 
BRANCH  10  14
ATOM     14  O   UNL     1       3.861   6.898  17.919  0.00  0.00    +0.000 OA
ATOM     15  C   UNL     1       2.797   7.843  18.005  0.00  0.00    +0.000 C 
ENDBRANCH  10  14
ENDBRANCH   2   5
BRANCH   1  16
ATOM     16  C   UNL     1       7.178   5.618  16.022  0.00  0.00    +0.000 C 
BRANCH  16  20
ATOM     17  C   UNL     1       6.422   3.763  12.730  0.00  0.00    +0.000 A 
ATOM     18  N   UNL     1       7.419   4.592  12.488  0.00  0.00    +0.000 NA
ATOM     19  N   UNL     1       7.772   5.326  13.603  0.00  0.00    +0.000 NA
ATOM     20  C   UNL     1       7.032   5.026  14.654  0.00  0.00    +0.000 A 
ATOM     21  S   UNL     1       5.825   3.842  14.340  0.00  0.00    +0.000 S 
BRANCH  17  23
ATOM     22  C   UNL     1       4.391   3.163  11.415  0.00  0.00    +0.000 C 
ATOM     23  C   UNL     1       5.839   2.820  11.728  0.00  0.00    +0.000 C 
ENDBRANCH  17  23
ENDBRANCH  16  20
ENDBRANCH   1  16
TORSDOF 5
ENDMDL
MODEL 2
REMARK VINA RESULT:      -7.7      1.797      3.762
REMARK  Name = 
REMARK  7 active torsions:
REMARK  status: ('A' for Active; 'I' for Inactive)
REMARK    1  A    between atoms: C_1  and  C_2
REMARK    2  A    between atoms: C_2  and  C_3
REMARK    3  A    between atoms: C_6  and  C_7
REMARK    4  A    between atoms: C_7  and  N_8
REMARK    5  A    between atoms: C_9  and  C_11
REMARK    6  A    between atoms: C_16  and  O_17
REMARK    7  A    between atoms: O_17  and  C_18
REMARK                            x       y       z     vdW  Elec       q    Type
REMARK                         _______ _______ _______ _____ _____    ______ ____
ROOT
ATOM      1  N   UNL     1       5.442   5.438  18.257  0.00  0.00    +0.000 N 
ATOM      2  C   UNL     1       4.083   5.182  18.267  0.00  0.00    +0.000 C 
ATOM      3  O   UNL     1       3.633   4.108  17.886  0.00  0.00    +0.000 OA
ATOM      4  H   UNL     1       5.831   6.283  18.657  0.00  0.00    +0.000 HD
ENDROOT
BRANCH   2   5
ATOM      5  C   UNL     1       3.204   6.294  18.734  0.00  0.00    +0.000 A 
ATOM      6  C   UNL     1       3.053   7.444  17.943  0.00  0.00    +0.000 A 
ATOM      7  C   UNL     1       2.225   8.454  18.393  0.00  0.00    +0.000 A 
ATOM      8  C   UNL     1       1.564   8.302  19.600  0.00  0.00    +0.000 A 
ATOM      9  N   UNL     1       1.663   7.222  20.387  0.00  0.00    +0.000 NA
ATOM     10  C   UNL     1       2.470   6.220  19.932  0.00  0.00    +0.000 A 
ATOM     11  C   UNL     1       0.761   9.522  19.941  0.00  0.00    +0.000 C 
ATOM     12  C   UNL     1       0.766  10.290  18.610  0.00  0.00    +0.000 C 
ATOM     13  C   UNL     1       1.951   9.780  17.776  0.00  0.00    +0.000 C 
BRANCH  10  14
ATOM     14  O   UNL     1       2.602   5.107  20.735  0.00  0.00    +0.000 OA
ATOM     15  C   UNL     1       1.451   4.266  20.727  0.00  0.00    +0.000 C 
ENDBRANCH  10  14
ENDBRANCH   2   5
BRANCH   1  16
ATOM     16  C   UNL     1       6.386   4.445  17.782  0.00  0.00    +0.000 C 
BRANCH  16  20
ATOM     17  C   UNL     1       6.852   4.577  13.959  0.00  0.00    +0.000 A 
ATOM     18  N   UNL     1       7.624   5.512  14.477  0.00  0.00    +0.000 NA
ATOM     19  N   UNL     1       7.530   5.567  15.853  0.00  0.00    +0.000 NA
ATOM     20  C   UNL     1       6.690   4.668  16.333  0.00  0.00    +0.000 A 
ATOM     21  S   UNL     1       5.931   3.710  15.123  0.00  0.00    +0.000 S 
BRANCH  17  23
ATOM     22  C   UNL     1       5.699   3.207  12.225  0.00  0.00    +0.000 C 
ATOM     23  C   UNL     1       6.761   4.260  12.502  0.00  0.00    +0.000 C 
ENDBRANCH  17  23
ENDBRANCH  16  20
ENDBRANCH   1  16
TORSDOF 5
ENDMDL
MODEL 3
REMARK VINA RESULT:      -7.3      2.603      7.488
REMARK  Name = 
REMARK  7 active torsions:
REMARK  status: ('A' for Active; 'I' for Inactive)
REMARK    1  A    between atoms: C_1  and  C_2
REMARK    2  A    between atoms: C_2  and  C_3
REMARK    3  A    between atoms: C_6  and  C_7
REMARK    4  A    between atoms: C_7  and  N_8
REMARK    5  A    between atoms: C_9  and  C_11
REMARK    6  A    between atoms: C_16  and  O_17
REMARK    7  A    between atoms: O_17  and  C_18
REMARK                            x       y       z     vdW  Elec       q    Type
REMARK                         _______ _______ _______ _____ _____    ______ ____
ROOT
ATOM      1  N   UNL     1       4.039   5.837  18.204  0.00  0.00    +0.000 N 
ATOM      2  C   UNL     1       4.544   4.661  17.681  0.00  0.00    +0.000 C 
ATOM      3  O   UNL     1       4.272   3.574  18.175  0.00  0.00    +0.000 OA
ATOM      4  H   UNL     1       4.180   6.731  17.748  0.00  0.00    +0.000 HD
ENDROOT
BRANCH   2   5
ATOM      5  C   UNL     1       5.459   4.798  16.509  0.00  0.00    +0.000 A 
ATOM      6  C   UNL     1       5.187   4.094  15.325  0.00  0.00    +0.000 A 
ATOM      7  C   UNL     1       6.044   4.246  14.251  0.00  0.00    +0.000 A 
ATOM      8  C   UNL     1       7.134   5.090  14.369  0.00  0.00    +0.000 A 
ATOM      9  N   UNL     1       7.432   5.793  15.469  0.00  0.00    +0.000 NA
ATOM     10  C   UNL     1       6.576   5.652  16.523  0.00  0.00    +0.000 A 
ATOM     11  C   UNL     1       7.970   5.080  13.123  0.00  0.00    +0.000 C 
ATOM     12  C   UNL     1       7.044   4.369  12.123  0.00  0.00    +0.000 C 
ATOM     13  C   UNL     1       6.007   3.569  12.926  0.00  0.00    +0.000 C 
BRANCH  10  14
ATOM     14  O   UNL     1       6.874   6.352  17.672  0.00  0.00    +0.000 OA
ATOM     15  C   UNL     1       7.597   7.556  17.429  0.00  0.00    +0.000 C 
ENDBRANCH  10  14
ENDBRANCH   2   5
BRANCH   1  16
ATOM     16  C   UNL     1       3.175   5.827  19.369  0.00  0.00    +0.000 C 
BRANCH  16  20
ATOM     17  C   UNL     1       1.384   9.227  19.082  0.00  0.00    +0.000 A 
ATOM     18  N   UNL     1       1.135   8.757  20.288  0.00  0.00    +0.000 NA
ATOM     19  N   UNL     1       1.722   7.526  20.503  0.00  0.00    +0.000 NA
ATOM     20  C   UNL     1       2.399   7.104  19.452  0.00  0.00    +0.000 A 
ATOM     21  S   UNL     1       2.337   8.178  18.109  0.00  0.00    +0.000 S 
BRANCH  17  23
ATOM     22  C   UNL     1      -0.218  11.105  19.423  0.00  0.00    +0.000 C 
ATOM     23  C   UNL     1       0.908  10.547  18.568  0.00  0.00    +0.000 C 
ENDBRANCH  17  23
ENDBRANCH  16  20
ENDBRANCH   1  16
TORSDOF 5
ENDMDL
MODEL 4
REMARK VINA RESULT:      -7.2      3.014      7.658
REMARK  Name = 
REMARK  7 active torsions:
REMARK  status: ('A' for Active; 'I' for Inactive)
REMARK    1  A    between atoms: C_1  and  C_2
REMARK    2  A    between atoms: C_2  and  C_3
REMARK    3  A    between atoms: C_6  and  C_7
REMARK    4  A    between atoms: C_7  and  N_8
REMARK    5  A    between atoms: C_9  and  C_11
REMARK    6  A    between atoms: C_16  and  O_17
REMARK    7  A    between atoms: O_17  and  C_18
REMARK                            x       y       z     vdW  Elec       q    Type
REMARK                         _______ _______ _______ _____ _____    ______ ____
ROOT
ATOM      1  N   UNL     1       3.910   5.981  18.158  0.00  0.00    +0.000 N 
ATOM      2  C   UNL     1       4.558   4.812  17.803  0.00  0.00    +0.000 C 
ATOM      3  O   UNL     1       4.416   3.782  18.450  0.00  0.00    +0.000 OA
ATOM      4  H   UNL     1       3.944   6.811  17.579  0.00  0.00    +0.000 HD
ENDROOT
BRANCH   2   5
ATOM      5  C   UNL     1       5.458   4.890  16.614  0.00  0.00    +0.000 A 
ATOM      6  C   UNL     1       5.134   4.181  15.446  0.00  0.00    +0.000 A 
ATOM      7  C   UNL     1       5.978   4.279  14.356  0.00  0.00    +0.000 A 
ATOM      8  C   UNL     1       7.107   5.075  14.443  0.00  0.00    +0.000 A 
ATOM      9  N   UNL     1       7.455   5.780  15.527  0.00  0.00    +0.000 NA
ATOM     10  C   UNL     1       6.612   5.693  16.596  0.00  0.00    +0.000 A 
ATOM     11  C   UNL     1       7.920   5.009  13.184  0.00  0.00    +0.000 C 
ATOM     12  C   UNL     1       6.947   4.326  12.211  0.00  0.00    +0.000 C 
ATOM     13  C   UNL     1       5.889   3.585  13.043  0.00  0.00    +0.000 C 
BRANCH  10  14
ATOM     14  O   UNL     1       6.960   6.396  17.730  0.00  0.00    +0.000 OA
ATOM     15  C   UNL     1       7.581   7.648  17.450  0.00  0.00    +0.000 C 
ENDBRANCH  10  14
ENDBRANCH   2   5
BRANCH   1  16
ATOM     16  C   UNL     1       3.045   6.032  19.321  0.00  0.00    +0.000 C 
BRANCH  16  20
ATOM     17  C   UNL     1       1.011   9.243  19.957  0.00  0.00    +0.000 A 
ATOM     18  N   UNL     1       1.461   9.306  18.719  0.00  0.00    +0.000 NA
ATOM     19  N   UNL     1       2.221   8.205  18.380  0.00  0.00    +0.000 NA
ATOM     20  C   UNL     1       2.319   7.340  19.373  0.00  0.00    +0.000 A 
ATOM     21  S   UNL     1       1.510   7.835  20.808  0.00  0.00    +0.000 S 
BRANCH  17  23
ATOM     22  C   UNL     1       0.015  10.043  22.097  0.00  0.00    +0.000 C 
ATOM     23  C   UNL     1       0.139  10.272  20.599  0.00  0.00    +0.000 C 
ENDBRANCH  17  23
ENDBRANCH  16  20
ENDBRANCH   1  16
TORSDOF 5
ENDMDL
MODEL 5
REMARK VINA RESULT:      -7.1      2.227      7.303
REMARK  Name = 
REMARK  7 active torsions:
REMARK  status: ('A' for Active; 'I' for Inactive)
REMARK    1  A    between atoms: C_1  and  C_2
REMARK    2  A    between atoms: C_2  and  C_3
REMARK    3  A    between atoms: C_6  and  C_7
REMARK    4  A    between atoms: C_7  and  N_8
REMARK    5  A    between atoms: C_9  and  C_11
REMARK    6  A    between atoms: C_16  and  O_17
REMARK    7  A    between atoms: O_17  and  C_18
REMARK                            x       y       z     vdW  Elec       q    Type
REMARK                         _______ _______ _______ _____ _____    ______ ____
ROOT
ATOM      1  N   UNL     1       5.082   3.634  18.350  0.00  0.00    +0.000 N 
ATOM      2  C   UNL     1       4.560   3.722  17.073  0.00  0.00    +0.000 C 
ATOM      3  O   UNL     1       3.394   3.429  16.838  0.00  0.00    +0.000 OA
ATOM      4  H   UNL     1       6.013   3.963  18.573  0.00  0.00    +0.000 HD
ENDROOT
BRANCH   2   5
ATOM      5  C   UNL     1       5.503   4.159  16.001  0.00  0.00    +0.000 A 
ATOM      6  C   UNL     1       5.404   3.605  14.715  0.00  0.00    +0.000 A 
ATOM      7  C   UNL     1       6.283   4.034  13.739  0.00  0.00    +0.000 A 
ATOM      8  C   UNL     1       7.224   4.999  14.051  0.00  0.00    +0.000 A 
ATOM      9  N   UNL     1       7.354   5.568  15.257  0.00  0.00    +0.000 NA
ATOM     10  C   UNL     1       6.475   5.153  16.215  0.00  0.00    +0.000 A 
ATOM     11  C   UNL     1       8.116   5.292  12.881  0.00  0.00    +0.000 C 
ATOM     12  C   UNL     1       7.363   4.612  11.727  0.00  0.00    +0.000 C 
ATOM     13  C   UNL     1       6.419   3.562  12.334  0.00  0.00    +0.000 C 
BRANCH  10  14
ATOM     14  O   UNL     1       6.602   5.711  17.469  0.00  0.00    +0.000 OA
ATOM     15  C   UNL     1       7.207   7.002  17.453  0.00  0.00    +0.000 C 
ENDBRANCH  10  14
ENDBRANCH   2   5
BRANCH   1  16
ATOM     16  C   UNL     1       4.267   3.179  19.460  0.00  0.00    +0.000 C 
BRANCH  16  20
ATOM     17  C   UNL     1       2.118   6.271  20.280  0.00  0.00    +0.000 A 
ATOM     18  N   UNL     1       1.493   5.221  20.774  0.00  0.00    +0.000 NA
ATOM     19  N   UNL     1       2.170   4.043  20.528  0.00  0.00    +0.000 NA
ATOM     20  C   UNL     1       3.289   4.241  19.858  0.00  0.00    +0.000 A 
ATOM     21  S   UNL     1       3.576   5.888  19.452  0.00  0.00    +0.000 S 
BRANCH  17  23
ATOM     22  C   UNL     1       1.826   8.454  19.112  0.00  0.00    +0.000 C 
ATOM     23  C   UNL     1       1.646   7.682  20.411  0.00  0.00    +0.000 C 
ENDBRANCH  17  23
ENDBRANCH  16  20
ENDBRANCH   1  16
TORSDOF 5
ENDMDL
MODEL 6
REMARK VINA RESULT:      -7.1      2.377      7.381
REMARK  Name = 
REMARK  7 active torsions:
REMARK  status: ('A' for Active; 'I' for Inactive)
REMARK    1  A    between atoms: C_1  and  C_2
REMARK    2  A    between atoms: C_2  and  C_3
REMARK    3  A    between atoms: C_6  and  C_7
REMARK    4  A    between atoms: C_7  and  N_8
REMARK    5  A    between atoms: C_9  and  C_11
REMARK    6  A    between atoms: C_16  and  O_17
REMARK    7  A    between atoms: O_17  and  C_18
REMARK                            x       y       z     vdW  Elec       q    Type
REMARK                         _______ _______ _______ _____ _____    ______ ____
ROOT
ATOM      1  N   UNL     1       4.253   4.936  18.179  0.00  0.00    +0.000 N 
ATOM      2  C   UNL     1       4.649   3.905  17.348  0.00  0.00    +0.000 C 
ATOM      3  O   UNL     1       4.292   2.751  17.549  0.00  0.00    +0.000 OA
ATOM      4  H   UNL     1       4.462   5.905  17.969  0.00  0.00    +0.000 HD
ENDROOT
BRANCH   2   5
ATOM      5  C   UNL     1       5.555   4.275  16.220  0.00  0.00    +0.000 A 
ATOM      6  C   UNL     1       5.371   3.691  14.957  0.00  0.00    +0.000 A 
ATOM      7  C   UNL     1       6.216   4.059  13.927  0.00  0.00    +0.000 A 
ATOM      8  C   UNL     1       7.210   4.992  14.167  0.00  0.00    +0.000 A 
ATOM      9  N   UNL     1       7.421   5.588  15.348  0.00  0.00    +0.000 NA
ATOM     10  C   UNL     1       6.575   5.233  16.359  0.00  0.00    +0.000 A 
ATOM     11  C   UNL     1       8.053   5.218  12.947  0.00  0.00    +0.000 C 
ATOM     12  C   UNL     1       7.218   4.538  11.851  0.00  0.00    +0.000 C 
ATOM     13  C   UNL     1       6.264   3.544  12.532  0.00  0.00    +0.000 C 
BRANCH  10  14
ATOM     14  O   UNL     1       6.786   5.819  17.589  0.00  0.00    +0.000 OA
ATOM     15  C   UNL     1       7.363   7.119  17.503  0.00  0.00    +0.000 C 
ENDBRANCH  10  14
ENDBRANCH   2   5
BRANCH   1  16
ATOM     16  C   UNL     1       3.408   4.686  19.331  0.00  0.00    +0.000 C 
BRANCH  16  20
ATOM     17  C   UNL     1       1.620   8.070  19.776  0.00  0.00    +0.000 A 
ATOM     18  N   UNL     1       1.361   7.350  20.849  0.00  0.00    +0.000 NA
ATOM     19  N   UNL     1       1.945   6.100  20.796  0.00  0.00    +0.000 NA
ATOM     20  C   UNL     1       2.632   5.916  19.683  0.00  0.00    +0.000 A 
ATOM     21  S   UNL     1       2.582   7.256  18.606  0.00  0.00    +0.000 S 
BRANCH  17  23
ATOM     22  C   UNL     1       0.910   9.757  18.083  0.00  0.00    +0.000 C 
ATOM     23  C   UNL     1       1.149   9.472  19.558  0.00  0.00    +0.000 C 
ENDBRANCH  17  23
ENDBRANCH  16  20
ENDBRANCH   1  16
TORSDOF 5
ENDMDL
MODEL 7
REMARK VINA RESULT:      -7.0      2.541      7.426
REMARK  Name = 
REMARK  7 active torsions:
REMARK  status: ('A' for Active; 'I' for Inactive)
REMARK    1  A    between atoms: C_1  and  C_2
REMARK    2  A    between atoms: C_2  and  C_3
REMARK    3  A    between atoms: C_6  and  C_7
REMARK    4  A    between atoms: C_7  and  N_8
REMARK    5  A    between atoms: C_9  and  C_11
REMARK    6  A    between atoms: C_16  and  O_17
REMARK    7  A    between atoms: O_17  and  C_18
REMARK                            x       y       z     vdW  Elec       q    Type
REMARK                         _______ _______ _______ _____ _____    ______ ____
ROOT
ATOM      1  N   UNL     1       3.967   4.175  17.686  0.00  0.00    +0.000 N 
ATOM      2  C   UNL     1       5.348   4.239  17.716  0.00  0.00    +0.000 C 
ATOM      3  O   UNL     1       5.969   4.134  18.767  0.00  0.00    +0.000 OA
ATOM      4  H   UNL     1       3.449   4.165  16.816  0.00  0.00    +0.000 HD
ENDROOT
BRANCH   2   5
ATOM      5  C   UNL     1       6.027   4.476  16.408  0.00  0.00    +0.000 A 
ATOM      6  C   UNL     1       5.599   3.783  15.264  0.00  0.00    +0.000 A 
ATOM      7  C   UNL     1       6.238   4.028  14.063  0.00  0.00    +0.000 A 
ATOM      8  C   UNL     1       7.269   4.950  14.020  0.00  0.00    +0.000 A 
ATOM      9  N   UNL     1       7.708   5.646  15.077  0.00  0.00    +0.000 NA
ATOM     10  C   UNL     1       7.065   5.413  16.258  0.00  0.00    +0.000 A 
ATOM     11  C   UNL     1       7.868   5.037  12.648  0.00  0.00    +0.000 C 
ATOM     12  C   UNL     1       6.832   4.282  11.799  0.00  0.00    +0.000 C 
ATOM     13  C   UNL     1       6.014   3.385  12.740  0.00  0.00    +0.000 C 
BRANCH  10  14
ATOM     14  O   UNL     1       7.512   6.104  17.364  0.00  0.00    +0.000 OA
ATOM     15  C   UNL     1       7.236   7.501  17.306  0.00  0.00    +0.000 C 
ENDBRANCH  10  14
ENDBRANCH   2   5
BRANCH   1  16
ATOM     16  C   UNL     1       3.201   3.991  18.904  0.00  0.00    +0.000 C 
BRANCH  16  20
ATOM     17  C   UNL     1       1.566   7.080  20.529  0.00  0.00    +0.000 A 
ATOM     18  N   UNL     1       2.257   7.507  19.490  0.00  0.00    +0.000 NA
ATOM     19  N   UNL     1       2.903   6.480  18.831  0.00  0.00    +0.000 NA
ATOM     20  C   UNL     1       2.676   5.306  19.391  0.00  0.00    +0.000 A 
ATOM     21  S   UNL     1       1.678   5.384  20.789  0.00  0.00    +0.000 S 
BRANCH  17  23
ATOM     22  C   UNL     1       1.155   9.411  21.309  0.00  0.00    +0.000 C 
ATOM     23  C   UNL     1       0.742   7.952  21.419  0.00  0.00    +0.000 C 
ENDBRANCH  17  23
ENDBRANCH  16  20
ENDBRANCH   1  16
TORSDOF 5
ENDMDL
MODEL 8
REMARK VINA RESULT:      -6.9      1.359      2.171
REMARK  Name = 
REMARK  7 active torsions:
REMARK  status: ('A' for Active; 'I' for Inactive)
REMARK    1  A    between atoms: C_1  and  C_2
REMARK    2  A    between atoms: C_2  and  C_3
REMARK    3  A    between atoms: C_6  and  C_7
REMARK    4  A    between atoms: C_7  and  N_8
REMARK    5  A    between atoms: C_9  and  C_11
REMARK    6  A    between atoms: C_16  and  O_17
REMARK    7  A    between atoms: O_17  and  C_18
REMARK                            x       y       z     vdW  Elec       q    Type
REMARK                         _______ _______ _______ _____ _____    ______ ____
ROOT
ATOM      1  N   UNL     1       6.417   4.842  16.240  0.00  0.00    +0.000 N 
ATOM      2  C   UNL     1       5.270   5.454  16.711  0.00  0.00    +0.000 C 
ATOM      3  O   UNL     1       4.849   6.491  16.212  0.00  0.00    +0.000 OA
ATOM      4  H   UNL     1       6.720   3.937  16.580  0.00  0.00    +0.000 HD
ENDROOT
BRANCH   2   5
ATOM      5  C   UNL     1       4.600   4.799  17.873  0.00  0.00    +0.000 A 
ATOM      6  C   UNL     1       3.202   4.666  17.889  0.00  0.00    +0.000 A 
ATOM      7  C   UNL     1       2.608   4.046  18.972  0.00  0.00    +0.000 A 
ATOM      8  C   UNL     1       3.402   3.570  20.000  0.00  0.00    +0.000 A 
ATOM      9  N   UNL     1       4.738   3.660  20.029  0.00  0.00    +0.000 NA
ATOM     10  C   UNL     1       5.323   4.259  18.951  0.00  0.00    +0.000 A 
ATOM     11  C   UNL     1       2.573   2.982  21.103  0.00  0.00    +0.000 C 
ATOM     12  C   UNL     1       1.191   2.871  20.441  0.00  0.00    +0.000 C 
ATOM     13  C   UNL     1       1.160   3.841  19.249  0.00  0.00    +0.000 C 
BRANCH  10  14
ATOM     14  O   UNL     1       6.696   4.381  18.969  0.00  0.00    +0.000 OA
ATOM     15  C   UNL     1       7.150   5.559  19.631  0.00  0.00    +0.000 C 
ENDBRANCH  10  14
ENDBRANCH   2   5
BRANCH   1  16
ATOM     16  C   UNL     1       7.173   5.414  15.143  0.00  0.00    +0.000 C 
BRANCH  16  20
ATOM     17  C   UNL     1       5.912   3.373  12.127  0.00  0.00    +0.000 A 
ATOM     18  N   UNL     1       7.030   3.964  11.756  0.00  0.00    +0.000 NA
ATOM     19  N   UNL     1       7.572   4.740  12.761  0.00  0.00    +0.000 NA
ATOM     20  C   UNL     1       6.846   4.709  13.863  0.00  0.00    +0.000 A 
ATOM     21  S   UNL     1       5.426   3.747  13.733  0.00  0.00    +0.000 S 
BRANCH  17  23
ATOM     22  C   UNL     1       3.772   3.062  10.886  0.00  0.00    +0.000 C 
ATOM     23  C   UNL     1       5.112   2.450  11.267  0.00  0.00    +0.000 C 
ENDBRANCH  17  23
ENDBRANCH  16  20
ENDBRANCH   1  16
TORSDOF 5
ENDMDL
MODEL 9
REMARK VINA RESULT:      -6.9      1.290      1.410
REMARK  Name = 
REMARK  7 active torsions:
REMARK  status: ('A' for Active; 'I' for Inactive)
REMARK    1  A    between atoms: C_1  and  C_2
REMARK    2  A    between atoms: C_2  and  C_3
REMARK    3  A    between atoms: C_6  and  C_7
REMARK    4  A    between atoms: C_7  and  N_8
REMARK    5  A    between atoms: C_9  and  C_11
REMARK    6  A    between atoms: C_16  and  O_17
REMARK    7  A    between atoms: O_17  and  C_18
REMARK                            x       y       z     vdW  Elec       q    Type
REMARK                         _______ _______ _______ _____ _____    ______ ____
ROOT
ATOM      1  N   UNL     1       6.077   5.088  16.672  0.00  0.00    +0.000 N 
ATOM      2  C   UNL     1       4.928   5.856  16.702  0.00  0.00    +0.000 C 
ATOM      3  O   UNL     1       4.800   6.841  15.986  0.00  0.00    +0.000 OA
ATOM      4  H   UNL     1       6.155   4.220  17.188  0.00  0.00    +0.000 HD
ENDROOT
BRANCH   2   5
ATOM      5  C   UNL     1       3.877   5.437  17.676  0.00  0.00    +0.000 A 
ATOM      6  C   UNL     1       3.668   4.072  17.932  0.00  0.00    +0.000 A 
ATOM      7  C   UNL     1       2.696   3.710  18.846  0.00  0.00    +0.000 A 
ATOM      8  C   UNL     1       1.966   4.697  19.486  0.00  0.00    +0.000 A 
ATOM      9  N   UNL     1       2.134   6.012  19.287  0.00  0.00    +0.000 NA
ATOM     10  C   UNL     1       3.104   6.366  18.396  0.00  0.00    +0.000 A 
ATOM     11  C   UNL     1       0.929   4.108  20.394  0.00  0.00    +0.000 C 
ATOM     12  C   UNL     1       1.363   2.635  20.462  0.00  0.00    +0.000 C 
ATOM     13  C   UNL     1       2.248   2.347  19.239  0.00  0.00    +0.000 C 
BRANCH  10  14
ATOM     14  O   UNL     1       3.281   7.712  18.161  0.00  0.00    +0.000 OA
ATOM     15  C   UNL     1       2.067   8.396  17.858  0.00  0.00    +0.000 C 
ENDBRANCH  10  14
ENDBRANCH   2   5
BRANCH   1  16
ATOM     16  C   UNL     1       7.181   5.428  15.796  0.00  0.00    +0.000 C 
BRANCH  16  20
ATOM     17  C   UNL     1       6.289   3.559  12.546  0.00  0.00    +0.000 A 
ATOM     18  N   UNL     1       7.203   4.457  12.239  0.00  0.00    +0.000 NA
ATOM     19  N   UNL     1       7.595   5.203  13.333  0.00  0.00    +0.000 NA
ATOM     20  C   UNL     1       6.964   4.842  14.435  0.00  0.00    +0.000 A 
ATOM     21  S   UNL     1       5.820   3.579  14.200  0.00  0.00    +0.000 S 
BRANCH  17  23
ATOM     22  C   UNL     1       6.691   1.512  11.181  0.00  0.00    +0.000 C 
ATOM     23  C   UNL     1       5.692   2.587  11.580  0.00  0.00    +0.000 C 
ENDBRANCH  17  23
ENDBRANCH  16  20
ENDBRANCH   1  16
TORSDOF 5
ENDMDL
