MODEL 1
REMARK VINA RESULT:      -7.9      0.000      0.000
REMARK  Name = 
REMARK  7 active torsions:
REMARK  status: ('A' for Active; 'I' for Inactive)
REMARK    1  A    between atoms: C_1  and  O_2
REMARK    2  A    between atoms: O_2  and  C_3
REMARK    3  A    between atoms: C_6  and  S_7
REMARK    4  A    between atoms: S_7  and  C_10
REMARK    5  A    between atoms: C_10  and  C_11
REMARK    6  A    between atoms: C_10  and  C_13
REMARK    7  A    between atoms: C_22  and  N_23
REMARK                            x       y       z     vdW  Elec       q    Type
REMARK                         _______ _______ _______ _____ _____    ______ ____
ROOT
ATOM      1  C   UNL     1       4.152   5.039  17.637  0.00  0.00    +0.000 A 
ATOM      2  N   UNL     1       3.165   4.150  17.350  0.00  0.00    +0.000 NA
ATOM      3  C   UNL     1       2.530   3.689  18.458  0.00  0.00    +0.000 A 
ATOM      4  C   UNL     1       1.177   3.392  18.593  0.00  0.00    +0.000 A 
ATOM      5  C   UNL     1       0.671   2.939  19.815  0.00  0.00    +0.000 A 
ATOM      6  C   UNL     1       1.557   2.533  20.803  0.00  0.00    +0.000 A 
ATOM      7  C   UNL     1       2.898   2.884  20.680  0.00  0.00    +0.000 A 
ATOM      8  C   UNL     1       3.224   3.764  19.665  0.00  0.00    +0.000 A 
ATOM      9  N   UNL     1       3.999   4.867  19.833  0.00  0.00    +0.000 NA
ATOM     10  C   UNL     1       3.981   5.730  18.815  0.00  0.00    +0.000 A 
ENDROOT
BRANCH  10  11
ATOM     11  N   UNL     1       2.962   6.763  18.743  0.00  0.00    +0.000 N 
ATOM     12  C   UNL     1       2.360   7.182  20.014  0.00  0.00    +0.000 C 
ATOM     13  C   UNL     1       1.148   8.105  19.776  0.00  0.00    +0.000 C 
ATOM     14  C   UNL     1       1.500   9.284  18.883  0.00  0.00    +0.000 C 
ATOM     15  C   UNL     1       2.027   8.765  17.559  0.00  0.00    +0.000 C 
ATOM     16  C   UNL     1       3.230   7.845  17.773  0.00  0.00    +0.000 C 
ENDBRANCH  10  11
BRANCH   1  17
ATOM     17  C   UNL     1       5.206   5.372  16.653  0.00  0.00    +0.000 C 
BRANCH  17  18
ATOM     18  S   UNL     1       6.897   5.166  17.269  0.00  0.00    +0.000 S 
ATOM     19  O   UNL     1       7.780   4.674  16.237  0.00  0.00    +0.000 OA
ATOM     20  O   UNL     1       6.832   4.358  18.509  0.00  0.00    +0.000 OA
BRANCH  18  24
ATOM     21  C   UNL     1       8.524   9.247  18.513  0.00  0.00    +0.000 A 
ATOM     22  C   UNL     1       7.663   9.131  17.424  0.00  0.00    +0.000 A 
ATOM     23  C   UNL     1       7.116   7.901  17.087  0.00  0.00    +0.000 A 
ATOM     24  C   UNL     1       7.518   6.752  17.769  0.00  0.00    +0.000 A 
ATOM     25  C   UNL     1       8.334   6.861  18.897  0.00  0.00    +0.000 A 
ATOM     26  C   UNL     1       8.835   8.115  19.270  0.00  0.00    +0.000 A 
BRANCH  21  28
ATOM     27  C   UNL     1       9.403  10.829  20.035  0.00  0.00    +0.000 C 
ATOM     28  O   UNL     1       9.025  10.502  18.706  0.00  0.00    +0.000 OA
ENDBRANCH  21  28
ENDBRANCH  18  24
ENDBRANCH  17  18
BRANCH  17  29
ATOM     29  C   UNL     1       5.258   4.627  15.330  0.00  0.00    +0.000 C 
ATOM     30  N   UNL     1       5.300   4.008  14.233  0.00  0.00    +0.000 NA
ENDBRANCH  17  29
ENDBRANCH   1  17
TORSDOF 6
ENDMDL
MODEL 2
REMARK VINA RESULT:      -7.0      2.395      4.183
REMARK  Name = 
REMARK  7 active torsions:
REMARK  status: ('A' for Active; 'I' for Inactive)
REMARK    1  A    between atoms: C_1  and  O_2
REMARK    2  A    between atoms: O_2  and  C_3
REMARK    3  A    between atoms: C_6  and  S_7
REMARK    4  A    between atoms: S_7  and  C_10
REMARK    5  A    between atoms: C_10  and  C_11
REMARK    6  A    between atoms: C_10  and  C_13
REMARK    7  A    between atoms: C_22  and  N_23
REMARK                            x       y       z     vdW  Elec       q    Type
REMARK                         _______ _______ _______ _____ _____    ______ ____
ROOT
ATOM      1  C   UNL     1       4.009   5.806  18.183  0.00  0.00    +0.000 A 
ATOM      2  N   UNL     1       3.200   4.894  17.585  0.00  0.00    +0.000 NA
ATOM      3  C   UNL     1       2.467   4.173  18.472  0.00  0.00    +0.000 A 
ATOM      4  C   UNL     1       1.159   3.725  18.319  0.00  0.00    +0.000 A 
ATOM      5  C   UNL     1       0.534   3.003  19.342  0.00  0.00    +0.000 A 
ATOM      6  C   UNL     1       1.303   2.509  20.385  0.00  0.00    +0.000 A 
ATOM      7  C   UNL     1       2.591   3.007  20.557  0.00  0.00    +0.000 A 
ATOM      8  C   UNL     1       2.953   4.088  19.776  0.00  0.00    +0.000 A 
ATOM      9  N   UNL     1       3.547   5.212  20.259  0.00  0.00    +0.000 NA
ATOM     10  C   UNL     1       3.574   6.244  19.414  0.00  0.00    +0.000 A 
ENDROOT
BRANCH  10  11
ATOM     11  N   UNL     1       2.455   7.167  19.342  0.00  0.00    +0.000 N 
ATOM     12  C   UNL     1       1.906   7.636  20.619  0.00  0.00    +0.000 C 
ATOM     13  C   UNL     1       0.595   8.417  20.406  0.00  0.00    +0.000 C 
ATOM     14  C   UNL     1       0.762   9.542  19.398  0.00  0.00    +0.000 C 
ATOM     15  C   UNL     1       1.242   8.962  18.081  0.00  0.00    +0.000 C 
ATOM     16  C   UNL     1       2.542   8.180  18.271  0.00  0.00    +0.000 C 
ENDBRANCH  10  11
BRANCH   1  17
ATOM     17  C   UNL     1       5.150   6.419  17.467  0.00  0.00    +0.000 C 
BRANCH  17  18
ATOM     18  S   UNL     1       6.572   5.320  17.244  0.00  0.00    +0.000 S 
ATOM     19  O   UNL     1       6.476   4.150  18.086  0.00  0.00    +0.000 OA
ATOM     20  O   UNL     1       7.802   6.134  17.400  0.00  0.00    +0.000 OA
BRANCH  18  24
ATOM     21  C   UNL     1       6.638   3.803  12.938  0.00  0.00    +0.000 A 
ATOM     22  C   UNL     1       5.667   3.356  13.830  0.00  0.00    +0.000 A 
ATOM     23  C   UNL     1       5.606   3.867  15.120  0.00  0.00    +0.000 A 
ATOM     24  C   UNL     1       6.592   4.749  15.564  0.00  0.00    +0.000 A 
ATOM     25  C   UNL     1       7.537   5.249  14.664  0.00  0.00    +0.000 A 
ATOM     26  C   UNL     1       7.555   4.776  13.346  0.00  0.00    +0.000 A 
BRANCH  21  28
ATOM     27  C   UNL     1       5.606   2.204  11.534  0.00  0.00    +0.000 C 
ATOM     28  O   UNL     1       6.614   3.187  11.720  0.00  0.00    +0.000 OA
ENDBRANCH  21  28
ENDBRANCH  18  24
ENDBRANCH  17  18
BRANCH  17  29
ATOM     29  C   UNL     1       4.947   6.964  16.064  0.00  0.00    +0.000 C 
ATOM     30  N   UNL     1       4.779   7.415  14.898  0.00  0.00    +0.000 NA
ENDBRANCH  17  29
ENDBRANCH   1  17
TORSDOF 6
ENDMDL
MODEL 3
REMARK VINA RESULT:      -7.0      0.510      1.037
REMARK  Name = 
REMARK  7 active torsions:
REMARK  status: ('A' for Active; 'I' for Inactive)
REMARK    1  A    between atoms: C_1  and  O_2
REMARK    2  A    between atoms: O_2  and  C_3
REMARK    3  A    between atoms: C_6  and  S_7
REMARK    4  A    between atoms: S_7  and  C_10
REMARK    5  A    between atoms: C_10  and  C_11
REMARK    6  A    between atoms: C_10  and  C_13
REMARK    7  A    between atoms: C_22  and  N_23
REMARK                            x       y       z     vdW  Elec       q    Type
REMARK                         _______ _______ _______ _____ _____    ______ ____
ROOT
ATOM      1  C   UNL     1       4.241   5.070  17.522  0.00  0.00    +0.000 A 
ATOM      2  N   UNL     1       3.118   4.352  17.259  0.00  0.00    +0.000 NA
ATOM      3  C   UNL     1       2.511   3.887  18.381  0.00  0.00    +0.000 A 
ATOM      4  C   UNL     1       1.145   3.767  18.614  0.00  0.00    +0.000 A 
ATOM      5  C   UNL     1       0.676   3.282  19.839  0.00  0.00    +0.000 A 
ATOM      6  C   UNL     1       1.569   2.675  20.711  0.00  0.00    +0.000 A 
ATOM      7  C   UNL     1       2.932   2.850  20.495  0.00  0.00    +0.000 A 
ATOM      8  C   UNL     1       3.301   3.761  19.523  0.00  0.00    +0.000 A 
ATOM      9  N   UNL     1       4.237   4.730  19.704  0.00  0.00    +0.000 NA
ATOM     10  C   UNL     1       4.263   5.673  18.760  0.00  0.00    +0.000 A 
ENDROOT
BRANCH  10  11
ATOM     11  N   UNL     1       3.400   6.837  18.857  0.00  0.00    +0.000 N 
ATOM     12  C   UNL     1       2.963   7.438  17.593  0.00  0.00    +0.000 C 
ATOM     13  C   UNL     1       2.251   8.784  17.835  0.00  0.00    +0.000 C 
ATOM     14  C   UNL     1       1.118   8.654  18.840  0.00  0.00    +0.000 C 
ATOM     15  C   UNL     1       1.669   8.114  20.145  0.00  0.00    +0.000 C 
ATOM     16  C   UNL     1       2.382   6.779  19.926  0.00  0.00    +0.000 C 
ENDBRANCH  10  11
BRANCH   1  17
ATOM     17  C   UNL     1       5.252   5.341  16.476  0.00  0.00    +0.000 C 
BRANCH  17  18
ATOM     18  S   UNL     1       6.965   5.080  17.005  0.00  0.00    +0.000 S 
ATOM     19  O   UNL     1       7.818   4.741  15.890  0.00  0.00    +0.000 OA
ATOM     20  O   UNL     1       6.950   4.115  18.129  0.00  0.00    +0.000 OA
BRANCH  18  24
ATOM     21  C   UNL     1       8.598   8.980  18.728  0.00  0.00    +0.000 A 
ATOM     22  C   UNL     1       7.897   8.978  17.525  0.00  0.00    +0.000 A 
ATOM     23  C   UNL     1       7.343   7.803  17.034  0.00  0.00    +0.000 A 
ATOM     24  C   UNL     1       7.585   6.595  17.690  0.00  0.00    +0.000 A 
ATOM     25  C   UNL     1       8.237   6.591  18.925  0.00  0.00    +0.000 A 
ATOM     26  C   UNL     1       8.740   7.790  19.446  0.00  0.00    +0.000 A 
BRANCH  21  28
ATOM     27  C   UNL     1       9.113  11.191  18.063  0.00  0.00    +0.000 C 
ATOM     28  O   UNL     1       9.128  10.191  19.071  0.00  0.00    +0.000 OA
ENDBRANCH  21  28
ENDBRANCH  18  24
ENDBRANCH  17  18
BRANCH  17  29
ATOM     29  C   UNL     1       5.203   4.567  15.170  0.00  0.00    +0.000 C 
ATOM     30  N   UNL     1       5.162   3.923  14.086  0.00  0.00    +0.000 NA
ENDBRANCH  17  29
ENDBRANCH   1  17
TORSDOF 6
ENDMDL
MODEL 4
REMARK VINA RESULT:      -6.7      7.222     10.744
REMARK  Name = 
REMARK  7 active torsions:
REMARK  status: ('A' for Active; 'I' for Inactive)
REMARK    1  A    between atoms: C_1  and  O_2
REMARK    2  A    between atoms: O_2  and  C_3
REMARK    3  A    between atoms: C_6  and  S_7
REMARK    4  A    between atoms: S_7  and  C_10
REMARK    5  A    between atoms: C_10  and  C_11
REMARK    6  A    between atoms: C_10  and  C_13
REMARK    7  A    between atoms: C_22  and  N_23
REMARK                            x       y       z     vdW  Elec       q    Type
REMARK                         _______ _______ _______ _____ _____    ______ ____
ROOT
ATOM      1  C   UNL     1      -0.375  12.034  20.053  0.00  0.00    +0.000 A 
ATOM      2  N   UNL     1       0.792  11.973  19.361  0.00  0.00    +0.000 NA
ATOM      3  C   UNL     1       1.189  10.701  19.104  0.00  0.00    +0.000 A 
ATOM      4  C   UNL     1       1.820  10.229  17.958  0.00  0.00    +0.000 A 
ATOM      5  C   UNL     1       2.152   8.875  17.839  0.00  0.00    +0.000 A 
ATOM      6  C   UNL     1       2.096   8.066  18.965  0.00  0.00    +0.000 A 
ATOM      7  C   UNL     1       1.415   8.531  20.085  0.00  0.00    +0.000 A 
ATOM      8  C   UNL     1       0.692   9.700  19.938  0.00  0.00    +0.000 A 
ATOM      9  N   UNL     1      -0.595   9.857  20.346  0.00  0.00    +0.000 NA
ATOM     10  C   UNL     1      -1.205  10.949  19.883  0.00  0.00    +0.000 A 
ENDROOT
BRANCH  10  11
ATOM     11  N   UNL     1      -1.878  10.926  18.596  0.00  0.00    +0.000 N 
ATOM     12  C   UNL     1      -1.724   9.707  17.795  0.00  0.00    +0.000 C 
ATOM     13  C   UNL     1      -2.289   9.902  16.373  0.00  0.00    +0.000 C 
ATOM     14  C   UNL     1      -3.724  10.404  16.397  0.00  0.00    +0.000 C 
ATOM     15  C   UNL     1      -3.780  11.712  17.164  0.00  0.00    +0.000 C 
ATOM     16  C   UNL     1      -3.222  11.541  18.577  0.00  0.00    +0.000 C 
ENDBRANCH  10  11
BRANCH   1  17
ATOM     17  C   UNL     1      -0.793  13.264  20.763  0.00  0.00    +0.000 C 
BRANCH  17  18
ATOM     18  S   UNL     1      -1.038  13.054  22.545  0.00  0.00    +0.000 S 
ATOM     19  O   UNL     1      -0.491  14.164  23.290  0.00  0.00    +0.000 OA
ATOM     20  O   UNL     1      -0.534  11.711  22.916  0.00  0.00    +0.000 OA
BRANCH  18  24
ATOM     21  C   UNL     1      -5.523  13.005  23.401  0.00  0.00    +0.000 A 
ATOM     22  C   UNL     1      -5.050  13.312  22.128  0.00  0.00    +0.000 A 
ATOM     23  C   UNL     1      -3.690  13.262  21.850  0.00  0.00    +0.000 A 
ATOM     24  C   UNL     1      -2.781  13.014  22.880  0.00  0.00    +0.000 A 
ATOM     25  C   UNL     1      -3.244  12.649  24.146  0.00  0.00    +0.000 A 
ATOM     26  C   UNL     1      -4.620  12.642  24.404  0.00  0.00    +0.000 A 
BRANCH  21  28
ATOM     27  C   UNL     1      -7.654  11.994  23.234  0.00  0.00    +0.000 C 
ATOM     28  O   UNL     1      -6.874  13.137  23.548  0.00  0.00    +0.000 OA
ENDBRANCH  21  28
ENDBRANCH  18  24
ENDBRANCH  17  18
BRANCH  17  29
ATOM     29  C   UNL     1       0.092  14.497  20.708  0.00  0.00    +0.000 C 
ATOM     30  N   UNL     1       0.828  15.520  20.664  0.00  0.00    +0.000 NA
ENDBRANCH  17  29
ENDBRANCH   1  17
TORSDOF 6
ENDMDL
MODEL 5
REMARK VINA RESULT:      -6.5      8.063     11.736
REMARK  Name = 
REMARK  7 active torsions:
REMARK  status: ('A' for Active; 'I' for Inactive)
REMARK    1  A    between atoms: C_1  and  O_2
REMARK    2  A    between atoms: O_2  and  C_3
REMARK    3  A    between atoms: C_6  and  S_7
REMARK    4  A    between atoms: S_7  and  C_10
REMARK    5  A    between atoms: C_10  and  C_11
REMARK    6  A    between atoms: C_10  and  C_13
REMARK    7  A    between atoms: C_22  and  N_23
REMARK                            x       y       z     vdW  Elec       q    Type
REMARK                         _______ _______ _______ _____ _____    ______ ____
ROOT
ATOM      1  C   UNL     1      -1.548  13.043  22.510  0.00  0.00    +0.000 A 
ATOM      2  N   UNL     1      -0.885  13.549  23.583  0.00  0.00    +0.000 NA
ATOM      3  C   UNL     1      -1.024  14.894  23.705  0.00  0.00    +0.000 A 
ATOM      4  C   UNL     1      -1.136  15.627  24.881  0.00  0.00    +0.000 A 
ATOM      5  C   UNL     1      -1.291  17.017  24.837  0.00  0.00    +0.000 A 
ATOM      6  C   UNL     1      -1.064  17.683  23.641  0.00  0.00    +0.000 A 
ATOM      7  C   UNL     1      -1.008  16.940  22.466  0.00  0.00    +0.000 A 
ATOM      8  C   UNL     1      -1.355  15.605  22.552  0.00  0.00    +0.000 A 
ATOM      9  N   UNL     1      -2.220  14.987  21.704  0.00  0.00    +0.000 NA
ATOM     10  C   UNL     1      -2.635  13.782  22.102  0.00  0.00    +0.000 A 
ENDROOT
BRANCH  10  11
ATOM     11  N   UNL     1      -3.789  13.652  22.975  0.00  0.00    +0.000 N 
ATOM     12  C   UNL     1      -5.052  14.212  22.483  0.00  0.00    +0.000 C 
ATOM     13  C   UNL     1      -6.127  14.212  23.588  0.00  0.00    +0.000 C 
ATOM     14  C   UNL     1      -6.304  12.835  24.207  0.00  0.00    +0.000 C 
ATOM     15  C   UNL     1      -4.976  12.370  24.773  0.00  0.00    +0.000 C 
ATOM     16  C   UNL     1      -3.894  12.365  23.692  0.00  0.00    +0.000 C 
ENDBRANCH  10  11
BRANCH   1  17
ATOM     17  C   UNL     1      -1.236  11.702  21.966  0.00  0.00    +0.000 C 
BRANCH  17  18
ATOM     18  S   UNL     1      -0.182  11.717  20.494  0.00  0.00    +0.000 S 
ATOM     19  O   UNL     1       0.894  10.758  20.603  0.00  0.00    +0.000 OA
ATOM     20  O   UNL     1       0.221  13.120  20.240  0.00  0.00    +0.000 OA
BRANCH  18  24
ATOM     21  C   UNL     1      -2.730  10.478  16.914  0.00  0.00    +0.000 A 
ATOM     22  C   UNL     1      -3.128  11.530  17.734  0.00  0.00    +0.000 A 
ATOM     23  C   UNL     1      -2.321  11.951  18.783  0.00  0.00    +0.000 A 
ATOM     24  C   UNL     1      -1.158  11.243  19.090  0.00  0.00    +0.000 A 
ATOM     25  C   UNL     1      -0.718  10.223  18.242  0.00  0.00    +0.000 A 
ATOM     26  C   UNL     1      -1.508   9.844  17.149  0.00  0.00    +0.000 A 
BRANCH  21  28
ATOM     27  C   UNL     1      -3.173  10.180  14.610  0.00  0.00    +0.000 C 
ATOM     28  O   UNL     1      -3.637  10.138  15.951  0.00  0.00    +0.000 OA
ENDBRANCH  21  28
ENDBRANCH  18  24
ENDBRANCH  17  18
BRANCH  17  29
ATOM     29  C   UNL     1      -0.535  10.682  22.847  0.00  0.00    +0.000 C 
ATOM     30  N   UNL     1       0.046   9.835  23.578  0.00  0.00    +0.000 NA
ENDBRANCH  17  29
ENDBRANCH   1  17
TORSDOF 6
ENDMDL
MODEL 6
REMARK VINA RESULT:      -6.5      2.369      4.722
REMARK  Name = 
REMARK  7 active torsions:
REMARK  status: ('A' for Active; 'I' for Inactive)
REMARK    1  A    between atoms: C_1  and  O_2
REMARK    2  A    between atoms: O_2  and  C_3
REMARK    3  A    between atoms: C_6  and  S_7
REMARK    4  A    between atoms: S_7  and  C_10
REMARK    5  A    between atoms: C_10  and  C_11
REMARK    6  A    between atoms: C_10  and  C_13
REMARK    7  A    between atoms: C_22  and  N_23
REMARK                            x       y       z     vdW  Elec       q    Type
REMARK                         _______ _______ _______ _____ _____    ______ ____
ROOT
ATOM      1  C   UNL     1       4.818   4.498  18.046  0.00  0.00    +0.000 A 
ATOM      2  N   UNL     1       3.855   3.993  17.232  0.00  0.00    +0.000 NA
ATOM      3  C   UNL     1       2.784   3.513  17.914  0.00  0.00    +0.000 A 
ATOM      4  C   UNL     1       1.446   3.581  17.539  0.00  0.00    +0.000 A 
ATOM      5  C   UNL     1       0.451   3.050  18.368  0.00  0.00    +0.000 A 
ATOM      6  C   UNL     1       0.820   2.225  19.421  0.00  0.00    +0.000 A 
ATOM      7  C   UNL     1       2.153   2.209  19.817  0.00  0.00    +0.000 A 
ATOM      8  C   UNL     1       2.989   3.149  19.244  0.00  0.00    +0.000 A 
ATOM      9  N   UNL     1       3.844   3.937  19.947  0.00  0.00    +0.000 NA
ATOM     10  C   UNL     1       4.364   4.957  19.262  0.00  0.00    +0.000 A 
ENDROOT
BRANCH  10  11
ATOM     11  N   UNL     1       3.659   6.225  19.179  0.00  0.00    +0.000 N 
ATOM     12  C   UNL     1       3.441   6.769  17.835  0.00  0.00    +0.000 C 
ATOM     13  C   UNL     1       2.893   8.209  17.901  0.00  0.00    +0.000 C 
ATOM     14  C   UNL     1       1.653   8.304  18.774  0.00  0.00    +0.000 C 
ATOM     15  C   UNL     1       1.987   7.810  20.169  0.00  0.00    +0.000 C 
ATOM     16  C   UNL     1       2.535   6.382  20.125  0.00  0.00    +0.000 C 
ENDBRANCH  10  11
BRANCH   1  17
ATOM     17  C   UNL     1       6.202   4.716  17.569  0.00  0.00    +0.000 C 
BRANCH  17  18
ATOM     18  S   UNL     1       6.347   5.906  16.211  0.00  0.00    +0.000 S 
ATOM     19  O   UNL     1       7.560   6.684  16.315  0.00  0.00    +0.000 OA
ATOM     20  O   UNL     1       5.083   6.678  16.149  0.00  0.00    +0.000 OA
BRANCH  18  24
ATOM     21  C   UNL     1       6.576   3.566  12.298  0.00  0.00    +0.000 A 
ATOM     22  C   UNL     1       5.462   3.452  13.125  0.00  0.00    +0.000 A 
ATOM     23  C   UNL     1       5.362   4.214  14.282  0.00  0.00    +0.000 A 
ATOM     24  C   UNL     1       6.434   5.014  14.680  0.00  0.00    +0.000 A 
ATOM     25  C   UNL     1       7.532   5.181  13.832  0.00  0.00    +0.000 A 
ATOM     26  C   UNL     1       7.599   4.456  12.635  0.00  0.00    +0.000 A 
BRANCH  21  28
ATOM     27  C   UNL     1       6.022   1.436  11.433  0.00  0.00    +0.000 C 
ATOM     28  O   UNL     1       6.567   2.729  11.219  0.00  0.00    +0.000 OA
ENDBRANCH  21  28
ENDBRANCH  18  24
ENDBRANCH  17  18
BRANCH  17  29
ATOM     29  C   UNL     1       7.259   5.214  18.540  0.00  0.00    +0.000 C 
ATOM     30  N   UNL     1       8.135   5.629  19.346  0.00  0.00    +0.000 NA
ENDBRANCH  17  29
ENDBRANCH   1  17
TORSDOF 6
ENDMDL
MODEL 7
REMARK VINA RESULT:      -6.4      8.336     11.908
REMARK  Name = 
REMARK  7 active torsions:
REMARK  status: ('A' for Active; 'I' for Inactive)
REMARK    1  A    between atoms: C_1  and  O_2
REMARK    2  A    between atoms: O_2  and  C_3
REMARK    3  A    between atoms: C_6  and  S_7
REMARK    4  A    between atoms: S_7  and  C_10
REMARK    5  A    between atoms: C_10  and  C_11
REMARK    6  A    between atoms: C_10  and  C_13
REMARK    7  A    between atoms: C_22  and  N_23
REMARK                            x       y       z     vdW  Elec       q    Type
REMARK                         _______ _______ _______ _____ _____    ______ ____
ROOT
ATOM      1  C   UNL     1      -1.532  13.218  22.414  0.00  0.00    +0.000 A 
ATOM      2  N   UNL     1      -0.863  13.685  23.501  0.00  0.00    +0.000 NA
ATOM      3  C   UNL     1      -0.848  15.040  23.570  0.00  0.00    +0.000 A 
ATOM      4  C   UNL     1      -0.925  15.828  24.714  0.00  0.00    +0.000 A 
ATOM      5  C   UNL     1      -0.913  17.223  24.615  0.00  0.00    +0.000 A 
ATOM      6  C   UNL     1      -0.556  17.811  23.409  0.00  0.00    +0.000 A 
ATOM      7  C   UNL     1      -0.535  17.021  22.265  0.00  0.00    +0.000 A 
ATOM      8  C   UNL     1      -1.041  15.739  22.379  0.00  0.00    +0.000 A 
ATOM      9  N   UNL     1      -1.933  15.193  21.511  0.00  0.00    +0.000 NA
ATOM     10  C   UNL     1      -2.506  14.062  21.929  0.00  0.00    +0.000 A 
ENDROOT
BRANCH  10  11
ATOM     11  N   UNL     1      -3.705  14.101  22.748  0.00  0.00    +0.000 N 
ATOM     12  C   UNL     1      -4.474  15.350  22.727  0.00  0.00    +0.000 C 
ATOM     13  C   UNL     1      -5.579  15.339  23.802  0.00  0.00    +0.000 C 
ATOM     14  C   UNL     1      -6.465  14.109  23.693  0.00  0.00    +0.000 C 
ATOM     15  C   UNL     1      -5.605  12.865  23.817  0.00  0.00    +0.000 C 
ATOM     16  C   UNL     1      -4.501  12.857  22.759  0.00  0.00    +0.000 C 
ENDBRANCH  10  11
BRANCH   1  17
ATOM     17  C   UNL     1      -1.357  11.829  21.933  0.00  0.00    +0.000 C 
BRANCH  17  18
ATOM     18  S   UNL     1      -0.389  11.681  20.409  0.00  0.00    +0.000 S 
ATOM     19  O   UNL     1       0.566  10.601  20.491  0.00  0.00    +0.000 OA
ATOM     20  O   UNL     1       0.167  13.018  20.094  0.00  0.00    +0.000 OA
BRANCH  18  24
ATOM     21  C   UNL     1      -3.189  10.721  16.932  0.00  0.00    +0.000 A 
ATOM     22  C   UNL     1      -1.943  10.106  17.028  0.00  0.00    +0.000 A 
ATOM     23  C   UNL     1      -1.120  10.347  18.119  0.00  0.00    +0.000 A 
ATOM     24  C   UNL     1      -1.490  11.298  19.071  0.00  0.00    +0.000 A 
ATOM     25  C   UNL     1      -2.759  11.879  19.019  0.00  0.00    +0.000 A 
ATOM     26  C   UNL     1      -3.611  11.585  17.946  0.00  0.00    +0.000 A 
BRANCH  21  28
ATOM     27  C   UNL     1      -3.092  10.131  14.644  0.00  0.00    +0.000 C 
ATOM     28  O   UNL     1      -3.876  10.432  15.789  0.00  0.00    +0.000 OA
ENDBRANCH  21  28
ENDBRANCH  18  24
ENDBRANCH  17  18
BRANCH  17  29
ATOM     29  C   UNL     1      -0.689  10.804  22.833  0.00  0.00    +0.000 C 
ATOM     30  N   UNL     1      -0.134   9.952  23.580  0.00  0.00    +0.000 NA
ENDBRANCH  17  29
ENDBRANCH   1  17
TORSDOF 6
ENDMDL
MODEL 8
REMARK VINA RESULT:      -6.3      3.664      6.448
REMARK  Name = 
REMARK  7 active torsions:
REMARK  status: ('A' for Active; 'I' for Inactive)
REMARK    1  A    between atoms: C_1  and  O_2
REMARK    2  A    between atoms: O_2  and  C_3
REMARK    3  A    between atoms: C_6  and  S_7
REMARK    4  A    between atoms: S_7  and  C_10
REMARK    5  A    between atoms: C_10  and  C_11
REMARK    6  A    between atoms: C_10  and  C_13
REMARK    7  A    between atoms: C_22  and  N_23
REMARK                            x       y       z     vdW  Elec       q    Type
REMARK                         _______ _______ _______ _____ _____    ______ ____
ROOT
ATOM      1  C   UNL     1       2.443   6.634  19.272  0.00  0.00    +0.000 A 
ATOM      2  N   UNL     1       2.512   5.754  20.305  0.00  0.00    +0.000 NA
ATOM      3  C   UNL     1       2.367   4.463  19.911  0.00  0.00    +0.000 A 
ATOM      4  C   UNL     1       3.017   3.345  20.425  0.00  0.00    +0.000 A 
ATOM      5  C   UNL     1       2.768   2.075  19.894  0.00  0.00    +0.000 A 
ATOM      6  C   UNL     1       1.684   1.899  19.046  0.00  0.00    +0.000 A 
ATOM      7  C   UNL     1       1.078   3.026  18.498  0.00  0.00    +0.000 A 
ATOM      8  C   UNL     1       1.710   4.238  18.701  0.00  0.00    +0.000 A 
ATOM      9  N   UNL     1       1.960   5.142  17.717  0.00  0.00    +0.000 NA
ATOM     10  C   UNL     1       2.807   6.117  18.048  0.00  0.00    +0.000 A 
ENDROOT
BRANCH  10  11
ATOM     11  N   UNL     1       4.240   5.931  17.898  0.00  0.00    +0.000 N 
ATOM     12  C   UNL     1       4.687   4.611  17.442  0.00  0.00    +0.000 C 
ATOM     13  C   UNL     1       6.220   4.477  17.545  0.00  0.00    +0.000 C 
ATOM     14  C   UNL     1       6.936   5.612  16.830  0.00  0.00    +0.000 C 
ATOM     15  C   UNL     1       6.488   6.934  17.422  0.00  0.00    +0.000 C 
ATOM     16  C   UNL     1       4.969   7.085  17.332  0.00  0.00    +0.000 C 
ENDBRANCH  10  11
BRANCH   1  17
ATOM     17  C   UNL     1       2.194   8.075  19.496  0.00  0.00    +0.000 C 
BRANCH  17  18
ATOM     18  S   UNL     1       1.469   8.939  18.078  0.00  0.00    +0.000 S 
ATOM     19  O   UNL     1       0.432   8.152  17.452  0.00  0.00    +0.000 OA
ATOM     20  O   UNL     1       2.579   9.372  17.196  0.00  0.00    +0.000 OA
BRANCH  18  24
ATOM     21  C   UNL     1      -0.471  12.780  19.603  0.00  0.00    +0.000 A 
ATOM     22  C   UNL     1       0.914  12.682  19.497  0.00  0.00    +0.000 A 
ATOM     23  C   UNL     1       1.501  11.538  18.971  0.00  0.00    +0.000 A 
ATOM     24  C   UNL     1       0.708  10.435  18.652  0.00  0.00    +0.000 A 
ATOM     25  C   UNL     1      -0.685  10.541  18.699  0.00  0.00    +0.000 A 
ATOM     26  C   UNL     1      -1.273  11.720  19.173  0.00  0.00    +0.000 A 
BRANCH  21  28
ATOM     27  C   UNL     1      -0.527  15.144  19.538  0.00  0.00    +0.000 C 
ATOM     28  O   UNL     1      -0.912  13.937  20.178  0.00  0.00    +0.000 OA
ENDBRANCH  21  28
ENDBRANCH  18  24
ENDBRANCH  17  18
BRANCH  17  29
ATOM     29  C   UNL     1       1.282   8.509  20.631  0.00  0.00    +0.000 C 
ATOM     30  N   UNL     1       0.525   8.871  21.573  0.00  0.00    +0.000 NA
ENDBRANCH  17  29
ENDBRANCH   1  17
TORSDOF 6
ENDMDL
MODEL 9
REMARK VINA RESULT:      -6.3      7.439     10.658
REMARK  Name = 
REMARK  7 active torsions:
REMARK  status: ('A' for Active; 'I' for Inactive)
REMARK    1  A    between atoms: C_1  and  O_2
REMARK    2  A    between atoms: O_2  and  C_3
REMARK    3  A    between atoms: C_6  and  S_7
REMARK    4  A    between atoms: S_7  and  C_10
REMARK    5  A    between atoms: C_10  and  C_11
REMARK    6  A    between atoms: C_10  and  C_13
REMARK    7  A    between atoms: C_22  and  N_23
REMARK                            x       y       z     vdW  Elec       q    Type
REMARK                         _______ _______ _______ _____ _____    ______ ____
ROOT
ATOM      1  C   UNL     1      -0.519  12.106  19.917  0.00  0.00    +0.000 A 
ATOM      2  N   UNL     1       0.665  12.054  19.252  0.00  0.00    +0.000 NA
ATOM      3  C   UNL     1       1.094  10.785  19.034  0.00  0.00    +0.000 A 
ATOM      4  C   UNL     1       1.760  10.300  17.913  0.00  0.00    +0.000 A 
ATOM      5  C   UNL     1       2.122   8.951  17.833  0.00  0.00    +0.000 A 
ATOM      6  C   UNL     1       2.057   8.166  18.976  0.00  0.00    +0.000 A 
ATOM      7  C   UNL     1       1.342   8.643  20.070  0.00  0.00    +0.000 A 
ATOM      8  C   UNL     1       0.599   9.793  19.880  0.00  0.00    +0.000 A 
ATOM      9  N   UNL     1      -0.700   9.931  20.256  0.00  0.00    +0.000 NA
ATOM     10  C   UNL     1      -1.322  11.000  19.754  0.00  0.00    +0.000 A 
ENDROOT
BRANCH  10  11
ATOM     11  N   UNL     1      -1.966  10.934  18.453  0.00  0.00    +0.000 N 
ATOM     12  C   UNL     1      -1.749   9.710  17.674  0.00  0.00    +0.000 C 
ATOM     13  C   UNL     1      -2.290   9.863  16.239  0.00  0.00    +0.000 C 
ATOM     14  C   UNL     1      -3.742  10.312  16.225  0.00  0.00    +0.000 C 
ATOM     15  C   UNL     1      -3.864  11.627  16.970  0.00  0.00    +0.000 C 
ATOM     16  C   UNL     1      -3.330  11.497  18.397  0.00  0.00    +0.000 C 
ENDBRANCH  10  11
BRANCH   1  17
ATOM     17  C   UNL     1      -0.978  13.343  20.589  0.00  0.00    +0.000 C 
BRANCH  17  18
ATOM     18  S   UNL     1      -0.441  13.503  22.311  0.00  0.00    +0.000 S 
ATOM     19  O   UNL     1       0.781  14.266  22.417  0.00  0.00    +0.000 OA
ATOM     20  O   UNL     1      -0.413  12.145  22.905  0.00  0.00    +0.000 OA
BRANCH  18  24
ATOM     21  C   UNL     1      -3.641  15.821  24.599  0.00  0.00    +0.000 A 
ATOM     22  C   UNL     1      -3.942  15.214  23.383  0.00  0.00    +0.000 A 
ATOM     23  C   UNL     1      -2.988  14.453  22.719  0.00  0.00    +0.000 A 
ATOM     24  C   UNL     1      -1.685  14.389  23.215  0.00  0.00    +0.000 A 
ATOM     25  C   UNL     1      -1.385  14.945  24.461  0.00  0.00    +0.000 A 
ATOM     26  C   UNL     1      -2.370  15.660  25.155  0.00  0.00    +0.000 A 
BRANCH  21  28
ATOM     27  C   UNL     1      -4.659  17.950  24.765  0.00  0.00    +0.000 C 
ATOM     28  O   UNL     1      -4.653  16.575  25.120  0.00  0.00    +0.000 OA
ENDBRANCH  21  28
ENDBRANCH  18  24
ENDBRANCH  17  18
BRANCH  17  29
ATOM     29  C   UNL     1      -0.595  14.694  20.011  0.00  0.00    +0.000 C 
ATOM     30  N   UNL     1      -0.276  15.816  19.531  0.00  0.00    +0.000 NA
ENDBRANCH  17  29
ENDBRANCH   1  17
TORSDOF 6
ENDMDL
