MODEL 1
REMARK VINA RESULT:      -8.2      0.000      0.000
REMARK  Name = 
REMARK  0 active torsions:
REMARK  status: ('A' for Active; 'I' for Inactive)
REMARK                            x       y       z     vdW  Elec       q    Type
REMARK                         _______ _______ _______ _____ _____    ______ ____
ROOT
ATOM      1  O   UNL     1       2.981  12.553  18.158  0.00  0.00    +0.000 OA
ATOM      2  C   UNL     1       2.067  12.688  18.929  0.00  0.00    +0.000 C 
ATOM      3  N   UNL     1       2.098  13.465  20.040  0.00  0.00    +0.000 N 
ATOM      4  C   UNL     1       0.919  13.462  20.698  0.00  0.00    +0.000 C 
ATOM      5  O   UNL     1       0.778  13.770  21.871  0.00  0.00    +0.000 OA
ATOM      6  C   UNL     1      -0.151  13.029  19.737  0.00  0.00    +0.000 C 
ATOM      7  C   UNL     1       0.653  12.187  18.711  0.00  0.00    +0.000 C 
ATOM      8  C   UNL     1       0.318  10.676  18.852  0.00  0.00    +0.000 C 
ATOM      9 CL   UNL     1       1.386   9.697  17.835  0.00  0.00    +0.000 Cl
ATOM     10  C   UNL     1      -1.164  10.653  18.393  0.00  0.00    +0.000 A 
ATOM     11  C   UNL     1      -1.713   9.864  17.384  0.00  0.00    +0.000 A 
ATOM     12  C   UNL     1      -3.065  10.006  17.073  0.00  0.00    +0.000 A 
ATOM     13  C   UNL     1      -3.857  10.949  17.737  0.00  0.00    +0.000 A 
ATOM     14  C   UNL     1      -3.332  11.719  18.775  0.00  0.00    +0.000 A 
ATOM     15  C   UNL     1      -2.000  11.543  19.147  0.00  0.00    +0.000 A 
ATOM     16  C   UNL     1      -1.280  12.195  20.357  0.00  0.00    +0.000 C 
ATOM     17 CL   UNL     1      -2.355  13.218  21.332  0.00  0.00    +0.000 Cl
ATOM     18  C   UNL     1      -0.597  11.052  21.134  0.00  0.00    +0.000 A 
ATOM     19  C   UNL     1      -0.765  10.766  22.487  0.00  0.00    +0.000 A 
ATOM     20  C   UNL     1      -0.114   9.665  23.039  0.00  0.00    +0.000 A 
ATOM     21  C   UNL     1       0.682   8.839  22.242  0.00  0.00    +0.000 A 
ATOM     22  C   UNL     1       0.878   9.123  20.889  0.00  0.00    +0.000 A 
ATOM     23  C   UNL     1       0.272  10.248  20.328  0.00  0.00    +0.000 A 
ATOM     24  H   UNL     1       2.602  14.340  19.956  0.00  0.00    +0.000 HD
ENDROOT
TORSDOF 0
ENDMDL
MODEL 2
REMARK VINA RESULT:      -7.6      6.819      8.851
REMARK  Name = 
REMARK  0 active torsions:
REMARK  status: ('A' for Active; 'I' for Inactive)
REMARK                            x       y       z     vdW  Elec       q    Type
REMARK                         _______ _______ _______ _____ _____    ______ ____
ROOT
ATOM      1  O   UNL     1       3.462   1.798  18.393  0.00  0.00    +0.000 OA
ATOM      2  C   UNL     1       3.887   2.734  17.767  0.00  0.00    +0.000 C 
ATOM      3  N   UNL     1       4.656   2.637  16.654  0.00  0.00    +0.000 N 
ATOM      4  C   UNL     1       4.956   3.847  16.133  0.00  0.00    +0.000 C 
ATOM      5  O   UNL     1       5.888   4.066  15.378  0.00  0.00    +0.000 OA
ATOM      6  C   UNL     1       3.945   4.836  16.642  0.00  0.00    +0.000 C 
ATOM      7  C   UNL     1       3.488   4.182  17.973  0.00  0.00    +0.000 C 
ATOM      8  C   UNL     1       4.018   4.983  19.194  0.00  0.00    +0.000 C 
ATOM      9 CL   UNL     1       3.681   4.124  20.704  0.00  0.00    +0.000 Cl
ATOM     10  C   UNL     1       3.228   6.310  19.048  0.00  0.00    +0.000 A 
ATOM     11  C   UNL     1       2.423   6.912  20.013  0.00  0.00    +0.000 A 
ATOM     12  C   UNL     1       1.747   8.090  19.693  0.00  0.00    +0.000 A 
ATOM     13  C   UNL     1       1.846   8.646  18.413  0.00  0.00    +0.000 A 
ATOM     14  C   UNL     1       2.677   8.077  17.448  0.00  0.00    +0.000 A 
ATOM     15  C   UNL     1       3.414   6.938  17.770  0.00  0.00    +0.000 A 
ATOM     16  C   UNL     1       4.491   6.249  16.891  0.00  0.00    +0.000 C 
ATOM     17 CL   UNL     1       4.774   7.094  15.356  0.00  0.00    +0.000 Cl
ATOM     18  C   UNL     1       5.742   6.080  17.775  0.00  0.00    +0.000 A 
ATOM     19  C   UNL     1       7.025   6.534  17.476  0.00  0.00    +0.000 A 
ATOM     20  C   UNL     1       8.050   6.348  18.401  0.00  0.00    +0.000 A 
ATOM     21  C   UNL     1       7.793   5.731  19.629  0.00  0.00    +0.000 A 
ATOM     22  C   UNL     1       6.519   5.251  19.935  0.00  0.00    +0.000 A 
ATOM     23  C   UNL     1       5.489   5.386  19.003  0.00  0.00    +0.000 A 
ATOM     24  H   UNL     1       4.427   1.882  16.020  0.00  0.00    +0.000 HD
ENDROOT
TORSDOF 0
ENDMDL
MODEL 3
REMARK VINA RESULT:      -7.0      1.639      4.449
REMARK  Name = 
REMARK  0 active torsions:
REMARK  status: ('A' for Active; 'I' for Inactive)
REMARK                            x       y       z     vdW  Elec       q    Type
REMARK                         _______ _______ _______ _____ _____    ______ ____
ROOT
ATOM      1  O   UNL     1       2.195  14.439  18.322  0.00  0.00    +0.000 OA
ATOM      2  C   UNL     1       1.992  13.257  18.419  0.00  0.00    +0.000 C 
ATOM      3  N   UNL     1       2.590  12.303  17.662  0.00  0.00    +0.000 N 
ATOM      4  C   UNL     1       2.206  11.057  18.014  0.00  0.00    +0.000 C 
ATOM      5  O   UNL     1       2.303  10.073  17.298  0.00  0.00    +0.000 OA
ATOM      6  C   UNL     1       1.660  11.114  19.413  0.00  0.00    +0.000 C 
ATOM      7  C   UNL     1       1.194  12.590  19.521  0.00  0.00    +0.000 C 
ATOM      8  C   UNL     1      -0.357  12.680  19.541  0.00  0.00    +0.000 C 
ATOM      9 CL   UNL     1      -0.892  14.364  19.449  0.00  0.00    +0.000 Cl
ATOM     10  C   UNL     1      -0.680  12.003  20.899  0.00  0.00    +0.000 A 
ATOM     11  C   UNL     1      -1.432  12.540  21.942  0.00  0.00    +0.000 A 
ATOM     12  C   UNL     1      -1.585  11.804  23.117  0.00  0.00    +0.000 A 
ATOM     13  C   UNL     1      -0.968  10.556  23.265  0.00  0.00    +0.000 A 
ATOM     14  C   UNL     1      -0.244   9.988  22.217  0.00  0.00    +0.000 A 
ATOM     15  C   UNL     1      -0.137  10.678  21.010  0.00  0.00    +0.000 A 
ATOM     16  C   UNL     1       0.497  10.155  19.694  0.00  0.00    +0.000 C 
ATOM     17 CL   UNL     1       1.077   8.482  19.824  0.00  0.00    +0.000 Cl
ATOM     18  C   UNL     1      -0.540  10.394  18.579  0.00  0.00    +0.000 A 
ATOM     19  C   UNL     1      -1.044   9.429  17.708  0.00  0.00    +0.000 A 
ATOM     20  C   UNL     1      -2.018   9.789  16.778  0.00  0.00    +0.000 A 
ATOM     21  C   UNL     1      -2.503  11.099  16.731  0.00  0.00    +0.000 A 
ATOM     22  C   UNL     1      -1.993  12.082  17.581  0.00  0.00    +0.000 A 
ATOM     23  C   UNL     1      -0.985  11.752  18.488  0.00  0.00    +0.000 A 
ATOM     24  H   UNL     1       3.565  12.462  17.437  0.00  0.00    +0.000 HD
ENDROOT
TORSDOF 0
ENDMDL
MODEL 4
REMARK VINA RESULT:      -6.9      2.026      4.219
REMARK  Name = 
REMARK  0 active torsions:
REMARK  status: ('A' for Active; 'I' for Inactive)
REMARK                            x       y       z     vdW  Elec       q    Type
REMARK                         _______ _______ _______ _____ _____    ______ ____
ROOT
ATOM      1  O   UNL     1       1.092   8.590  22.007  0.00  0.00    +0.000 OA
ATOM      2  C   UNL     1       0.465   9.616  21.936  0.00  0.00    +0.000 C 
ATOM      3  N   UNL     1      -0.589   9.936  22.727  0.00  0.00    +0.000 N 
ATOM      4  C   UNL     1      -1.075  11.166  22.455  0.00  0.00    +0.000 C 
ATOM      5  O   UNL     1      -2.196  11.550  22.750  0.00  0.00    +0.000 OA
ATOM      6  C   UNL     1      -0.003  11.947  21.750  0.00  0.00    +0.000 C 
ATOM      7  C   UNL     1       0.847  10.822  21.102  0.00  0.00    +0.000 C 
ATOM      8  C   UNL     1       0.662  10.808  19.559  0.00  0.00    +0.000 C 
ATOM      9 CL   UNL     1       1.457   9.399  18.842  0.00  0.00    +0.000 Cl
ATOM     10  C   UNL     1       1.321  12.156  19.165  0.00  0.00    +0.000 A 
ATOM     11  C   UNL     1       2.345  12.345  18.240  0.00  0.00    +0.000 A 
ATOM     12  C   UNL     1       2.851  13.631  18.042  0.00  0.00    +0.000 A 
ATOM     13  C   UNL     1       2.362  14.713  18.781  0.00  0.00    +0.000 A 
ATOM     14  C   UNL     1       1.311  14.547  19.683  0.00  0.00    +0.000 A 
ATOM     15  C   UNL     1       0.747  13.283  19.845  0.00  0.00    +0.000 A 
ATOM     16  C   UNL     1      -0.510  12.927  20.684  0.00  0.00    +0.000 C 
ATOM     17 CL   UNL     1      -1.260  14.347  21.441  0.00  0.00    +0.000 Cl
ATOM     18  C   UNL     1      -1.442  12.118  19.761  0.00  0.00    +0.000 A 
ATOM     19  C   UNL     1      -2.774  12.415  19.478  0.00  0.00    +0.000 A 
ATOM     20  C   UNL     1      -3.479  11.613  18.583  0.00  0.00    +0.000 A 
ATOM     21  C   UNL     1      -2.852  10.534  17.954  0.00  0.00    +0.000 A 
ATOM     22  C   UNL     1      -1.525  10.210  18.242  0.00  0.00    +0.000 A 
ATOM     23  C   UNL     1      -0.817  10.973  19.171  0.00  0.00    +0.000 A 
ATOM     24  H   UNL     1      -0.522   9.646  23.694  0.00  0.00    +0.000 HD
ENDROOT
TORSDOF 0
ENDMDL
MODEL 5
REMARK VINA RESULT:      -6.8      1.992      4.317
REMARK  Name = 
REMARK  0 active torsions:
REMARK  status: ('A' for Active; 'I' for Inactive)
REMARK                            x       y       z     vdW  Elec       q    Type
REMARK                         _______ _______ _______ _____ _____    ______ ____
ROOT
ATOM      1  O   UNL     1       0.256   9.703  23.809  0.00  0.00    +0.000 OA
ATOM      2  C   UNL     1       0.321   9.687  22.606  0.00  0.00    +0.000 C 
ATOM      3  N   UNL     1       1.191   8.935  21.887  0.00  0.00    +0.000 N 
ATOM      4  C   UNL     1       1.014   9.082  20.557  0.00  0.00    +0.000 C 
ATOM      5  O   UNL     1       1.853   8.817  19.711  0.00  0.00    +0.000 OA
ATOM      6  C   UNL     1      -0.374   9.611  20.326  0.00  0.00    +0.000 C 
ATOM      7  C   UNL     1      -0.673  10.337  21.665  0.00  0.00    +0.000 C 
ATOM      8  C   UNL     1      -0.686  11.878  21.468  0.00  0.00    +0.000 C 
ATOM      9 CL   UNL     1      -0.814  12.710  23.024  0.00  0.00    +0.000 Cl
ATOM     10  C   UNL     1      -1.937  12.055  20.568  0.00  0.00    +0.000 A 
ATOM     11  C   UNL     1      -3.034  12.878  20.816  0.00  0.00    +0.000 A 
ATOM     12  C   UNL     1      -4.098  12.880  19.913  0.00  0.00    +0.000 A 
ATOM     13  C   UNL     1      -4.085  12.046  18.791  0.00  0.00    +0.000 A 
ATOM     14  C   UNL     1      -2.979  11.244  18.509  0.00  0.00    +0.000 A 
ATOM     15  C   UNL     1      -1.877  11.279  19.361  0.00  0.00    +0.000 A 
ATOM     16  C   UNL     1      -0.510  10.577  19.142  0.00  0.00    +0.000 C 
ATOM     17 CL   UNL     1      -0.422   9.701  17.601  0.00  0.00    +0.000 Cl
ATOM     18  C   UNL     1       0.575  11.654  19.336  0.00  0.00    +0.000 A 
ATOM     19  C   UNL     1       1.573  11.986  18.421  0.00  0.00    +0.000 A 
ATOM     20  C   UNL     1       2.458  13.020  18.719  0.00  0.00    +0.000 A 
ATOM     21  C   UNL     1       2.336  13.735  19.913  0.00  0.00    +0.000 A 
ATOM     22  C   UNL     1       1.356  13.402  20.849  0.00  0.00    +0.000 A 
ATOM     23  C   UNL     1       0.489  12.340  20.590  0.00  0.00    +0.000 A 
ATOM     24  H   UNL     1       1.381   8.008  22.249  0.00  0.00    +0.000 HD
ENDROOT
TORSDOF 0
ENDMDL
MODEL 6
REMARK VINA RESULT:      -6.8      1.524      1.743
REMARK  Name = 
REMARK  0 active torsions:
REMARK  status: ('A' for Active; 'I' for Inactive)
REMARK                            x       y       z     vdW  Elec       q    Type
REMARK                         _______ _______ _______ _____ _____    ______ ____
ROOT
ATOM      1  O   UNL     1       2.008  14.749  20.003  0.00  0.00    +0.000 OA
ATOM      2  C   UNL     1       1.076  14.376  20.667  0.00  0.00    +0.000 C 
ATOM      3  N   UNL     1       0.871  14.703  21.968  0.00  0.00    +0.000 N 
ATOM      4  C   UNL     1      -0.276  14.180  22.451  0.00  0.00    +0.000 C 
ATOM      5  O   UNL     1      -0.520  14.017  23.636  0.00  0.00    +0.000 OA
ATOM      6  C   UNL     1      -1.168  13.854  21.286  0.00  0.00    +0.000 C 
ATOM      7  C   UNL     1      -0.143  13.647  20.139  0.00  0.00    +0.000 C 
ATOM      8  C   UNL     1      -0.057  12.149  19.738  0.00  0.00    +0.000 C 
ATOM      9 CL   UNL     1       1.258  11.880  18.584  0.00  0.00    +0.000 Cl
ATOM     10  C   UNL     1      -1.466  11.918  19.132  0.00  0.00    +0.000 A 
ATOM     11  C   UNL     1      -1.758  11.416  17.865  0.00  0.00    +0.000 A 
ATOM     12  C   UNL     1      -3.092  11.316  17.467  0.00  0.00    +0.000 A 
ATOM     13  C   UNL     1      -4.124  11.742  18.310  0.00  0.00    +0.000 A 
ATOM     14  C   UNL     1      -3.850  12.211  19.594  0.00  0.00    +0.000 A 
ATOM     15  C   UNL     1      -2.529  12.254  20.037  0.00  0.00    +0.000 A 
ATOM     16  C   UNL     1      -2.039  12.604  21.467  0.00  0.00    +0.000 C 
ATOM     17 CL   UNL     1      -3.372  12.925  22.595  0.00  0.00    +0.000 Cl
ATOM     18  C   UNL     1      -1.087  11.471  21.898  0.00  0.00    +0.000 A 
ATOM     19  C   UNL     1      -1.199  10.702  23.055  0.00  0.00    +0.000 A 
ATOM     20  C   UNL     1      -0.284   9.677  23.285  0.00  0.00    +0.000 A 
ATOM     21  C   UNL     1       0.724   9.404  22.357  0.00  0.00    +0.000 A 
ATOM     22  C   UNL     1       0.862  10.178  21.203  0.00  0.00    +0.000 A 
ATOM     23  C   UNL     1      -0.015  11.239  20.977  0.00  0.00    +0.000 A 
ATOM     24  H   UNL     1       1.119  15.648  22.232  0.00  0.00    +0.000 HD
ENDROOT
TORSDOF 0
ENDMDL
MODEL 7
REMARK VINA RESULT:      -6.7      1.766      4.288
REMARK  Name = 
REMARK  0 active torsions:
REMARK  status: ('A' for Active; 'I' for Inactive)
REMARK                            x       y       z     vdW  Elec       q    Type
REMARK                         _______ _______ _______ _____ _____    ______ ____
ROOT
ATOM      1  O   UNL     1      -2.493  11.937  23.139  0.00  0.00    +0.000 OA
ATOM      2  C   UNL     1      -1.666  11.613  22.326  0.00  0.00    +0.000 C 
ATOM      3  N   UNL     1      -0.381  11.287  22.616  0.00  0.00    +0.000 N 
ATOM      4  C   UNL     1       0.313  10.922  21.516  0.00  0.00    +0.000 C 
ATOM      5  O   UNL     1       1.530  10.927  21.431  0.00  0.00    +0.000 OA
ATOM      6  C   UNL     1      -0.672  10.515  20.457  0.00  0.00    +0.000 C 
ATOM      7  C   UNL     1      -1.940  11.310  20.867  0.00  0.00    +0.000 C 
ATOM      8  C   UNL     1      -2.223  12.459  19.860  0.00  0.00    +0.000 C 
ATOM      9 CL   UNL     1      -3.536  13.494  20.439  0.00  0.00    +0.000 Cl
ATOM     10  C   UNL     1      -2.586  11.656  18.583  0.00  0.00    +0.000 A 
ATOM     11  C   UNL     1      -3.747  11.778  17.822  0.00  0.00    +0.000 A 
ATOM     12  C   UNL     1      -3.928  10.939  16.723  0.00  0.00    +0.000 A 
ATOM     13  C   UNL     1      -2.977   9.965  16.402  0.00  0.00    +0.000 A 
ATOM     14  C   UNL     1      -1.792   9.855  17.130  0.00  0.00    +0.000 A 
ATOM     15  C   UNL     1      -1.561  10.730  18.190  0.00  0.00    +0.000 A 
ATOM     16  C   UNL     1      -0.256  10.860  19.020  0.00  0.00    +0.000 C 
ATOM     17 CL   UNL     1       1.030   9.773  18.460  0.00  0.00    +0.000 Cl
ATOM     18  C   UNL     1       0.118  12.355  19.025  0.00  0.00    +0.000 A 
ATOM     19  C   UNL     1       1.338  12.896  18.625  0.00  0.00    +0.000 A 
ATOM     20  C   UNL     1       1.512  14.278  18.640  0.00  0.00    +0.000 A 
ATOM     21  C   UNL     1       0.467  15.120  19.031  0.00  0.00    +0.000 A 
ATOM     22  C   UNL     1      -0.755  14.593  19.455  0.00  0.00    +0.000 A 
ATOM     23  C   UNL     1      -0.933  13.210  19.490  0.00  0.00    +0.000 A 
ATOM     24  H   UNL     1      -0.237  10.766  23.472  0.00  0.00    +0.000 HD
ENDROOT
TORSDOF 0
ENDMDL
MODEL 8
REMARK VINA RESULT:      -6.4      2.152      2.778
REMARK  Name = 
REMARK  0 active torsions:
REMARK  status: ('A' for Active; 'I' for Inactive)
REMARK                            x       y       z     vdW  Elec       q    Type
REMARK                         _______ _______ _______ _____ _____    ______ ____
ROOT
ATOM      1  O   UNL     1       0.329  14.950  18.910  0.00  0.00    +0.000 OA
ATOM      2  C   UNL     1      -0.161  14.605  19.954  0.00  0.00    +0.000 C 
ATOM      3  N   UNL     1       0.356  14.873  21.179  0.00  0.00    +0.000 N 
ATOM      4  C   UNL     1      -0.423  14.402  22.176  0.00  0.00    +0.000 C 
ATOM      5  O   UNL     1      -0.041  14.192  23.316  0.00  0.00    +0.000 OA
ATOM      6  C   UNL     1      -1.809  14.201  21.630  0.00  0.00    +0.000 C 
ATOM      7  C   UNL     1      -1.536  13.989  20.117  0.00  0.00    +0.000 C 
ATOM      8  C   UNL     1      -1.795  12.512  19.710  0.00  0.00    +0.000 C 
ATOM      9 CL   UNL     1      -1.282  12.220  18.042  0.00  0.00    +0.000 Cl
ATOM     10  C   UNL     1      -3.330  12.410  19.911  0.00  0.00    +0.000 A 
ATOM     11  C   UNL     1      -4.270  11.999  18.969  0.00  0.00    +0.000 A 
ATOM     12  C   UNL     1      -5.623  12.010  19.310  0.00  0.00    +0.000 A 
ATOM     13  C   UNL     1      -6.039  12.457  20.569  0.00  0.00    +0.000 A 
ATOM     14  C   UNL     1      -5.108  12.836  21.536  0.00  0.00    +0.000 A 
ATOM     15  C   UNL     1      -3.748  12.766  21.238  0.00  0.00    +0.000 A 
ATOM     16  C   UNL     1      -2.569  13.004  22.218  0.00  0.00    +0.000 C 
ATOM     17 CL   UNL     1      -3.105  13.351  23.874  0.00  0.00    +0.000 Cl
ATOM     18  C   UNL     1      -1.631  11.788  22.084  0.00  0.00    +0.000 A 
ATOM     19  C   UNL     1      -1.201  10.966  23.124  0.00  0.00    +0.000 A 
ATOM     20  C   UNL     1      -0.389   9.871  22.839  0.00  0.00    +0.000 A 
ATOM     21  C   UNL     1      -0.024   9.582  21.522  0.00  0.00    +0.000 A 
ATOM     22  C   UNL     1      -0.429  10.407  20.471  0.00  0.00    +0.000 A 
ATOM     23  C   UNL     1      -1.205  11.535  20.740  0.00  0.00    +0.000 A 
ATOM     24  H   UNL     1       0.784  15.784  21.290  0.00  0.00    +0.000 HD
ENDROOT
TORSDOF 0
ENDMDL
MODEL 9
REMARK VINA RESULT:      -6.4      2.201      4.896
REMARK  Name = 
REMARK  0 active torsions:
REMARK  status: ('A' for Active; 'I' for Inactive)
REMARK                            x       y       z     vdW  Elec       q    Type
REMARK                         _______ _______ _______ _____ _____    ______ ____
ROOT
ATOM      1  O   UNL     1      -3.984  12.747  19.780  0.00  0.00    +0.000 OA
ATOM      2  C   UNL     1      -2.901  12.300  19.504  0.00  0.00    +0.000 C 
ATOM      3  N   UNL     1      -2.680  11.285  18.632  0.00  0.00    +0.000 N 
ATOM      4  C   UNL     1      -1.365  11.017  18.483  0.00  0.00    +0.000 C 
ATOM      5  O   UNL     1      -0.915   9.965  18.058  0.00  0.00    +0.000 OA
ATOM      6  C   UNL     1      -0.590  12.228  18.920  0.00  0.00    +0.000 C 
ATOM      7  C   UNL     1      -1.573  12.904  19.913  0.00  0.00    +0.000 C 
ATOM      8  C   UNL     1      -1.060  12.774  21.373  0.00  0.00    +0.000 C 
ATOM      9 CL   UNL     1      -2.276  13.352  22.521  0.00  0.00    +0.000 Cl
ATOM     10  C   UNL     1       0.214  13.659  21.325  0.00  0.00    +0.000 A 
ATOM     11  C   UNL     1       0.516  14.733  22.159  0.00  0.00    +0.000 A 
ATOM     12  C   UNL     1       1.694  15.449  21.942  0.00  0.00    +0.000 A 
ATOM     13  C   UNL     1       2.547  15.119  20.884  0.00  0.00    +0.000 A 
ATOM     14  C   UNL     1       2.278  14.023  20.064  0.00  0.00    +0.000 A 
ATOM     15  C   UNL     1       1.142  13.253  20.307  0.00  0.00    +0.000 A 
ATOM     16  C   UNL     1       0.751  11.927  19.603  0.00  0.00    +0.000 C 
ATOM     17 CL   UNL     1       1.957  11.393  18.415  0.00  0.00    +0.000 Cl
ATOM     18  C   UNL     1       0.448  10.907  20.719  0.00  0.00    +0.000 A 
ATOM     19  C   UNL     1       1.038   9.653  20.865  0.00  0.00    +0.000 A 
ATOM     20  C   UNL     1       0.695   8.859  21.957  0.00  0.00    +0.000 A 
ATOM     21  C   UNL     1      -0.214   9.322  22.912  0.00  0.00    +0.000 A 
ATOM     22  C   UNL     1      -0.830  10.566  22.770  0.00  0.00    +0.000 A 
ATOM     23  C   UNL     1      -0.535  11.357  21.659  0.00  0.00    +0.000 A 
ATOM     24  H   UNL     1      -3.272  11.269  17.810  0.00  0.00    +0.000 HD
ENDROOT
TORSDOF 0
ENDMDL
