MODEL 1
REMARK VINA RESULT:      -8.1      0.000      0.000
REMARK  Name = 
REMARK  4 active torsions:
REMARK  status: ('A' for Active; 'I' for Inactive)
REMARK    1  A    between atoms: C_1  and  N_2
REMARK    2  A    between atoms: C_5  and  N_6
REMARK    3  A    between atoms: C_9  and  C_10
REMARK    4  A    between atoms: N_14  and  C_15
REMARK                            x       y       z     vdW  Elec       q    Type
REMARK                         _______ _______ _______ _____ _____    ______ ____
ROOT
ATOM      1  N   UNL     1       2.296   6.453  19.371  0.00  0.00    +0.000 NA
ATOM      2  C   UNL     1       3.022   6.628  18.106  0.00  0.00    +0.000 C 
ATOM      3  C   UNL     1       3.349   5.312  17.430  0.00  0.00    +0.000 C 
ATOM      4  C   UNL     1       4.177   4.389  18.315  0.00  0.00    +0.000 C 
ATOM      5  C   UNL     1       3.437   4.224  19.650  0.00  0.00    +0.000 C 
ATOM      6  C   UNL     1       3.039   5.563  20.286  0.00  0.00    +0.000 C 
ENDROOT
BRANCH   1  11
ATOM      7  C   UNL     1      -0.080  11.339  21.205  0.00  0.00    +0.000 C 
ATOM      8  N   UNL     1       0.244  10.020  20.667  0.00  0.00    +0.000 NA
ATOM      9  C   UNL     1       1.184  10.143  19.553  0.00  0.00    +0.000 C 
ATOM     10  C   UNL     1       1.483   8.781  18.937  0.00  0.00    +0.000 C 
ATOM     11  C   UNL     1       2.042   7.792  19.982  0.00  0.00    +0.000 C 
ATOM     12  C   UNL     1       1.073   7.749  21.178  0.00  0.00    +0.000 C 
ATOM     13  C   UNL     1       0.788   9.152  21.714  0.00  0.00    +0.000 C 
ENDBRANCH   1  11
BRANCH   4  14
ATOM     14  C   UNL     1       5.602   4.850  18.515  0.00  0.00    +0.000 A 
ATOM     15  N   UNL     1       6.128   5.264  19.655  0.00  0.00    +0.000 NA
ATOM     16  C   UNL     1       7.468   5.216  19.429  0.00  0.00    +0.000 A 
ATOM     17  N   UNL     1       7.823   4.804  18.214  0.00  0.00    +0.000 NA
ATOM     18  N   UNL     1       6.626   4.705  17.585  0.00  0.00    +0.000 N 
BRANCH  18  19
ATOM     19  C   UNL     1       6.571   4.510  16.183  0.00  0.00    +0.000 A 
ATOM     20  C   UNL     1       5.672   3.577  15.646  0.00  0.00    +0.000 A 
ATOM     21  C   UNL     1       5.617   3.385  14.259  0.00  0.00    +0.000 A 
ATOM     22  C   UNL     1       6.475   4.092  13.424  0.00  0.00    +0.000 A 
ATOM     23  F   UNL     1       6.429   3.897  12.102  0.00  0.00    +0.000 F 
ATOM     24  C   UNL     1       7.393   4.984  13.961  0.00  0.00    +0.000 A 
ATOM     25  F   UNL     1       8.252   5.642  13.170  0.00  0.00    +0.000 F 
ATOM     26  C   UNL     1       7.446   5.191  15.331  0.00  0.00    +0.000 A 
ENDBRANCH  18  19
ENDBRANCH   4  14
TORSDOF 3
ENDMDL
MODEL 2
REMARK VINA RESULT:      -7.1      3.322      5.862
REMARK  Name = 
REMARK  4 active torsions:
REMARK  status: ('A' for Active; 'I' for Inactive)
REMARK    1  A    between atoms: C_1  and  N_2
REMARK    2  A    between atoms: C_5  and  N_6
REMARK    3  A    between atoms: C_9  and  C_10
REMARK    4  A    between atoms: N_14  and  C_15
REMARK                            x       y       z     vdW  Elec       q    Type
REMARK                         _______ _______ _______ _____ _____    ______ ____
ROOT
ATOM      1  N   UNL     1      -0.866  11.808  18.514  0.00  0.00    +0.000 NA
ATOM      2  C   UNL     1       0.436  12.019  19.160  0.00  0.00    +0.000 C 
ATOM      3  C   UNL     1       1.567  11.304  18.449  0.00  0.00    +0.000 C 
ATOM      4  C   UNL     1       1.338   9.800  18.349  0.00  0.00    +0.000 C 
ATOM      5  C   UNL     1      -0.034   9.573  17.701  0.00  0.00    +0.000 C 
ATOM      6  C   UNL     1      -1.159  10.367  18.379  0.00  0.00    +0.000 C 
ENDROOT
BRANCH   1  11
ATOM      7  C   UNL     1      -5.181  13.155  22.043  0.00  0.00    +0.000 C 
ATOM      8  N   UNL     1      -4.101  12.542  21.272  0.00  0.00    +0.000 NA
ATOM      9  C   UNL     1      -4.400  12.603  19.842  0.00  0.00    +0.000 C 
ATOM     10  C   UNL     1      -3.315  11.910  19.026  0.00  0.00    +0.000 C 
ATOM     11  C   UNL     1      -1.923  12.520  19.293  0.00  0.00    +0.000 C 
ATOM     12  C   UNL     1      -1.674  12.518  20.812  0.00  0.00    +0.000 C 
ATOM     13  C   UNL     1      -2.821  13.191  21.565  0.00  0.00    +0.000 C 
ENDBRANCH   1  11
BRANCH   4  14
ATOM     14  C   UNL     1       1.464   9.074  19.668  0.00  0.00    +0.000 A 
ATOM     15  N   UNL     1       1.055   9.526  20.842  0.00  0.00    +0.000 NA
ATOM     16  C   UNL     1       1.045   8.418  21.629  0.00  0.00    +0.000 A 
ATOM     17  N   UNL     1       1.427   7.293  21.028  0.00  0.00    +0.000 NA
ATOM     18  N   UNL     1       1.830   7.740  19.813  0.00  0.00    +0.000 N 
BRANCH  18  19
ATOM     19  C   UNL     1       2.531   6.880  18.933  0.00  0.00    +0.000 A 
ATOM     20  C   UNL     1       2.338   5.493  19.016  0.00  0.00    +0.000 A 
ATOM     21  C   UNL     1       3.029   4.642  18.144  0.00  0.00    +0.000 A 
ATOM     22  C   UNL     1       3.928   5.170  17.225  0.00  0.00    +0.000 A 
ATOM     23  F   UNL     1       4.597   4.354  16.402  0.00  0.00    +0.000 F 
ATOM     24  C   UNL     1       4.149   6.539  17.172  0.00  0.00    +0.000 A 
ATOM     25  F   UNL     1       5.042   7.056  16.318  0.00  0.00    +0.000 F 
ATOM     26  C   UNL     1       3.460   7.391  18.022  0.00  0.00    +0.000 A 
ENDBRANCH  18  19
ENDBRANCH   4  14
TORSDOF 3
ENDMDL
MODEL 3
REMARK VINA RESULT:      -7.1      3.328      7.899
REMARK  Name = 
REMARK  4 active torsions:
REMARK  status: ('A' for Active; 'I' for Inactive)
REMARK    1  A    between atoms: C_1  and  N_2
REMARK    2  A    between atoms: C_5  and  N_6
REMARK    3  A    between atoms: C_9  and  C_10
REMARK    4  A    between atoms: N_14  and  C_15
REMARK                            x       y       z     vdW  Elec       q    Type
REMARK                         _______ _______ _______ _____ _____    ______ ____
ROOT
ATOM      1  N   UNL     1       6.397   5.716  15.577  0.00  0.00    +0.000 NA
ATOM      2  C   UNL     1       5.158   6.406  15.960  0.00  0.00    +0.000 C 
ATOM      3  C   UNL     1       5.218   6.989  17.357  0.00  0.00    +0.000 C 
ATOM      4  C   UNL     1       5.508   5.935  18.419  0.00  0.00    +0.000 C 
ATOM      5  C   UNL     1       6.787   5.191  18.010  0.00  0.00    +0.000 C 
ATOM      6  C   UNL     1       6.747   4.676  16.565  0.00  0.00    +0.000 C 
ENDROOT
BRANCH   1  11
ATOM      7  C   UNL     1       6.637   2.429  10.884  0.00  0.00    +0.000 C 
ATOM      8  N   UNL     1       6.711   3.034  12.212  0.00  0.00    +0.000 NA
ATOM      9  C   UNL     1       7.473   4.282  12.161  0.00  0.00    +0.000 C 
ATOM     10  C   UNL     1       7.615   4.893  13.549  0.00  0.00    +0.000 C 
ATOM     11  C   UNL     1       6.240   5.150  14.204  0.00  0.00    +0.000 C 
ATOM     12  C   UNL     1       5.432   3.840  14.167  0.00  0.00    +0.000 C 
ATOM     13  C   UNL     1       5.368   3.265  12.752  0.00  0.00    +0.000 C 
ENDBRANCH   1  11
BRANCH   4  14
ATOM     14  C   UNL     1       4.360   4.985  18.667  0.00  0.00    +0.000 A 
ATOM     15  N   UNL     1       4.404   3.669  18.545  0.00  0.00    +0.000 NA
ATOM     16  C   UNL     1       3.293   3.246  19.204  0.00  0.00    +0.000 A 
ATOM     17  N   UNL     1       2.544   4.213  19.729  0.00  0.00    +0.000 NA
ATOM     18  N   UNL     1       3.152   5.331  19.264  0.00  0.00    +0.000 N 
BRANCH  18  19
ATOM     19  C   UNL     1       2.528   6.595  19.409  0.00  0.00    +0.000 A 
ATOM     20  C   UNL     1       1.980   6.962  20.646  0.00  0.00    +0.000 A 
ATOM     21  C   UNL     1       1.364   8.213  20.790  0.00  0.00    +0.000 A 
ATOM     22  C   UNL     1       1.270   9.070  19.700  0.00  0.00    +0.000 A 
ATOM     23  F   UNL     1       0.671  10.258  19.837  0.00  0.00    +0.000 F 
ATOM     24  C   UNL     1       1.776   8.688  18.465  0.00  0.00    +0.000 A 
ATOM     25  F   UNL     1       1.656   9.489  17.398  0.00  0.00    +0.000 F 
ATOM     26  C   UNL     1       2.399   7.458  18.316  0.00  0.00    +0.000 A 
ENDBRANCH  18  19
ENDBRANCH   4  14
TORSDOF 3
ENDMDL
MODEL 4
REMARK VINA RESULT:      -7.1      0.809      1.327
REMARK  Name = 
REMARK  4 active torsions:
REMARK  status: ('A' for Active; 'I' for Inactive)
REMARK    1  A    between atoms: C_1  and  N_2
REMARK    2  A    between atoms: C_5  and  N_6
REMARK    3  A    between atoms: C_9  and  C_10
REMARK    4  A    between atoms: N_14  and  C_15
REMARK                            x       y       z     vdW  Elec       q    Type
REMARK                         _______ _______ _______ _____ _____    ______ ____
ROOT
ATOM      1  N   UNL     1       2.259   5.208  19.010  0.00  0.00    +0.000 NA
ATOM      2  C   UNL     1       2.944   5.384  17.723  0.00  0.00    +0.000 C 
ATOM      3  C   UNL     1       3.688   4.141  17.279  0.00  0.00    +0.000 C 
ATOM      4  C   UNL     1       4.726   3.685  18.298  0.00  0.00    +0.000 C 
ATOM      5  C   UNL     1       4.021   3.526  19.652  0.00  0.00    +0.000 C 
ATOM      6  C   UNL     1       3.204   4.762  20.053  0.00  0.00    +0.000 C 
ENDROOT
BRANCH   1  11
ATOM      7  C   UNL     1       0.981  10.392  21.102  0.00  0.00    +0.000 C 
ATOM      8  N   UNL     1       1.583   9.135  20.664  0.00  0.00    +0.000 NA
ATOM      9  C   UNL     1       0.921   8.002  21.310  0.00  0.00    +0.000 C 
ATOM     10  C   UNL     1       1.579   6.686  20.915  0.00  0.00    +0.000 C 
ATOM     11  C   UNL     1       1.579   6.484  19.384  0.00  0.00    +0.000 C 
ATOM     12  C   UNL     1       2.205   7.729  18.730  0.00  0.00    +0.000 C 
ATOM     13  C   UNL     1       1.522   9.011  19.205  0.00  0.00    +0.000 C 
ENDBRANCH   1  11
BRANCH   4  14
ATOM     14  C   UNL     1       5.929   4.593  18.393  0.00  0.00    +0.000 A 
ATOM     15  N   UNL     1       6.378   5.170  19.495  0.00  0.00    +0.000 NA
ATOM     16  C   UNL     1       7.635   5.566  19.163  0.00  0.00    +0.000 A 
ATOM     17  N   UNL     1       8.009   5.281  17.917  0.00  0.00    +0.000 NA
ATOM     18  N   UNL     1       6.866   4.785  17.382  0.00  0.00    +0.000 N 
BRANCH  18  19
ATOM     19  C   UNL     1       6.768   4.568  15.986  0.00  0.00    +0.000 A 
ATOM     20  C   UNL     1       5.882   3.599  15.494  0.00  0.00    +0.000 A 
ATOM     21  C   UNL     1       5.783   3.385  14.113  0.00  0.00    +0.000 A 
ATOM     22  C   UNL     1       6.586   4.108  13.239  0.00  0.00    +0.000 A 
ATOM     23  F   UNL     1       6.499   3.892  11.921  0.00  0.00    +0.000 F 
ATOM     24  C   UNL     1       7.493   5.037  13.729  0.00  0.00    +0.000 A 
ATOM     25  F   UNL     1       8.300   5.711  12.900  0.00  0.00    +0.000 F 
ATOM     26  C   UNL     1       7.588   5.265  15.094  0.00  0.00    +0.000 A 
ENDBRANCH  18  19
ENDBRANCH   4  14
TORSDOF 3
ENDMDL
MODEL 5
REMARK VINA RESULT:      -7.1      0.879      1.450
REMARK  Name = 
REMARK  4 active torsions:
REMARK  status: ('A' for Active; 'I' for Inactive)
REMARK    1  A    between atoms: C_1  and  N_2
REMARK    2  A    between atoms: C_5  and  N_6
REMARK    3  A    between atoms: C_9  and  C_10
REMARK    4  A    between atoms: N_14  and  C_15
REMARK                            x       y       z     vdW  Elec       q    Type
REMARK                         _______ _______ _______ _____ _____    ______ ____
ROOT
ATOM      1  N   UNL     1       2.626   6.135  18.809  0.00  0.00    +0.000 NA
ATOM      2  C   UNL     1       3.395   6.451  17.598  0.00  0.00    +0.000 C 
ATOM      3  C   UNL     1       3.736   5.221  16.781  0.00  0.00    +0.000 C 
ATOM      4  C   UNL     1       4.529   4.192  17.577  0.00  0.00    +0.000 C 
ATOM      5  C   UNL     1       3.744   3.878  18.858  0.00  0.00    +0.000 C 
ATOM      6  C   UNL     1       3.333   5.135  19.636  0.00  0.00    +0.000 C 
ENDROOT
BRANCH   1  11
ATOM      7  C   UNL     1       0.192  10.725  21.235  0.00  0.00    +0.000 C 
ATOM      8  N   UNL     1       0.530   9.480  20.550  0.00  0.00    +0.000 NA
ATOM      9  C   UNL     1       1.418   9.748  19.419  0.00  0.00    +0.000 C 
ATOM     10  C   UNL     1       1.729   8.468  18.653  0.00  0.00    +0.000 C 
ATOM     11  C   UNL     1       2.360   7.394  19.566  0.00  0.00    +0.000 C 
ATOM     12  C   UNL     1       1.444   7.197  20.788  0.00  0.00    +0.000 C 
ATOM     13  C   UNL     1       1.142   8.526  21.479  0.00  0.00    +0.000 C 
ENDBRANCH   1  11
BRANCH   4  14
ATOM     14  C   UNL     1       5.949   4.612  17.876  0.00  0.00    +0.000 A 
ATOM     15  N   UNL     1       6.438   4.889  19.072  0.00  0.00    +0.000 NA
ATOM     16  C   UNL     1       7.784   4.853  18.888  0.00  0.00    +0.000 A 
ATOM     17  N   UNL     1       8.178   4.576  17.647  0.00  0.00    +0.000 NA
ATOM     18  N   UNL     1       7.003   4.562  16.970  0.00  0.00    +0.000 N 
BRANCH  18  19
ATOM     19  C   UNL     1       6.996   4.525  15.554  0.00  0.00    +0.000 A 
ATOM     20  C   UNL     1       7.797   5.421  14.832  0.00  0.00    +0.000 A 
ATOM     21  C   UNL     1       7.792   5.384  13.431  0.00  0.00    +0.000 A 
ATOM     22  C   UNL     1       6.970   4.484  12.763  0.00  0.00    +0.000 A 
ATOM     23  F   UNL     1       6.958   4.459  11.425  0.00  0.00    +0.000 F 
ATOM     24  C   UNL     1       6.147   3.626  13.478  0.00  0.00    +0.000 A 
ATOM     25  F   UNL     1       5.320   2.782  12.846  0.00  0.00    +0.000 F 
ATOM     26  C   UNL     1       6.154   3.647  14.865  0.00  0.00    +0.000 A 
ENDBRANCH  18  19
ENDBRANCH   4  14
TORSDOF 3
ENDMDL
MODEL 6
REMARK VINA RESULT:      -7.0      3.661      6.500
REMARK  Name = 
REMARK  4 active torsions:
REMARK  status: ('A' for Active; 'I' for Inactive)
REMARK    1  A    between atoms: C_1  and  N_2
REMARK    2  A    between atoms: C_5  and  N_6
REMARK    3  A    between atoms: C_9  and  C_10
REMARK    4  A    between atoms: N_14  and  C_15
REMARK                            x       y       z     vdW  Elec       q    Type
REMARK                         _______ _______ _______ _____ _____    ______ ____
ROOT
ATOM      1  N   UNL     1      -1.210  11.849  18.358  0.00  0.00    +0.000 NA
ATOM      2  C   UNL     1      -0.026  12.257  19.125  0.00  0.00    +0.000 C 
ATOM      3  C   UNL     1       1.257  11.657  18.587  0.00  0.00    +0.000 C 
ATOM      4  C   UNL     1       1.225  10.133  18.561  0.00  0.00    +0.000 C 
ATOM      5  C   UNL     1      -0.026   9.700  17.785  0.00  0.00    +0.000 C 
ATOM      6  C   UNL     1      -1.309  10.377  18.285  0.00  0.00    +0.000 C 
ENDROOT
BRANCH   1  11
ATOM      7  C   UNL     1      -6.057  12.799  21.272  0.00  0.00    +0.000 C 
ATOM      8  N   UNL     1      -4.829  12.290  20.665  0.00  0.00    +0.000 NA
ATOM      9  C   UNL     1      -4.949  12.278  19.208  0.00  0.00    +0.000 C 
ATOM     10  C   UNL     1      -3.701  11.689  18.561  0.00  0.00    +0.000 C 
ATOM     11  C   UNL     1      -2.428  12.459  18.971  0.00  0.00    +0.000 C 
ATOM     12  C   UNL     1      -2.374  12.527  20.508  0.00  0.00    +0.000 C 
ATOM     13  C   UNL     1      -3.673  13.088  21.086  0.00  0.00    +0.000 C 
ENDBRANCH   1  11
BRANCH   4  14
ATOM     14  C   UNL     1       1.286   9.497  19.930  0.00  0.00    +0.000 A 
ATOM     15  N   UNL     1       0.845  10.037  21.054  0.00  0.00    +0.000 NA
ATOM     16  C   UNL     1       0.781   8.986  21.913  0.00  0.00    +0.000 A 
ATOM     17  N   UNL     1       1.159   7.815  21.406  0.00  0.00    +0.000 NA
ATOM     18  N   UNL     1       1.616   8.169  20.179  0.00  0.00    +0.000 N 
BRANCH  18  19
ATOM     19  C   UNL     1       2.328   7.236  19.387  0.00  0.00    +0.000 A 
ATOM     20  C   UNL     1       2.990   7.669  18.229  0.00  0.00    +0.000 A 
ATOM     21  C   UNL     1       3.697   6.747  17.446  0.00  0.00    +0.000 A 
ATOM     22  C   UNL     1       3.711   5.403  17.800  0.00  0.00    +0.000 A 
ATOM     23  F   UNL     1       4.376   4.522  17.043  0.00  0.00    +0.000 F 
ATOM     24  C   UNL     1       3.020   4.968  18.922  0.00  0.00    +0.000 A 
ATOM     25  F   UNL     1       2.993   3.670  19.250  0.00  0.00    +0.000 F 
ATOM     26  C   UNL     1       2.329   5.876  19.711  0.00  0.00    +0.000 A 
ENDBRANCH  18  19
ENDBRANCH   4  14
TORSDOF 3
ENDMDL
MODEL 7
REMARK VINA RESULT:      -7.0      3.622      8.029
REMARK  Name = 
REMARK  4 active torsions:
REMARK  status: ('A' for Active; 'I' for Inactive)
REMARK    1  A    between atoms: C_1  and  N_2
REMARK    2  A    between atoms: C_5  and  N_6
REMARK    3  A    between atoms: C_9  and  C_10
REMARK    4  A    between atoms: N_14  and  C_15
REMARK                            x       y       z     vdW  Elec       q    Type
REMARK                         _______ _______ _______ _____ _____    ______ ____
ROOT
ATOM      1  N   UNL     1       6.428   5.714  15.590  0.00  0.00    +0.000 NA
ATOM      2  C   UNL     1       5.197   6.423  15.964  0.00  0.00    +0.000 C 
ATOM      3  C   UNL     1       5.252   6.998  17.365  0.00  0.00    +0.000 C 
ATOM      4  C   UNL     1       5.513   5.934  18.424  0.00  0.00    +0.000 C 
ATOM      5  C   UNL     1       6.783   5.171  18.024  0.00  0.00    +0.000 C 
ATOM      6  C   UNL     1       6.750   4.663  16.576  0.00  0.00    +0.000 C 
ENDROOT
BRANCH   1  11
ATOM      7  C   UNL     1       6.696   2.465  10.872  0.00  0.00    +0.000 C 
ATOM      8  N   UNL     1       6.765   3.061  12.205  0.00  0.00    +0.000 NA
ATOM      9  C   UNL     1       7.515   4.316  12.162  0.00  0.00    +0.000 C 
ATOM     10  C   UNL     1       7.652   4.918  13.555  0.00  0.00    +0.000 C 
ATOM     11  C   UNL     1       6.276   5.157  14.213  0.00  0.00    +0.000 C 
ATOM     12  C   UNL     1       5.479   3.840  14.166  0.00  0.00    +0.000 C 
ATOM     13  C   UNL     1       5.420   3.276  12.747  0.00  0.00    +0.000 C 
ENDBRANCH   1  11
BRANCH   4  14
ATOM     14  C   UNL     1       4.347   5.003  18.655  0.00  0.00    +0.000 A 
ATOM     15  N   UNL     1       4.384   3.683  18.585  0.00  0.00    +0.000 NA
ATOM     16  C   UNL     1       3.242   3.293  19.208  0.00  0.00    +0.000 A 
ATOM     17  N   UNL     1       2.479   4.284  19.664  0.00  0.00    +0.000 NA
ATOM     18  N   UNL     1       3.117   5.380  19.185  0.00  0.00    +0.000 N 
BRANCH  18  19
ATOM     19  C   UNL     1       2.499   6.653  19.255  0.00  0.00    +0.000 A 
ATOM     20  C   UNL     1       2.373   7.429  18.095  0.00  0.00    +0.000 A 
ATOM     21  C   UNL     1       1.760   8.688  18.163  0.00  0.00    +0.000 A 
ATOM     22  C   UNL     1       1.311   9.176  19.385  0.00  0.00    +0.000 A 
ATOM     23  F   UNL     1       0.738  10.383  19.450  0.00  0.00    +0.000 F 
ATOM     24  C   UNL     1       1.474   8.424  20.540  0.00  0.00    +0.000 A 
ATOM     25  F   UNL     1       1.081   8.901  21.729  0.00  0.00    +0.000 F 
ATOM     26  C   UNL     1       2.068   7.172  20.480  0.00  0.00    +0.000 A 
ENDBRANCH  18  19
ENDBRANCH   4  14
TORSDOF 3
ENDMDL
MODEL 8
REMARK VINA RESULT:      -6.9      2.957      5.260
REMARK  Name = 
REMARK  4 active torsions:
REMARK  status: ('A' for Active; 'I' for Inactive)
REMARK    1  A    between atoms: C_1  and  N_2
REMARK    2  A    between atoms: C_5  and  N_6
REMARK    3  A    between atoms: C_9  and  C_10
REMARK    4  A    between atoms: N_14  and  C_15
REMARK                            x       y       z     vdW  Elec       q    Type
REMARK                         _______ _______ _______ _____ _____    ______ ____
ROOT
ATOM      1  N   UNL     1       0.019  11.848  18.633  0.00  0.00    +0.000 NA
ATOM      2  C   UNL     1       1.444  11.624  18.913  0.00  0.00    +0.000 C 
ATOM      3  C   UNL     1       2.074  10.612  17.979  0.00  0.00    +0.000 C 
ATOM      4  C   UNL     1       1.376   9.258  18.024  0.00  0.00    +0.000 C 
ATOM      5  C   UNL     1      -0.119   9.488  17.760  0.00  0.00    +0.000 C 
ATOM      6  C   UNL     1      -0.728  10.574  18.657  0.00  0.00    +0.000 C 
ENDROOT
BRANCH   1  11
ATOM      7  C   UNL     1      -1.872  14.480  23.364  0.00  0.00    +0.000 C 
ATOM      8  N   UNL     1      -1.312  13.591  22.348  0.00  0.00    +0.000 NA
ATOM      9  C   UNL     1      -2.329  13.253  21.353  0.00  0.00    +0.000 C 
ATOM     10  C   UNL     1      -1.781  12.275  20.321  0.00  0.00    +0.000 C 
ATOM     11  C   UNL     1      -0.527  12.832  19.615  0.00  0.00    +0.000 C 
ATOM     12  C   UNL     1       0.490  13.256  20.691  0.00  0.00    +0.000 C 
ATOM     13  C   UNL     1      -0.142  14.202  21.712  0.00  0.00    +0.000 C 
ENDBRANCH   1  11
BRANCH   4  14
ATOM     14  C   UNL     1       1.609   8.493  19.306  0.00  0.00    +0.000 A 
ATOM     15  N   UNL     1       1.176   8.843  20.505  0.00  0.00    +0.000 NA
ATOM     16  C   UNL     1       1.307   7.707  21.240  0.00  0.00    +0.000 A 
ATOM     17  N   UNL     1       1.802   6.661  20.582  0.00  0.00    +0.000 NA
ATOM     18  N   UNL     1       2.127   7.204  19.383  0.00  0.00    +0.000 N 
BRANCH  18  19
ATOM     19  C   UNL     1       2.902   6.469  18.453  0.00  0.00    +0.000 A 
ATOM     20  C   UNL     1       2.673   5.095  18.290  0.00  0.00    +0.000 A 
ATOM     21  C   UNL     1       3.439   4.368  17.369  0.00  0.00    +0.000 A 
ATOM     22  C   UNL     1       4.443   5.002  16.647  0.00  0.00    +0.000 A 
ATOM     23  F   UNL     1       5.180   4.302  15.777  0.00  0.00    +0.000 F 
ATOM     24  C   UNL     1       4.696   6.352  16.839  0.00  0.00    +0.000 A 
ATOM     25  F   UNL     1       5.687   6.965  16.178  0.00  0.00    +0.000 F 
ATOM     26  C   UNL     1       3.935   7.084  17.739  0.00  0.00    +0.000 A 
ENDBRANCH  18  19
ENDBRANCH   4  14
TORSDOF 3
ENDMDL
MODEL 9
REMARK VINA RESULT:      -6.9      2.977      5.666
REMARK  Name = 
REMARK  4 active torsions:
REMARK  status: ('A' for Active; 'I' for Inactive)
REMARK    1  A    between atoms: C_1  and  N_2
REMARK    2  A    between atoms: C_5  and  N_6
REMARK    3  A    between atoms: C_9  and  C_10
REMARK    4  A    between atoms: N_14  and  C_15
REMARK                            x       y       z     vdW  Elec       q    Type
REMARK                         _______ _______ _______ _____ _____    ______ ____
ROOT
ATOM      1  N   UNL     1      -0.086  11.907  18.530  0.00  0.00    +0.000 NA
ATOM      2  C   UNL     1       1.343  11.724  18.819  0.00  0.00    +0.000 C 
ATOM      3  C   UNL     1       1.997  10.696  17.919  0.00  0.00    +0.000 C 
ATOM      4  C   UNL     1       1.329   9.329  18.009  0.00  0.00    +0.000 C 
ATOM      5  C   UNL     1      -0.170   9.517  17.736  0.00  0.00    +0.000 C 
ATOM      6  C   UNL     1      -0.805  10.619  18.595  0.00  0.00    +0.000 C 
ENDROOT
BRANCH   1  11
ATOM      7  C   UNL     1      -0.812  15.976  22.505  0.00  0.00    +0.000 C 
ATOM      8  N   UNL     1      -0.336  15.001  21.526  0.00  0.00    +0.000 NA
ATOM      9  C   UNL     1      -0.760  13.653  21.904  0.00  0.00    +0.000 C 
ATOM     10  C   UNL     1      -0.217  12.616  20.928  0.00  0.00    +0.000 C 
ATOM     11  C   UNL     1      -0.655  12.911  19.477  0.00  0.00    +0.000 C 
ATOM     12  C   UNL     1      -0.269  14.363  19.140  0.00  0.00    +0.000 C 
ATOM     13  C   UNL     1      -0.812  15.340  20.182  0.00  0.00    +0.000 C 
ENDBRANCH   1  11
BRANCH   4  14
ATOM     14  C   UNL     1       1.577   8.613  19.315  0.00  0.00    +0.000 A 
ATOM     15  N   UNL     1       1.139   8.996  20.503  0.00  0.00    +0.000 NA
ATOM     16  C   UNL     1       1.290   7.888  21.276  0.00  0.00    +0.000 A 
ATOM     17  N   UNL     1       1.801   6.828  20.653  0.00  0.00    +0.000 NA
ATOM     18  N   UNL     1       2.115   7.336  19.436  0.00  0.00    +0.000 N 
BRANCH  18  19
ATOM     19  C   UNL     1       2.902   6.582  18.530  0.00  0.00    +0.000 A 
ATOM     20  C   UNL     1       3.944   7.205  17.829  0.00  0.00    +0.000 A 
ATOM     21  C   UNL     1       4.724   6.460  16.935  0.00  0.00    +0.000 A 
ATOM     22  C   UNL     1       4.440   5.116  16.720  0.00  0.00    +0.000 A 
ATOM     23  F   UNL     1       5.178   4.409  15.856  0.00  0.00    +0.000 F 
ATOM     24  C   UNL     1       3.382   4.511  17.382  0.00  0.00    +0.000 A 
ATOM     25  F   UNL     1       3.074   3.227  17.153  0.00  0.00    +0.000 F 
ATOM     26  C   UNL     1       2.613   5.237  18.280  0.00  0.00    +0.000 A 
ENDBRANCH  18  19
ENDBRANCH   4  14
TORSDOF 3
ENDMDL
