MODEL 1
REMARK VINA RESULT:      -7.0      0.000      0.000
REMARK  Name = 
REMARK  3 active torsions:
REMARK  status: ('A' for Active; 'I' for Inactive)
REMARK    1  A    between atoms: O_1  and  C_2
REMARK    2  A    between atoms: C_2  and  C_3
REMARK    3  A    between atoms: C_3  and  N_4
REMARK                            x       y       z     vdW  Elec       q    Type
REMARK                         _______ _______ _______ _____ _____    ______ ____
ROOT
ATOM      1  N   UNL     1       7.721   6.990  17.071  0.00  0.00    +0.000 N 
ATOM      2  C   UNL     1       6.849   5.992  16.644  0.00  0.00    +0.000 A 
ATOM      3  N   UNL     1       5.831   5.641  17.413  0.00  0.00    +0.000 NA
ATOM      4  C   UNL     1       5.042   4.689  16.942  0.00  0.00    +0.000 A 
ATOM      5  N   UNL     1       3.991   4.249  17.719  0.00  0.00    +0.000 N 
ATOM      6  C   UNL     1       2.802   3.741  17.051  0.00  0.00    +0.000 C 
ATOM      7  C   UNL     1       1.649   4.403  17.804  0.00  0.00    +0.000 C 
ATOM      8  C   UNL     1       2.206   4.584  19.207  0.00  0.00    +0.000 C 
ATOM      9  C   UNL     1       3.667   4.952  18.953  0.00  0.00    +0.000 C 
ATOM     10  N   UNL     1       5.233   4.115  15.763  0.00  0.00    +0.000 NA
ATOM     11  C   UNL     1       6.285   4.509  15.052  0.00  0.00    +0.000 A 
ATOM     12  N   UNL     1       6.500   3.893  13.840  0.00  0.00    +0.000 N 
ATOM     13  C   UNL     1       7.507   4.367  12.907  0.00  0.00    +0.000 C 
ATOM     14  C   UNL     1       6.806   4.307  11.552  0.00  0.00    +0.000 C 
ATOM     15  C   UNL     1       5.811   3.167  11.712  0.00  0.00    +0.000 C 
ATOM     16  C   UNL     1       5.361   3.287  13.166  0.00  0.00    +0.000 C 
ATOM     17  N   UNL     1       7.129   5.442  15.474  0.00  0.00    +0.000 NA
ATOM     18  H   UNL     1       8.606   6.817  16.602  0.00  0.00    +0.000 HD
ENDROOT
BRANCH   1  19
ATOM     19  C   UNL     1       7.849   7.142  18.517  0.00  0.00    +0.000 C 
BRANCH  19  20
ATOM     20  C   UNL     1       8.207   5.820  19.207  0.00  0.00    +0.000 C 
BRANCH  20  21
ATOM     21  O   UNL     1       7.134   5.406  20.052  0.00  0.00    +0.000 OA
ATOM     22  H   UNL     1       6.754   6.217  20.433  0.00  0.00    +0.000 HD
ENDBRANCH  20  21
ENDBRANCH  19  20
ENDBRANCH   1  19
TORSDOF 3
ENDMDL
MODEL 2
REMARK VINA RESULT:      -6.8      1.418      1.558
REMARK  Name = 
REMARK  3 active torsions:
REMARK  status: ('A' for Active; 'I' for Inactive)
REMARK    1  A    between atoms: O_1  and  C_2
REMARK    2  A    between atoms: C_2  and  C_3
REMARK    3  A    between atoms: C_3  and  N_4
REMARK                            x       y       z     vdW  Elec       q    Type
REMARK                         _______ _______ _______ _____ _____    ______ ____
ROOT
ATOM      1  N   UNL     1       7.854   7.817  16.952  0.00  0.00    +0.000 N 
ATOM      2  C   UNL     1       7.062   6.696  16.713  0.00  0.00    +0.000 A 
ATOM      3  N   UNL     1       6.134   6.354  17.592  0.00  0.00    +0.000 NA
ATOM      4  C   UNL     1       5.417   5.281  17.299  0.00  0.00    +0.000 A 
ATOM      5  N   UNL     1       4.466   4.847  18.198  0.00  0.00    +0.000 N 
ATOM      6  C   UNL     1       3.295   4.152  17.686  0.00  0.00    +0.000 C 
ATOM      7  C   UNL     1       2.131   4.795  18.437  0.00  0.00    +0.000 C 
ATOM      8  C   UNL     1       2.753   5.201  19.763  0.00  0.00    +0.000 C 
ATOM      9  C   UNL     1       4.151   5.668  19.360  0.00  0.00    +0.000 C 
ATOM     10  N   UNL     1       5.591   4.582  16.185  0.00  0.00    +0.000 NA
ATOM     11  C   UNL     1       6.552   4.979  15.357  0.00  0.00    +0.000 A 
ATOM     12  N   UNL     1       6.753   4.237  14.215  0.00  0.00    +0.000 N 
ATOM     13  C   UNL     1       7.647   4.680  13.160  0.00  0.00    +0.000 C 
ATOM     14  C   UNL     1       6.873   4.384  11.877  0.00  0.00    +0.000 C 
ATOM     15  C   UNL     1       6.010   3.188  12.246  0.00  0.00    +0.000 C 
ATOM     16  C   UNL     1       5.641   3.448  13.704  0.00  0.00    +0.000 C 
ATOM     17  N   UNL     1       7.323   6.031  15.600  0.00  0.00    +0.000 NA
ATOM     18  H   UNL     1       8.722   7.668  16.443  0.00  0.00    +0.000 HD
ENDROOT
BRANCH   1  19
ATOM     19  C   UNL     1       8.056   8.161  18.356  0.00  0.00    +0.000 C 
BRANCH  19  20
ATOM     20  C   UNL     1       8.615   9.579  18.528  0.00  0.00    +0.000 C 
BRANCH  20  21
ATOM     21  O   UNL     1       9.387   9.655  19.727  0.00  0.00    +0.000 OA
ATOM     22  H   UNL     1       9.868   8.813  19.800  0.00  0.00    +0.000 HD
ENDBRANCH  20  21
ENDBRANCH  19  20
ENDBRANCH   1  19
TORSDOF 3
ENDMDL
MODEL 3
REMARK VINA RESULT:      -6.8      3.432      5.927
REMARK  Name = 
REMARK  3 active torsions:
REMARK  status: ('A' for Active; 'I' for Inactive)
REMARK    1  A    between atoms: O_1  and  C_2
REMARK    2  A    between atoms: C_2  and  C_3
REMARK    3  A    between atoms: C_3  and  N_4
REMARK                            x       y       z     vdW  Elec       q    Type
REMARK                         _______ _______ _______ _____ _____    ______ ____
ROOT
ATOM      1  N   UNL     1       5.478   6.679  16.808  0.00  0.00    +0.000 N 
ATOM      2  C   UNL     1       4.305   6.659  17.558  0.00  0.00    +0.000 A 
ATOM      3  N   UNL     1       3.956   5.554  18.196  0.00  0.00    +0.000 NA
ATOM      4  C   UNL     1       2.831   5.608  18.891  0.00  0.00    +0.000 A 
ATOM      5  N   UNL     1       2.392   4.473  19.539  0.00  0.00    +0.000 N 
ATOM      6  C   UNL     1       1.607   4.631  20.754  0.00  0.00    +0.000 C 
ATOM      7  C   UNL     1       2.221   3.619  21.720  0.00  0.00    +0.000 C 
ATOM      8  C   UNL     1       2.729   2.521  20.798  0.00  0.00    +0.000 C 
ATOM      9  C   UNL     1       3.252   3.298  19.592  0.00  0.00    +0.000 C 
ATOM     10  N   UNL     1       2.087   6.703  18.970  0.00  0.00    +0.000 NA
ATOM     11  C   UNL     1       2.494   7.771  18.291  0.00  0.00    +0.000 A 
ATOM     12  N   UNL     1       1.707   8.898  18.349  0.00  0.00    +0.000 N 
ATOM     13  C   UNL     1       2.146  10.168  17.797  0.00  0.00    +0.000 C 
ATOM     14  C   UNL     1       1.742  11.188  18.860  0.00  0.00    +0.000 C 
ATOM     15  C   UNL     1       0.519  10.561  19.513  0.00  0.00    +0.000 C 
ATOM     16  C   UNL     1       0.833   9.067  19.501  0.00  0.00    +0.000 C 
ATOM     17  N   UNL     1       3.599   7.778  17.556  0.00  0.00    +0.000 NA
ATOM     18  H   UNL     1       5.353   7.395  16.098  0.00  0.00    +0.000 HD
ENDROOT
BRANCH   1  19
ATOM     19  C   UNL     1       5.905   5.392  16.267  0.00  0.00    +0.000 C 
BRANCH  19  20
ATOM     20  C   UNL     1       7.138   4.841  16.992  0.00  0.00    +0.000 C 
BRANCH  20  21
ATOM     21  O   UNL     1       6.737   4.131  18.164  0.00  0.00    +0.000 OA
ATOM     22  H   UNL     1       5.853   4.463  18.399  0.00  0.00    +0.000 HD
ENDBRANCH  20  21
ENDBRANCH  19  20
ENDBRANCH   1  19
TORSDOF 3
ENDMDL
MODEL 4
REMARK VINA RESULT:      -6.7      3.203      4.452
REMARK  Name = 
REMARK  3 active torsions:
REMARK  status: ('A' for Active; 'I' for Inactive)
REMARK    1  A    between atoms: O_1  and  C_2
REMARK    2  A    between atoms: C_2  and  C_3
REMARK    3  A    between atoms: C_3  and  N_4
REMARK                            x       y       z     vdW  Elec       q    Type
REMARK                         _______ _______ _______ _____ _____    ______ ____
ROOT
ATOM      1  N   UNL     1       2.206   8.262  18.049  0.00  0.00    +0.000 N 
ATOM      2  C   UNL     1       2.853   7.035  18.167  0.00  0.00    +0.000 A 
ATOM      3  N   UNL     1       2.514   6.208  19.142  0.00  0.00    +0.000 NA
ATOM      4  C   UNL     1       3.168   5.059  19.191  0.00  0.00    +0.000 A 
ATOM      5  N   UNL     1       2.890   4.176  20.213  0.00  0.00    +0.000 N 
ATOM      6  C   UNL     1       3.061   2.753  19.964  0.00  0.00    +0.000 C 
ATOM      7  C   UNL     1       1.799   2.124  20.549  0.00  0.00    +0.000 C 
ATOM      8  C   UNL     1       1.431   3.070  21.682  0.00  0.00    +0.000 C 
ATOM      9  C   UNL     1       1.772   4.443  21.109  0.00  0.00    +0.000 C 
ATOM     10  N   UNL     1       4.104   4.727  18.313  0.00  0.00    +0.000 NA
ATOM     11  C   UNL     1       4.402   5.614  17.369  0.00  0.00    +0.000 A 
ATOM     12  N   UNL     1       5.394   5.282  16.475  0.00  0.00    +0.000 N 
ATOM     13  C   UNL     1       5.673   6.094  15.303  0.00  0.00    +0.000 C 
ATOM     14  C   UNL     1       5.865   5.070  14.187  0.00  0.00    +0.000 C 
ATOM     15  C   UNL     1       6.404   3.845  14.911  0.00  0.00    +0.000 C 
ATOM     16  C   UNL     1       5.672   3.871  16.251  0.00  0.00    +0.000 C 
ATOM     17  N   UNL     1       3.802   6.794  17.276  0.00  0.00    +0.000 NA
ATOM     18  H   UNL     1       2.853   8.883  17.569  0.00  0.00    +0.000 HD
ENDROOT
BRANCH   1  19
ATOM     19  C   UNL     1       1.680   8.821  19.291  0.00  0.00    +0.000 C 
BRANCH  19  20
ATOM     20  C   UNL     1       0.821  10.067  19.044  0.00  0.00    +0.000 C 
BRANCH  20  21
ATOM     21  O   UNL     1       0.288  10.037  17.720  0.00  0.00    +0.000 OA
ATOM     22  H   UNL     1      -0.680  10.083  17.811  0.00  0.00    +0.000 HD
ENDBRANCH  20  21
ENDBRANCH  19  20
ENDBRANCH   1  19
TORSDOF 3
ENDMDL
MODEL 5
REMARK VINA RESULT:      -6.6      1.609      5.174
REMARK  Name = 
REMARK  3 active torsions:
REMARK  status: ('A' for Active; 'I' for Inactive)
REMARK    1  A    between atoms: O_1  and  C_2
REMARK    2  A    between atoms: C_2  and  C_3
REMARK    3  A    between atoms: C_3  and  N_4
REMARK                            x       y       z     vdW  Elec       q    Type
REMARK                         _______ _______ _______ _____ _____    ______ ____
ROOT
ATOM      1  N   UNL     1       7.256   5.285  19.335  0.00  0.00    +0.000 N 
ATOM      2  C   UNL     1       6.265   4.965  18.410  0.00  0.00    +0.000 A 
ATOM      3  N   UNL     1       6.533   5.027  17.117  0.00  0.00    +0.000 NA
ATOM      4  C   UNL     1       5.545   4.707  16.297  0.00  0.00    +0.000 A 
ATOM      5  N   UNL     1       5.751   4.798  14.936  0.00  0.00    +0.000 N 
ATOM      6  C   UNL     1       5.010   3.900  14.063  0.00  0.00    +0.000 C 
ATOM      7  C   UNL     1       6.065   3.392  13.082  0.00  0.00    +0.000 C 
ATOM      8  C   UNL     1       7.049   4.548  12.996  0.00  0.00    +0.000 C 
ATOM      9  C   UNL     1       7.089   5.074  14.429  0.00  0.00    +0.000 C 
ATOM     10  N   UNL     1       4.350   4.326  16.726  0.00  0.00    +0.000 NA
ATOM     11  C   UNL     1       4.150   4.301  18.040  0.00  0.00    +0.000 A 
ATOM     12  N   UNL     1       2.901   3.934  18.485  0.00  0.00    +0.000 N 
ATOM     13  C   UNL     1       2.627   3.699  19.892  0.00  0.00    +0.000 C 
ATOM     14  C   UNL     1       1.775   2.431  19.892  0.00  0.00    +0.000 C 
ATOM     15  C   UNL     1       1.048   2.487  18.557  0.00  0.00    +0.000 C 
ATOM     16  C   UNL     1       2.076   3.108  17.614  0.00  0.00    +0.000 C 
ATOM     17  N   UNL     1       5.089   4.632  18.917  0.00  0.00    +0.000 NA
ATOM     18  H   UNL     1       6.776   5.587  20.178  0.00  0.00    +0.000 HD
ENDROOT
BRANCH   1  19
ATOM     19  C   UNL     1       8.270   6.229  18.874  0.00  0.00    +0.000 C 
BRANCH  19  20
ATOM     20  C   UNL     1       7.649   7.473  18.229  0.00  0.00    +0.000 C 
BRANCH  20  21
ATOM     21  O   UNL     1       7.943   7.495  16.832  0.00  0.00    +0.000 OA
ATOM     22  H   UNL     1       7.087   7.467  16.369  0.00  0.00    +0.000 HD
ENDBRANCH  20  21
ENDBRANCH  19  20
ENDBRANCH   1  19
TORSDOF 3
ENDMDL
MODEL 6
REMARK VINA RESULT:      -6.6      9.361     11.766
REMARK  Name = 
REMARK  3 active torsions:
REMARK  status: ('A' for Active; 'I' for Inactive)
REMARK    1  A    between atoms: O_1  and  C_2
REMARK    2  A    between atoms: C_2  and  C_3
REMARK    3  A    between atoms: C_3  and  N_4
REMARK                            x       y       z     vdW  Elec       q    Type
REMARK                         _______ _______ _______ _____ _____    ______ ____
ROOT
ATOM      1  N   UNL     1      -2.912   9.647  14.955  0.00  0.00    +0.000 N 
ATOM      2  C   UNL     1      -2.924  10.281  16.195  0.00  0.00    +0.000 A 
ATOM      3  N   UNL     1      -4.024  10.888  16.607  0.00  0.00    +0.000 NA
ATOM      4  C   UNL     1      -3.964  11.466  17.796  0.00  0.00    +0.000 A 
ATOM      5  N   UNL     1      -5.065  12.154  18.260  0.00  0.00    +0.000 N 
ATOM      6  C   UNL     1      -5.282  12.224  19.697  0.00  0.00    +0.000 C 
ATOM      7  C   UNL     1      -6.770  11.921  19.857  0.00  0.00    +0.000 C 
ATOM      8  C   UNL     1      -7.374  12.445  18.563  0.00  0.00    +0.000 C 
ATOM      9  C   UNL     1      -6.318  12.086  17.520  0.00  0.00    +0.000 C 
ATOM     10  N   UNL     1      -2.877  11.438  18.555  0.00  0.00    +0.000 NA
ATOM     11  C   UNL     1      -1.805  10.821  18.067  0.00  0.00    +0.000 A 
ATOM     12  N   UNL     1      -0.667  10.817  18.842  0.00  0.00    +0.000 N 
ATOM     13  C   UNL     1       0.497  10.023  18.490  0.00  0.00    +0.000 C 
ATOM     14  C   UNL     1       0.935   9.407  19.817  0.00  0.00    +0.000 C 
ATOM     15  C   UNL     1       0.493  10.431  20.851  0.00  0.00    +0.000 C 
ATOM     16  C   UNL     1      -0.816  10.973  20.282  0.00  0.00    +0.000 C 
ATOM     17  N   UNL     1      -1.789  10.241  16.874  0.00  0.00    +0.000 NA
ATOM     18  H   UNL     1      -1.943   9.634  14.648  0.00  0.00    +0.000 HD
ENDROOT
BRANCH   1  19
ATOM     19  C   UNL     1      -3.829  10.191  13.958  0.00  0.00    +0.000 C 
BRANCH  19  20
ATOM     20  C   UNL     1      -3.546   9.643  12.554  0.00  0.00    +0.000 C 
BRANCH  20  21
ATOM     21  O   UNL     1      -2.138   9.532  12.349  0.00  0.00    +0.000 OA
ATOM     22  H   UNL     1      -1.972   8.618  12.062  0.00  0.00    +0.000 HD
ENDBRANCH  20  21
ENDBRANCH  19  20
ENDBRANCH   1  19
TORSDOF 3
ENDMDL
MODEL 7
REMARK VINA RESULT:      -6.5      3.423      6.684
REMARK  Name = 
REMARK  3 active torsions:
REMARK  status: ('A' for Active; 'I' for Inactive)
REMARK    1  A    between atoms: O_1  and  C_2
REMARK    2  A    between atoms: C_2  and  C_3
REMARK    3  A    between atoms: C_3  and  N_4
REMARK                            x       y       z     vdW  Elec       q    Type
REMARK                         _______ _______ _______ _____ _____    ______ ____
ROOT
ATOM      1  N   UNL     1       1.522   3.887  19.779  0.00  0.00    +0.000 N 
ATOM      2  C   UNL     1       2.245   4.881  19.124  0.00  0.00    +0.000 A 
ATOM      3  N   UNL     1       3.245   4.543  18.327  0.00  0.00    +0.000 NA
ATOM      4  C   UNL     1       3.886   5.539  17.736  0.00  0.00    +0.000 A 
ATOM      5  N   UNL     1       4.967   5.251  16.929  0.00  0.00    +0.000 N 
ATOM      6  C   UNL     1       5.261   6.147  15.821  0.00  0.00    +0.000 C 
ATOM      7  C   UNL     1       5.529   5.204  14.650  0.00  0.00    +0.000 C 
ATOM      8  C   UNL     1       6.095   3.963  15.324  0.00  0.00    +0.000 C 
ATOM      9  C   UNL     1       5.274   3.864  16.608  0.00  0.00    +0.000 C 
ATOM     10  N   UNL     1       3.551   6.810  17.905  0.00  0.00    +0.000 NA
ATOM     11  C   UNL     1       2.543   7.073  18.732  0.00  0.00    +0.000 A 
ATOM     12  N   UNL     1       2.214   8.395  18.931  0.00  0.00    +0.000 N 
ATOM     13  C   UNL     1       1.023   8.786  19.666  0.00  0.00    +0.000 C 
ATOM     14  C   UNL     1       0.435   9.922  18.832  0.00  0.00    +0.000 C 
ATOM     15  C   UNL     1       1.653  10.547  18.168  0.00  0.00    +0.000 C 
ATOM     16  C   UNL     1       2.564   9.354  17.893  0.00  0.00    +0.000 C 
ATOM     17  N   UNL     1       1.874   6.126  19.375  0.00  0.00    +0.000 NA
ATOM     18  H   UNL     1       1.131   4.318  20.612  0.00  0.00    +0.000 HD
ENDROOT
BRANCH   1  19
ATOM     19  C   UNL     1       2.250   2.651  20.052  0.00  0.00    +0.000 C 
BRANCH  19  20
ATOM     20  C   UNL     1       2.625   2.518  21.532  0.00  0.00    +0.000 C 
BRANCH  20  21
ATOM     21  O   UNL     1       1.446   2.520  22.336  0.00  0.00    +0.000 OA
ATOM     22  H   UNL     1       0.772   2.025  21.839  0.00  0.00    +0.000 HD
ENDBRANCH  20  21
ENDBRANCH  19  20
ENDBRANCH   1  19
TORSDOF 3
ENDMDL
MODEL 8
REMARK VINA RESULT:      -6.5      3.010      6.394
REMARK  Name = 
REMARK  3 active torsions:
REMARK  status: ('A' for Active; 'I' for Inactive)
REMARK    1  A    between atoms: O_1  and  C_2
REMARK    2  A    between atoms: C_2  and  C_3
REMARK    3  A    between atoms: C_3  and  N_4
REMARK                            x       y       z     vdW  Elec       q    Type
REMARK                         _______ _______ _______ _____ _____    ______ ____
ROOT
ATOM      1  N   UNL     1       1.763   3.556  19.542  0.00  0.00    +0.000 N 
ATOM      2  C   UNL     1       2.454   4.583  18.905  0.00  0.00    +0.000 A 
ATOM      3  N   UNL     1       3.434   4.289  18.066  0.00  0.00    +0.000 NA
ATOM      4  C   UNL     1       4.045   5.315  17.495  0.00  0.00    +0.000 A 
ATOM      5  N   UNL     1       5.104   5.073  16.646  0.00  0.00    +0.000 N 
ATOM      6  C   UNL     1       5.354   6.015  15.566  0.00  0.00    +0.000 C 
ATOM      7  C   UNL     1       5.597   5.121  14.351  0.00  0.00    +0.000 C 
ATOM      8  C   UNL     1       6.197   3.863  14.958  0.00  0.00    +0.000 C 
ATOM      9  C   UNL     1       5.417   3.703  16.261  0.00  0.00    +0.000 C 
ATOM     10  N   UNL     1       3.700   6.575  17.724  0.00  0.00    +0.000 NA
ATOM     11  C   UNL     1       2.716   6.793  18.591  0.00  0.00    +0.000 A 
ATOM     12  N   UNL     1       2.378   8.102  18.851  0.00  0.00    +0.000 N 
ATOM     13  C   UNL     1       1.206   8.449  19.637  0.00  0.00    +0.000 C 
ATOM     14  C   UNL     1       0.580   9.609  18.866  0.00  0.00    +0.000 C 
ATOM     15  C   UNL     1       1.769  10.275  18.191  0.00  0.00    +0.000 C 
ATOM     16  C   UNL     1       2.685   9.105  17.842  0.00  0.00    +0.000 C 
ATOM     17  N   UNL     1       2.077   5.813  19.216  0.00  0.00    +0.000 NA
ATOM     18  H   UNL     1       1.393   3.950  20.403  0.00  0.00    +0.000 HD
ENDROOT
BRANCH   1  19
ATOM     19  C   UNL     1       2.513   2.320  19.744  0.00  0.00    +0.000 C 
BRANCH  19  20
ATOM     20  C   UNL     1       3.738   2.528  20.642  0.00  0.00    +0.000 C 
BRANCH  20  21
ATOM     21  O   UNL     1       4.932   2.260  19.907  0.00  0.00    +0.000 OA
ATOM     22  H   UNL     1       5.672   2.389  20.525  0.00  0.00    +0.000 HD
ENDBRANCH  20  21
ENDBRANCH  19  20
ENDBRANCH   1  19
TORSDOF 3
ENDMDL
MODEL 9
REMARK VINA RESULT:      -6.4      3.438      6.761
REMARK  Name = 
REMARK  3 active torsions:
REMARK  status: ('A' for Active; 'I' for Inactive)
REMARK    1  A    between atoms: O_1  and  C_2
REMARK    2  A    between atoms: C_2  and  C_3
REMARK    3  A    between atoms: C_3  and  N_4
REMARK                            x       y       z     vdW  Elec       q    Type
REMARK                         _______ _______ _______ _____ _____    ______ ____
ROOT
ATOM      1  N   UNL     1       1.531   4.053  20.017  0.00  0.00    +0.000 N 
ATOM      2  C   UNL     1       2.230   5.040  19.326  0.00  0.00    +0.000 A 
ATOM      3  N   UNL     1       3.224   4.696  18.525  0.00  0.00    +0.000 NA
ATOM      4  C   UNL     1       3.841   5.685  17.898  0.00  0.00    +0.000 A 
ATOM      5  N   UNL     1       4.916   5.392  17.085  0.00  0.00    +0.000 N 
ATOM      6  C   UNL     1       5.181   6.263  15.950  0.00  0.00    +0.000 C 
ATOM      7  C   UNL     1       5.448   5.292  14.801  0.00  0.00    +0.000 C 
ATOM      8  C   UNL     1       6.042   4.079  15.499  0.00  0.00    +0.000 C 
ATOM      9  C   UNL     1       5.240   4.002  16.797  0.00  0.00    +0.000 C 
ATOM     10  N   UNL     1       3.489   6.955  18.039  0.00  0.00    +0.000 NA
ATOM     11  C   UNL     1       2.489   7.225  18.872  0.00  0.00    +0.000 A 
ATOM     12  N   UNL     1       2.141   8.547  19.040  0.00  0.00    +0.000 N 
ATOM     13  C   UNL     1       0.955   8.939  19.782  0.00  0.00    +0.000 C 
ATOM     14  C   UNL     1       0.339  10.043  18.926  0.00  0.00    +0.000 C 
ATOM     15  C   UNL     1       1.537  10.669  18.229  0.00  0.00    +0.000 C 
ATOM     16  C   UNL     1       2.463   9.483  17.973  0.00  0.00    +0.000 C 
ATOM     17  N   UNL     1       1.842   6.285  19.549  0.00  0.00    +0.000 NA
ATOM     18  H   UNL     1       1.144   4.501  20.844  0.00  0.00    +0.000 HD
ENDROOT
BRANCH   1  19
ATOM     19  C   UNL     1       2.281   2.836  20.313  0.00  0.00    +0.000 C 
BRANCH  19  20
ATOM     20  C   UNL     1       1.870   1.670  19.407  0.00  0.00    +0.000 C 
BRANCH  20  21
ATOM     21  O   UNL     1       2.666   1.670  18.222  0.00  0.00    +0.000 OA
ATOM     22  H   UNL     1       3.540   2.015  18.476  0.00  0.00    +0.000 HD
ENDBRANCH  20  21
ENDBRANCH  19  20
ENDBRANCH   1  19
TORSDOF 3
ENDMDL
