MODEL 1
REMARK VINA RESULT:      -8.5      0.000      0.000
REMARK  Name = 
REMARK  6 active torsions:
REMARK  status: ('A' for Active; 'I' for Inactive)
REMARK    1  A    between atoms: C_1  and  C_2
REMARK    2  A    between atoms: C_2  and  O_3
REMARK    3  A    between atoms: C_2  and  C_12
REMARK    4  A    between atoms: O_3  and  C_4
REMARK    5  A    between atoms: C_4  and  C_6
REMARK    6  A    between atoms: C_14  and  O_15
REMARK                            x       y       z     vdW  Elec       q    Type
REMARK                         _______ _______ _______ _____ _____    ______ ____
ROOT
ATOM      1  C   UNL     1       5.361   4.920  18.298  0.00  0.00    +0.000 A 
ATOM      2  N   UNL     1       5.714   3.930  19.141  0.00  0.00    +0.000 NA
ATOM      3  C   UNL     1       4.736   3.080  19.467  0.00  0.00    +0.000 A 
ATOM      4  C   UNL     1       3.419   3.157  19.043  0.00  0.00    +0.000 A 
ATOM      5  C   UNL     1       2.378   2.302  19.472  0.00  0.00    +0.000 A 
ATOM      6  C   UNL     1       1.078   2.505  19.023  0.00  0.00    +0.000 A 
ATOM      7  C   UNL     1       0.823   3.531  18.120  0.00  0.00    +0.000 A 
ATOM      8  C   UNL     1       1.868   4.354  17.684  0.00  0.00    +0.000 A 
ATOM      9  C   UNL     1       3.169   4.197  18.149  0.00  0.00    +0.000 A 
ATOM     10  N   UNL     1       4.124   5.061  17.768  0.00  0.00    +0.000 NA
ENDROOT
BRANCH   1  12
ATOM     11  C   UNL     1       7.520   5.876  19.023  0.00  0.00    +0.000 C 
ATOM     12  C   UNL     1       6.334   6.075  18.076  0.00  0.00    +0.000 C 
BRANCH  12  13
ATOM     13  O   UNL     1       6.793   6.101  16.709  0.00  0.00    +0.000 OA
BRANCH  13  14
ATOM     14  C   UNL     1       7.413   4.973  16.279  0.00  0.00    +0.000 C 
ATOM     15  O   UNL     1       8.112   4.241  16.971  0.00  0.00    +0.000 OA
BRANCH  14  16
ATOM     16  C   UNL     1       7.140   4.757  14.824  0.00  0.00    +0.000 C 
ATOM     17  C   UNL     1       6.187   3.876  14.504  0.00  0.00    +0.000 C 
ATOM     18  O   UNL     1       5.800   3.531  13.247  0.00  0.00    +0.000 OA
ATOM     19  C   UNL     1       6.590   4.065  12.193  0.00  0.00    +0.000 C 
ATOM     20  C   UNL     1       7.733   5.019  12.551  0.00  0.00    +0.000 C 
ATOM     21  O   UNL     1       7.854   5.470  13.894  0.00  0.00    +0.000 OA
ENDBRANCH  14  16
ENDBRANCH  13  14
ENDBRANCH  12  13
ENDBRANCH   1  12
BRANCH   3  22
ATOM     22  O   UNL     1       5.146   2.112  20.327  0.00  0.00    +0.000 OA
ATOM     23  H   UNL     1       6.097   2.097  20.125  0.00  0.00    +0.000 HD
ENDBRANCH   3  22
TORSDOF 5
ENDMDL
MODEL 2
REMARK VINA RESULT:      -8.5      1.321      1.500
REMARK  Name = 
REMARK  6 active torsions:
REMARK  status: ('A' for Active; 'I' for Inactive)
REMARK    1  A    between atoms: C_1  and  C_2
REMARK    2  A    between atoms: C_2  and  O_3
REMARK    3  A    between atoms: C_2  and  C_12
REMARK    4  A    between atoms: O_3  and  C_4
REMARK    5  A    between atoms: C_4  and  C_6
REMARK    6  A    between atoms: C_14  and  O_15
REMARK                            x       y       z     vdW  Elec       q    Type
REMARK                         _______ _______ _______ _____ _____    ______ ____
ROOT
ATOM      1  C   UNL     1       5.476   4.836  19.041  0.00  0.00    +0.000 A 
ATOM      2  N   UNL     1       5.673   3.513  19.209  0.00  0.00    +0.000 NA
ATOM      3  C   UNL     1       4.609   2.828  19.641  0.00  0.00    +0.000 A 
ATOM      4  C   UNL     1       3.370   3.363  19.951  0.00  0.00    +0.000 A 
ATOM      5  C   UNL     1       2.287   2.636  20.495  0.00  0.00    +0.000 A 
ATOM      6  C   UNL     1       1.101   3.287  20.820  0.00  0.00    +0.000 A 
ATOM      7  C   UNL     1       0.984   4.649  20.569  0.00  0.00    +0.000 A 
ATOM      8  C   UNL     1       2.055   5.352  20.007  0.00  0.00    +0.000 A 
ATOM      9  C   UNL     1       3.264   4.732  19.710  0.00  0.00    +0.000 A 
ATOM     10  N   UNL     1       4.294   5.460  19.249  0.00  0.00    +0.000 NA
ENDROOT
BRANCH   1  12
ATOM     11  C   UNL     1       7.706   5.447  19.908  0.00  0.00    +0.000 C 
ATOM     12  C   UNL     1       6.689   5.732  18.801  0.00  0.00    +0.000 C 
BRANCH  12  13
ATOM     13  O   UNL     1       7.275   5.465  17.510  0.00  0.00    +0.000 OA
BRANCH  13  14
ATOM     14  C   UNL     1       6.867   6.279  16.505  0.00  0.00    +0.000 C 
ATOM     15  O   UNL     1       6.652   7.481  16.609  0.00  0.00    +0.000 OA
BRANCH  14  16
ATOM     16  C   UNL     1       6.693   5.493  15.244  0.00  0.00    +0.000 C 
ATOM     17  C   UNL     1       5.594   4.739  15.140  0.00  0.00    +0.000 C 
ATOM     18  O   UNL     1       5.259   3.944  14.088  0.00  0.00    +0.000 OA
ATOM     19  C   UNL     1       6.251   3.813  13.078  0.00  0.00    +0.000 C 
ATOM     20  C   UNL     1       7.547   4.616  13.221  0.00  0.00    +0.000 C 
ATOM     21  O   UNL     1       7.641   5.587  14.257  0.00  0.00    +0.000 OA
ENDBRANCH  14  16
ENDBRANCH  13  14
ENDBRANCH  12  13
ENDBRANCH   1  12
BRANCH   3  22
ATOM     22  O   UNL     1       4.869   1.504  19.804  0.00  0.00    +0.000 OA
ATOM     23  H   UNL     1       4.055   1.227  20.259  0.00  0.00    +0.000 HD
ENDBRANCH   3  22
TORSDOF 5
ENDMDL
MODEL 3
REMARK VINA RESULT:      -8.4      1.666      2.056
REMARK  Name = 
REMARK  6 active torsions:
REMARK  status: ('A' for Active; 'I' for Inactive)
REMARK    1  A    between atoms: C_1  and  C_2
REMARK    2  A    between atoms: C_2  and  O_3
REMARK    3  A    between atoms: C_2  and  C_12
REMARK    4  A    between atoms: O_3  and  C_4
REMARK    5  A    between atoms: C_4  and  C_6
REMARK    6  A    between atoms: C_14  and  O_15
REMARK                            x       y       z     vdW  Elec       q    Type
REMARK                         _______ _______ _______ _____ _____    ______ ____
ROOT
ATOM      1  C   UNL     1       4.245   5.407  17.526  0.00  0.00    +0.000 A 
ATOM      2  N   UNL     1       3.859   6.284  18.473  0.00  0.00    +0.000 NA
ATOM      3  C   UNL     1       2.908   5.846  19.304  0.00  0.00    +0.000 A 
ATOM      4  C   UNL     1       2.284   4.610  19.245  0.00  0.00    +0.000 A 
ATOM      5  C   UNL     1       1.216   4.201  20.075  0.00  0.00    +0.000 A 
ATOM      6  C   UNL     1       0.626   2.955  19.892  0.00  0.00    +0.000 A 
ATOM      7  C   UNL     1       1.126   2.105  18.912  0.00  0.00    +0.000 A 
ATOM      8  C   UNL     1       2.201   2.512  18.114  0.00  0.00    +0.000 A 
ATOM      9  C   UNL     1       2.781   3.769  18.251  0.00  0.00    +0.000 A 
ATOM     10  N   UNL     1       3.755   4.151  17.409  0.00  0.00    +0.000 NA
ENDROOT
BRANCH   1  12
ATOM     11  C   UNL     1       4.657   7.307  16.003  0.00  0.00    +0.000 C 
ATOM     12  C   UNL     1       5.130   5.903  16.386  0.00  0.00    +0.000 C 
BRANCH  12  13
ATOM     13  O   UNL     1       6.514   5.942  16.792  0.00  0.00    +0.000 OA
BRANCH  13  14
ATOM     14  C   UNL     1       7.278   4.907  16.360  0.00  0.00    +0.000 C 
ATOM     15  O   UNL     1       7.996   4.212  17.068  0.00  0.00    +0.000 OA
BRANCH  14  16
ATOM     16  C   UNL     1       7.137   4.747  14.879  0.00  0.00    +0.000 C 
ATOM     17  C   UNL     1       6.315   3.787  14.443  0.00  0.00    +0.000 C 
ATOM     18  O   UNL     1       6.062   3.474  13.143  0.00  0.00    +0.000 OA
ATOM     19  C   UNL     1       6.861   4.151  12.182  0.00  0.00    +0.000 C 
ATOM     20  C   UNL     1       7.860   5.202  12.674  0.00  0.00    +0.000 C 
ATOM     21  O   UNL     1       7.832   5.585  14.044  0.00  0.00    +0.000 OA
ENDBRANCH  14  16
ENDBRANCH  13  14
ENDBRANCH  12  13
ENDBRANCH   1  12
BRANCH   3  22
ATOM     22  O   UNL     1       2.550   6.775  20.229  0.00  0.00    +0.000 OA
ATOM     23  H   UNL     1       1.583   6.673  20.206  0.00  0.00    +0.000 HD
ENDBRANCH   3  22
TORSDOF 5
ENDMDL
MODEL 4
REMARK VINA RESULT:      -8.3      2.660      3.239
REMARK  Name = 
REMARK  6 active torsions:
REMARK  status: ('A' for Active; 'I' for Inactive)
REMARK    1  A    between atoms: C_1  and  C_2
REMARK    2  A    between atoms: C_2  and  O_3
REMARK    3  A    between atoms: C_2  and  C_12
REMARK    4  A    between atoms: O_3  and  C_4
REMARK    5  A    between atoms: C_4  and  C_6
REMARK    6  A    between atoms: C_14  and  O_15
REMARK                            x       y       z     vdW  Elec       q    Type
REMARK                         _______ _______ _______ _____ _____    ______ ____
ROOT
ATOM      1  C   UNL     1       3.890   5.266  18.309  0.00  0.00    +0.000 A 
ATOM      2  N   UNL     1       3.475   4.922  19.544  0.00  0.00    +0.000 NA
ATOM      3  C   UNL     1       2.670   5.804  20.143  0.00  0.00    +0.000 A 
ATOM      4  C   UNL     1       2.270   7.024  19.620  0.00  0.00    +0.000 A 
ATOM      5  C   UNL     1       1.493   7.984  20.308  0.00  0.00    +0.000 A 
ATOM      6  C   UNL     1       1.195   9.202  19.705  0.00  0.00    +0.000 A 
ATOM      7  C   UNL     1       1.636   9.444  18.409  0.00  0.00    +0.000 A 
ATOM      8  C   UNL     1       2.382   8.474  17.731  0.00  0.00    +0.000 A 
ATOM      9  C   UNL     1       2.727   7.265  18.326  0.00  0.00    +0.000 A 
ATOM     10  N   UNL     1       3.515   6.398  17.670  0.00  0.00    +0.000 NA
ENDROOT
BRANCH   1  12
ATOM     11  C   UNL     1       4.397   3.134  17.170  0.00  0.00    +0.000 C 
ATOM     12  C   UNL     1       5.004   4.452  17.657  0.00  0.00    +0.000 C 
BRANCH  12  13
ATOM     13  O   UNL     1       5.581   5.170  16.547  0.00  0.00    +0.000 OA
BRANCH  13  14
ATOM     14  C   UNL     1       6.840   4.797  16.203  0.00  0.00    +0.000 C 
ATOM     15  O   UNL     1       7.750   4.561  16.989  0.00  0.00    +0.000 OA
BRANCH  14  16
ATOM     16  C   UNL     1       6.969   4.737  14.713  0.00  0.00    +0.000 C 
ATOM     17  C   UNL     1       6.220   3.836  14.070  0.00  0.00    +0.000 C 
ATOM     18  O   UNL     1       6.201   3.616  12.728  0.00  0.00    +0.000 OA
ATOM     19  C   UNL     1       7.178   4.325  11.976  0.00  0.00    +0.000 C 
ATOM     20  C   UNL     1       8.093   5.307  12.713  0.00  0.00    +0.000 C 
ATOM     21  O   UNL     1       7.823   5.603  14.078  0.00  0.00    +0.000 OA
ENDBRANCH  14  16
ENDBRANCH  13  14
ENDBRANCH  12  13
ENDBRANCH   1  12
BRANCH   3  22
ATOM     22  O   UNL     1       2.293   5.411  21.388  0.00  0.00    +0.000 OA
ATOM     23  H   UNL     1       1.346   5.630  21.356  0.00  0.00    +0.000 HD
ENDBRANCH   3  22
TORSDOF 5
ENDMDL
MODEL 5
REMARK VINA RESULT:      -8.3      1.310      1.768
REMARK  Name = 
REMARK  6 active torsions:
REMARK  status: ('A' for Active; 'I' for Inactive)
REMARK    1  A    between atoms: C_1  and  C_2
REMARK    2  A    between atoms: C_2  and  O_3
REMARK    3  A    between atoms: C_2  and  C_12
REMARK    4  A    between atoms: O_3  and  C_4
REMARK    5  A    between atoms: C_4  and  C_6
REMARK    6  A    between atoms: C_14  and  O_15
REMARK                            x       y       z     vdW  Elec       q    Type
REMARK                         _______ _______ _______ _____ _____    ______ ____
ROOT
ATOM      1  C   UNL     1       5.288   4.838  18.601  0.00  0.00    +0.000 A 
ATOM      2  N   UNL     1       5.652   3.604  19.002  0.00  0.00    +0.000 NA
ATOM      3  C   UNL     1       4.711   2.916  19.656  0.00  0.00    +0.000 A 
ATOM      4  C   UNL     1       3.442   3.373  19.972  0.00  0.00    +0.000 A 
ATOM      5  C   UNL     1       2.495   2.664  20.745  0.00  0.00    +0.000 A 
ATOM      6  C   UNL     1       1.267   3.243  21.048  0.00  0.00    +0.000 A 
ATOM      7  C   UNL     1       0.971   4.507  20.550  0.00  0.00    +0.000 A 
ATOM      8  C   UNL     1       1.908   5.187  19.764  0.00  0.00    +0.000 A 
ATOM      9  C   UNL     1       3.158   4.647  19.481  0.00  0.00    +0.000 A 
ATOM     10  N   UNL     1       4.058   5.368  18.794  0.00  0.00    +0.000 NA
ENDROOT
BRANCH   1  12
ATOM     11  C   UNL     1       7.545   5.732  19.052  0.00  0.00    +0.000 C 
ATOM     12  C   UNL     1       6.365   5.786  18.079  0.00  0.00    +0.000 C 
BRANCH  12  13
ATOM     13  O   UNL     1       6.795   5.395  16.759  0.00  0.00    +0.000 OA
BRANCH  13  14
ATOM     14  C   UNL     1       6.025   5.846  15.737  0.00  0.00    +0.000 C 
ATOM     15  O   UNL     1       5.241   6.786  15.802  0.00  0.00    +0.000 OA
BRANCH  14  16
ATOM     16  C   UNL     1       6.251   5.013  14.515  0.00  0.00    +0.000 C 
ATOM     17  C   UNL     1       7.359   5.255  13.807  0.00  0.00    +0.000 C 
ATOM     18  O   UNL     1       7.738   4.620  12.665  0.00  0.00    +0.000 OA
ATOM     19  C   UNL     1       6.785   3.718  12.118  0.00  0.00    +0.000 C 
ATOM     20  C   UNL     1       5.478   3.487  12.883  0.00  0.00    +0.000 C 
ATOM     21  O   UNL     1       5.339   4.043  14.185  0.00  0.00    +0.000 OA
ENDBRANCH  14  16
ENDBRANCH  13  14
ENDBRANCH  12  13
ENDBRANCH   1  12
BRANCH   3  22
ATOM     22  O   UNL     1       5.137   1.686  20.048  0.00  0.00    +0.000 OA
ATOM     23  H   UNL     1       6.056   1.717  19.732  0.00  0.00    +0.000 HD
ENDBRANCH   3  22
TORSDOF 5
ENDMDL
MODEL 6
REMARK VINA RESULT:      -8.3      4.169      5.328
REMARK  Name = 
REMARK  6 active torsions:
REMARK  status: ('A' for Active; 'I' for Inactive)
REMARK    1  A    between atoms: C_1  and  C_2
REMARK    2  A    between atoms: C_2  and  O_3
REMARK    3  A    between atoms: C_2  and  C_12
REMARK    4  A    between atoms: O_3  and  C_4
REMARK    5  A    between atoms: C_4  and  C_6
REMARK    6  A    between atoms: C_14  and  O_15
REMARK                            x       y       z     vdW  Elec       q    Type
REMARK                         _______ _______ _______ _____ _____    ______ ____
ROOT
ATOM      1  C   UNL     1       2.599   7.237  19.181  0.00  0.00    +0.000 A 
ATOM      2  N   UNL     1       2.524   8.120  18.167  0.00  0.00    +0.000 NA
ATOM      3  C   UNL     1       1.771   9.199  18.403  0.00  0.00    +0.000 A 
ATOM      4  C   UNL     1       1.056   9.452  19.562  0.00  0.00    +0.000 A 
ATOM      5  C   UNL     1       0.191  10.552  19.757  0.00  0.00    +0.000 A 
ATOM      6  C   UNL     1      -0.522  10.679  20.944  0.00  0.00    +0.000 A 
ATOM      7  C   UNL     1      -0.344   9.733  21.948  0.00  0.00    +0.000 A 
ATOM      8  C   UNL     1       0.536   8.663  21.752  0.00  0.00    +0.000 A 
ATOM      9  C   UNL     1       1.229   8.492  20.558  0.00  0.00    +0.000 A 
ATOM     10  N   UNL     1       1.998   7.405  20.381  0.00  0.00    +0.000 NA
ENDROOT
BRANCH   1  12
ATOM     11  C   UNL     1       2.302   5.120  17.944  0.00  0.00    +0.000 C 
ATOM     12  C   UNL     1       3.219   5.867  18.914  0.00  0.00    +0.000 C 
BRANCH  12  13
ATOM     13  O   UNL     1       4.536   6.004  18.344  0.00  0.00    +0.000 OA
BRANCH  13  14
ATOM     14  C   UNL     1       5.269   4.863  18.287  0.00  0.00    +0.000 C 
ATOM     15  O   UNL     1       5.404   4.061  19.204  0.00  0.00    +0.000 OA
BRANCH  14  16
ATOM     16  C   UNL     1       5.914   4.732  16.944  0.00  0.00    +0.000 C 
ATOM     17  C   UNL     1       6.863   5.620  16.631  0.00  0.00    +0.000 C 
ATOM     18  O   UNL     1       7.557   5.679  15.462  0.00  0.00    +0.000 OA
ATOM     19  C   UNL     1       7.117   4.792  14.442  0.00  0.00    +0.000 C 
ATOM     20  C   UNL     1       5.980   3.818  14.764  0.00  0.00    +0.000 C 
ATOM     21  O   UNL     1       5.525   3.716  16.108  0.00  0.00    +0.000 OA
ENDBRANCH  14  16
ENDBRANCH  13  14
ENDBRANCH  12  13
ENDBRANCH   1  12
BRANCH   3  22
ATOM     22  O   UNL     1       1.722  10.048  17.343  0.00  0.00    +0.000 OA
ATOM     23  H   UNL     1       2.014  10.871  17.772  0.00  0.00    +0.000 HD
ENDBRANCH   3  22
TORSDOF 5
ENDMDL
MODEL 7
REMARK VINA RESULT:      -8.2      1.591      2.026
REMARK  Name = 
REMARK  6 active torsions:
REMARK  status: ('A' for Active; 'I' for Inactive)
REMARK    1  A    between atoms: C_1  and  C_2
REMARK    2  A    between atoms: C_2  and  O_3
REMARK    3  A    between atoms: C_2  and  C_12
REMARK    4  A    between atoms: O_3  and  C_4
REMARK    5  A    between atoms: C_4  and  C_6
REMARK    6  A    between atoms: C_14  and  O_15
REMARK                            x       y       z     vdW  Elec       q    Type
REMARK                         _______ _______ _______ _____ _____    ______ ____
ROOT
ATOM      1  C   UNL     1       4.516   5.043  18.332  0.00  0.00    +0.000 A 
ATOM      2  N   UNL     1       3.831   4.498  17.308  0.00  0.00    +0.000 NA
ATOM      3  C   UNL     1       2.716   3.845  17.649  0.00  0.00    +0.000 A 
ATOM      4  C   UNL     1       2.244   3.663  18.939  0.00  0.00    +0.000 A 
ATOM      5  C   UNL     1       1.113   2.890  19.285  0.00  0.00    +0.000 A 
ATOM      6  C   UNL     1       0.760   2.729  20.621  0.00  0.00    +0.000 A 
ATOM      7  C   UNL     1       1.508   3.368  21.603  0.00  0.00    +0.000 A 
ATOM      8  C   UNL     1       2.611   4.152  21.244  0.00  0.00    +0.000 A 
ATOM      9  C   UNL     1       3.008   4.295  19.919  0.00  0.00    +0.000 A 
ATOM     10  N   UNL     1       4.121   4.987  19.625  0.00  0.00    +0.000 NA
ENDROOT
BRANCH   1  12
ATOM     11  C   UNL     1       6.731   5.415  19.358  0.00  0.00    +0.000 C 
ATOM     12  C   UNL     1       5.920   5.581  18.071  0.00  0.00    +0.000 C 
BRANCH  12  13
ATOM     13  O   UNL     1       6.552   4.861  16.992  0.00  0.00    +0.000 OA
BRANCH  13  14
ATOM     14  C   UNL     1       7.164   5.631  16.057  0.00  0.00    +0.000 C 
ATOM     15  O   UNL     1       7.778   6.667  16.282  0.00  0.00    +0.000 OA
BRANCH  14  16
ATOM     16  C   UNL     1       6.963   5.043  14.696  0.00  0.00    +0.000 C 
ATOM     17  C   UNL     1       6.094   4.033  14.588  0.00  0.00    +0.000 C 
ATOM     18  O   UNL     1       5.783   3.358  13.448  0.00  0.00    +0.000 OA
ATOM     19  C   UNL     1       6.568   3.683  12.308  0.00  0.00    +0.000 C 
ATOM     20  C   UNL     1       7.619   4.789  12.439  0.00  0.00    +0.000 C 
ATOM     21  O   UNL     1       7.654   5.564  13.631  0.00  0.00    +0.000 OA
ENDBRANCH  14  16
ENDBRANCH  13  14
ENDBRANCH  12  13
ENDBRANCH   1  12
BRANCH   3  22
ATOM     22  O   UNL     1       2.075   3.307  16.579  0.00  0.00    +0.000 OA
ATOM     23  H   UNL     1       1.723   4.115  16.168  0.00  0.00    +0.000 HD
ENDBRANCH   3  22
TORSDOF 5
ENDMDL
MODEL 8
REMARK VINA RESULT:      -8.2      1.195      1.411
REMARK  Name = 
REMARK  6 active torsions:
REMARK  status: ('A' for Active; 'I' for Inactive)
REMARK    1  A    between atoms: C_1  and  C_2
REMARK    2  A    between atoms: C_2  and  O_3
REMARK    3  A    between atoms: C_2  and  C_12
REMARK    4  A    between atoms: O_3  and  C_4
REMARK    5  A    between atoms: C_4  and  C_6
REMARK    6  A    between atoms: C_14  and  O_15
REMARK                            x       y       z     vdW  Elec       q    Type
REMARK                         _______ _______ _______ _____ _____    ______ ____
ROOT
ATOM      1  C   UNL     1       4.399   4.698  17.636  0.00  0.00    +0.000 A 
ATOM      2  N   UNL     1       5.125   3.725  18.220  0.00  0.00    +0.000 NA
ATOM      3  C   UNL     1       4.514   3.076  19.217  0.00  0.00    +0.000 A 
ATOM      4  C   UNL     1       3.244   3.343  19.701  0.00  0.00    +0.000 A 
ATOM      5  C   UNL     1       2.652   2.708  20.817  0.00  0.00    +0.000 A 
ATOM      6  C   UNL     1       1.388   3.094  21.251  0.00  0.00    +0.000 A 
ATOM      7  C   UNL     1       0.703   4.082  20.554  0.00  0.00    +0.000 A 
ATOM      8  C   UNL     1       1.290   4.685  19.435  0.00  0.00    +0.000 A 
ATOM      9  C   UNL     1       2.568   4.345  19.005  0.00  0.00    +0.000 A 
ATOM     10  N   UNL     1       3.127   5.007  17.979  0.00  0.00    +0.000 NA
ENDROOT
BRANCH   1  12
ATOM     11  C   UNL     1       4.389   7.008  16.764  0.00  0.00    +0.000 C 
ATOM     12  C   UNL     1       5.097   5.654  16.672  0.00  0.00    +0.000 C 
BRANCH  12  13
ATOM     13  O   UNL     1       6.490   5.800  17.015  0.00  0.00    +0.000 OA
BRANCH  13  14
ATOM     14  C   UNL     1       7.315   4.841  16.526  0.00  0.00    +0.000 C 
ATOM     15  O   UNL     1       8.094   4.169  17.191  0.00  0.00    +0.000 OA
BRANCH  14  16
ATOM     16  C   UNL     1       7.155   4.732  15.042  0.00  0.00    +0.000 C 
ATOM     17  C   UNL     1       6.325   3.790  14.583  0.00  0.00    +0.000 C 
ATOM     18  O   UNL     1       6.054   3.523  13.277  0.00  0.00    +0.000 OA
ATOM     19  C   UNL     1       6.842   4.231  12.329  0.00  0.00    +0.000 C 
ATOM     20  C   UNL     1       7.850   5.262  12.845  0.00  0.00    +0.000 C 
ATOM     21  O   UNL     1       7.841   5.597  14.228  0.00  0.00    +0.000 OA
ENDBRANCH  14  16
ENDBRANCH  13  14
ENDBRANCH  12  13
ENDBRANCH   1  12
BRANCH   3  22
ATOM     22  O   UNL     1       5.296   2.116  19.776  0.00  0.00    +0.000 OA
ATOM     23  H   UNL     1       4.806   1.320  19.506  0.00  0.00    +0.000 HD
ENDBRANCH   3  22
TORSDOF 5
ENDMDL
MODEL 9
REMARK VINA RESULT:      -8.2      2.813      3.229
REMARK  Name = 
REMARK  6 active torsions:
REMARK  status: ('A' for Active; 'I' for Inactive)
REMARK    1  A    between atoms: C_1  and  C_2
REMARK    2  A    between atoms: C_2  and  O_3
REMARK    3  A    between atoms: C_2  and  C_12
REMARK    4  A    between atoms: O_3  and  C_4
REMARK    5  A    between atoms: C_4  and  C_6
REMARK    6  A    between atoms: C_14  and  O_15
REMARK                            x       y       z     vdW  Elec       q    Type
REMARK                         _______ _______ _______ _____ _____    ______ ____
ROOT
ATOM      1  C   UNL     1       4.149   6.479  17.697  0.00  0.00    +0.000 A 
ATOM      2  N   UNL     1       3.969   5.683  18.769  0.00  0.00    +0.000 NA
ATOM      3  C   UNL     1       3.054   6.105  19.647  0.00  0.00    +0.000 A 
ATOM      4  C   UNL     1       2.324   7.279  19.558  0.00  0.00    +0.000 A 
ATOM      5  C   UNL     1       1.429   7.752  20.544  0.00  0.00    +0.000 A 
ATOM      6  C   UNL     1       0.788   8.975  20.375  0.00  0.00    +0.000 A 
ATOM      7  C   UNL     1       1.010   9.704  19.212  0.00  0.00    +0.000 A 
ATOM      8  C   UNL     1       1.879   9.210  18.232  0.00  0.00    +0.000 A 
ATOM      9  C   UNL     1       2.562   8.010  18.395  0.00  0.00    +0.000 A 
ATOM     10  N   UNL     1       3.450   7.615  17.469  0.00  0.00    +0.000 NA
ENDROOT
BRANCH   1  12
ATOM     11  C   UNL     1       6.483   7.133  17.224  0.00  0.00    +0.000 C 
ATOM     12  C   UNL     1       5.341   6.215  16.780  0.00  0.00    +0.000 C 
BRANCH  12  13
ATOM     13  O   UNL     1       5.755   4.836  16.862  0.00  0.00    +0.000 OA
BRANCH  13  14
ATOM     14  C   UNL     1       7.004   4.573  16.401  0.00  0.00    +0.000 C 
ATOM     15  O   UNL     1       7.989   4.365  17.100  0.00  0.00    +0.000 OA
BRANCH  14  16
ATOM     16  C   UNL     1       7.015   4.597  14.905  0.00  0.00    +0.000 C 
ATOM     17  C   UNL     1       6.210   3.737  14.273  0.00  0.00    +0.000 C 
ATOM     18  O   UNL     1       6.085   3.593  12.926  0.00  0.00    +0.000 OA
ATOM     19  C   UNL     1       7.006   4.339  12.141  0.00  0.00    +0.000 C 
ATOM     20  C   UNL     1       7.984   5.274  12.858  0.00  0.00    +0.000 C 
ATOM     21  O   UNL     1       7.825   5.493  14.254  0.00  0.00    +0.000 OA
ENDBRANCH  14  16
ENDBRANCH  13  14
ENDBRANCH  12  13
ENDBRANCH   1  12
BRANCH   3  22
ATOM     22  O   UNL     1       2.925   5.270  20.712  0.00  0.00    +0.000 OA
ATOM     23  H   UNL     1       2.483   5.866  21.341  0.00  0.00    +0.000 HD
ENDBRANCH   3  22
TORSDOF 5
ENDMDL
