MODEL 1
REMARK VINA RESULT:      -8.1      0.000      0.000
REMARK  Name = 
REMARK  6 active torsions:
REMARK  status: ('A' for Active; 'I' for Inactive)
REMARK    1  A    between atoms: C_2  and  C_15
REMARK    2  A    between atoms: N_3  and  C_4
REMARK    3  A    between atoms: C_4  and  C_5
REMARK    4  A    between atoms: C_5  and  C_6
REMARK    5  A    between atoms: C_9  and  N_10
REMARK    6  A    between atoms: C_18  and  C_19
REMARK                            x       y       z     vdW  Elec       q    Type
REMARK                         _______ _______ _______ _____ _____    ______ ____
ROOT
ATOM      1  O   UNL     1       8.108   7.020  16.381  0.00  0.00    +0.000 OA
ATOM      2  C   UNL     1       7.395   7.354  17.320  0.00  0.00    +0.000 C 
ATOM      3  N   UNL     1       7.608   8.505  18.059  0.00  0.00    +0.000 N 
ATOM      4  H   UNL     1       6.909   8.748  18.751  0.00  0.00    +0.000 HD
ENDROOT
BRANCH   2   5
ATOM      5  C   UNL     1       6.228   6.515  17.733  0.00  0.00    +0.000 A 
ATOM      6  C   UNL     1       6.404   5.579  18.744  0.00  0.00    +0.000 A 
ATOM      7  C   UNL     1       5.310   4.816  19.142  0.00  0.00    +0.000 A 
ATOM      8  C   UNL     1       4.055   4.997  18.540  0.00  0.00    +0.000 A 
ATOM      9  C   UNL     1       4.001   5.970  17.534  0.00  0.00    +0.000 A 
ATOM     10  N   UNL     1       5.043   6.730  17.105  0.00  0.00    +0.000 NA
BRANCH   8  11
ATOM     11  C   UNL     1       2.878   4.194  18.942  0.00  0.00    +0.000 A 
ATOM     12  C   UNL     1       2.512   3.026  18.243  0.00  0.00    +0.000 A 
ATOM     13  C   UNL     1       1.376   2.290  18.593  0.00  0.00    +0.000 A 
ATOM     14  C   UNL     1       0.589   2.695  19.664  0.00  0.00    +0.000 A 
ATOM     15  C   UNL     1       0.936   3.832  20.386  0.00  0.00    +0.000 A 
ATOM     16  C   UNL     1       2.066   4.574  20.025  0.00  0.00    +0.000 A 
ENDBRANCH   8  11
ENDBRANCH   2   5
BRANCH   3  17
ATOM     17  C   UNL     1       8.715   9.379  17.720  0.00  0.00    +0.000 C 
BRANCH  17  18
ATOM     18  C   UNL     1       9.186  10.251  18.882  0.00  0.00    +0.000 C 
BRANCH  18  19
ATOM     19  C   UNL     1       9.685  11.602  18.412  0.00  0.00    +0.000 A 
ATOM     20  C   UNL     1      11.054  11.811  18.191  0.00  0.00    +0.000 A 
ATOM     21  C   UNL     1      11.527  13.057  17.768  0.00  0.00    +0.000 A 
ATOM     22  C   UNL     1      10.625  14.107  17.569  0.00  0.00    +0.000 A 
ATOM     23  C   UNL     1       9.255  13.918  17.795  0.00  0.00    +0.000 A 
ATOM     24  C   UNL     1       8.792  12.667  18.219  0.00  0.00    +0.000 A 
BRANCH  22  25
ATOM     25  N   UNL     1      11.117  15.417  17.119  0.00  0.00    +0.000 N 
ATOM     26  O   UNL     1      10.284  16.228  16.686  0.00  0.00    +0.000 OA
ATOM     27  O   UNL     1      12.333  15.638  17.201  0.00  0.00    +0.000 OA
ENDBRANCH  22  25
ENDBRANCH  18  19
ENDBRANCH  17  18
ENDBRANCH   3  17
TORSDOF 6
ENDMDL
MODEL 2
REMARK VINA RESULT:      -8.0      6.002      8.674
REMARK  Name = 
REMARK  6 active torsions:
REMARK  status: ('A' for Active; 'I' for Inactive)
REMARK    1  A    between atoms: C_2  and  C_15
REMARK    2  A    between atoms: N_3  and  C_4
REMARK    3  A    between atoms: C_4  and  C_5
REMARK    4  A    between atoms: C_5  and  C_6
REMARK    5  A    between atoms: C_9  and  N_10
REMARK    6  A    between atoms: C_18  and  C_19
REMARK                            x       y       z     vdW  Elec       q    Type
REMARK                         _______ _______ _______ _____ _____    ______ ____
ROOT
ATOM      1  O   UNL     1       2.619   6.719  18.031  0.00  0.00    +0.000 OA
ATOM      2  C   UNL     1       2.487   6.781  19.248  0.00  0.00    +0.000 C 
ATOM      3  N   UNL     1       2.963   5.809  20.112  0.00  0.00    +0.000 N 
ATOM      4  H   UNL     1       2.894   5.996  21.105  0.00  0.00    +0.000 HD
ENDROOT
BRANCH   2   5
ATOM      5  C   UNL     1       1.783   7.937  19.886  0.00  0.00    +0.000 A 
ATOM      6  C   UNL     1       1.472   7.865  21.236  0.00  0.00    +0.000 A 
ATOM      7  C   UNL     1       0.838   8.953  21.832  0.00  0.00    +0.000 A 
ATOM      8  C   UNL     1       0.531  10.099  21.083  0.00  0.00    +0.000 A 
ATOM      9  C   UNL     1       0.895  10.055  19.731  0.00  0.00    +0.000 A 
ATOM     10  N   UNL     1       1.504   9.013  19.104  0.00  0.00    +0.000 NA
BRANCH   8  11
ATOM     11  C   UNL     1      -0.148  11.265  21.692  0.00  0.00    +0.000 A 
ATOM     12  C   UNL     1      -1.147  11.104  22.673  0.00  0.00    +0.000 A 
ATOM     13  C   UNL     1      -1.820  12.202  23.218  0.00  0.00    +0.000 A 
ATOM     14  C   UNL     1      -1.496  13.489  22.808  0.00  0.00    +0.000 A 
ATOM     15  C   UNL     1      -0.500  13.681  21.856  0.00  0.00    +0.000 A 
ATOM     16  C   UNL     1       0.162  12.580  21.303  0.00  0.00    +0.000 A 
ENDBRANCH   8  11
ENDBRANCH   2   5
BRANCH   3  17
ATOM     17  C   UNL     1       3.663   4.657  19.576  0.00  0.00    +0.000 C 
BRANCH  17  18
ATOM     18  C   UNL     1       5.176   4.842  19.491  0.00  0.00    +0.000 C 
BRANCH  18  19
ATOM     19  C   UNL     1       5.669   4.850  18.059  0.00  0.00    +0.000 A 
ATOM     20  C   UNL     1       5.084   4.001  17.107  0.00  0.00    +0.000 A 
ATOM     21  C   UNL     1       5.538   3.992  15.784  0.00  0.00    +0.000 A 
ATOM     22  C   UNL     1       6.589   4.835  15.408  0.00  0.00    +0.000 A 
ATOM     23  C   UNL     1       7.190   5.683  16.349  0.00  0.00    +0.000 A 
ATOM     24  C   UNL     1       6.729   5.683  17.670  0.00  0.00    +0.000 A 
BRANCH  22  25
ATOM     25  N   UNL     1       7.065   4.833  14.019  0.00  0.00    +0.000 N 
ATOM     26  O   UNL     1       7.964   5.633  13.715  0.00  0.00    +0.000 OA
ATOM     27  O   UNL     1       6.546   4.032  13.229  0.00  0.00    +0.000 OA
ENDBRANCH  22  25
ENDBRANCH  18  19
ENDBRANCH  17  18
ENDBRANCH   3  17
TORSDOF 6
ENDMDL
MODEL 3
REMARK VINA RESULT:      -7.9      0.910      1.402
REMARK  Name = 
REMARK  6 active torsions:
REMARK  status: ('A' for Active; 'I' for Inactive)
REMARK    1  A    between atoms: C_2  and  C_15
REMARK    2  A    between atoms: N_3  and  C_4
REMARK    3  A    between atoms: C_4  and  C_5
REMARK    4  A    between atoms: C_5  and  C_6
REMARK    5  A    between atoms: C_9  and  N_10
REMARK    6  A    between atoms: C_18  and  C_19
REMARK                            x       y       z     vdW  Elec       q    Type
REMARK                         _______ _______ _______ _____ _____    ______ ____
ROOT
ATOM      1  O   UNL     1       7.985   7.018  16.403  0.00  0.00    +0.000 OA
ATOM      2  C   UNL     1       7.266   7.349  17.339  0.00  0.00    +0.000 C 
ATOM      3  N   UNL     1       7.473   8.499  18.083  0.00  0.00    +0.000 N 
ATOM      4  H   UNL     1       6.770   8.739  18.771  0.00  0.00    +0.000 HD
ENDROOT
BRANCH   2   5
ATOM      5  C   UNL     1       6.096   6.509  17.743  0.00  0.00    +0.000 A 
ATOM      6  C   UNL     1       4.964   6.515  16.940  0.00  0.00    +0.000 A 
ATOM      7  C   UNL     1       3.885   5.714  17.306  0.00  0.00    +0.000 A 
ATOM      8  C   UNL     1       3.948   4.911  18.456  0.00  0.00    +0.000 A 
ATOM      9  C   UNL     1       5.142   4.988  19.184  0.00  0.00    +0.000 A 
ATOM     10  N   UNL     1       6.216   5.763  18.872  0.00  0.00    +0.000 NA
BRANCH   8  11
ATOM     11  C   UNL     1       2.812   4.055  18.868  0.00  0.00    +0.000 A 
ATOM     12  C   UNL     1       2.344   3.010  18.048  0.00  0.00    +0.000 A 
ATOM     13  C   UNL     1       1.245   2.228  18.415  0.00  0.00    +0.000 A 
ATOM     14  C   UNL     1       0.598   2.463  19.622  0.00  0.00    +0.000 A 
ATOM     15  C   UNL     1       1.049   3.475  20.462  0.00  0.00    +0.000 A 
ATOM     16  C   UNL     1       2.142   4.264  20.086  0.00  0.00    +0.000 A 
ENDBRANCH   8  11
ENDBRANCH   2   5
BRANCH   3  17
ATOM     17  C   UNL     1       8.583   9.373  17.754  0.00  0.00    +0.000 C 
BRANCH  17  18
ATOM     18  C   UNL     1       9.366   9.856  18.972  0.00  0.00    +0.000 C 
BRANCH  18  19
ATOM     19  C   UNL     1       9.820  11.293  18.824  0.00  0.00    +0.000 A 
ATOM     20  C   UNL     1       9.311  12.090  17.786  0.00  0.00    +0.000 A 
ATOM     21  C   UNL     1       9.731  13.415  17.633  0.00  0.00    +0.000 A 
ATOM     22  C   UNL     1      10.672  13.950  18.519  0.00  0.00    +0.000 A 
ATOM     23  C   UNL     1      11.198  13.164  19.555  0.00  0.00    +0.000 A 
ATOM     24  C   UNL     1      10.771  11.839  19.699  0.00  0.00    +0.000 A 
BRANCH  22  25
ATOM     25  N   UNL     1      11.112  15.343  18.365  0.00  0.00    +0.000 N 
ATOM     26  O   UNL     1      10.238  16.220  18.295  0.00  0.00    +0.000 OA
ATOM     27  O   UNL     1      12.331  15.564  18.317  0.00  0.00    +0.000 OA
ENDBRANCH  22  25
ENDBRANCH  18  19
ENDBRANCH  17  18
ENDBRANCH   3  17
TORSDOF 6
ENDMDL
MODEL 4
REMARK VINA RESULT:      -7.9      6.054      8.604
REMARK  Name = 
REMARK  6 active torsions:
REMARK  status: ('A' for Active; 'I' for Inactive)
REMARK    1  A    between atoms: C_2  and  C_15
REMARK    2  A    between atoms: N_3  and  C_4
REMARK    3  A    between atoms: C_4  and  C_5
REMARK    4  A    between atoms: C_5  and  C_6
REMARK    5  A    between atoms: C_9  and  N_10
REMARK    6  A    between atoms: C_18  and  C_19
REMARK                            x       y       z     vdW  Elec       q    Type
REMARK                         _______ _______ _______ _____ _____    ______ ____
ROOT
ATOM      1  O   UNL     1       2.708   6.680  18.002  0.00  0.00    +0.000 OA
ATOM      2  C   UNL     1       2.523   6.747  19.212  0.00  0.00    +0.000 C 
ATOM      3  N   UNL     1       2.986   5.793  20.102  0.00  0.00    +0.000 N 
ATOM      4  H   UNL     1       2.870   5.985  21.090  0.00  0.00    +0.000 HD
ENDROOT
BRANCH   2   5
ATOM      5  C   UNL     1       1.766   7.890  19.810  0.00  0.00    +0.000 A 
ATOM      6  C   UNL     1       1.323   7.783  21.121  0.00  0.00    +0.000 A 
ATOM      7  C   UNL     1       0.639   8.858  21.683  0.00  0.00    +0.000 A 
ATOM      8  C   UNL     1       0.412  10.027  20.941  0.00  0.00    +0.000 A 
ATOM      9  C   UNL     1       0.906  10.018  19.630  0.00  0.00    +0.000 A 
ATOM     10  N   UNL     1       1.569   8.990  19.036  0.00  0.00    +0.000 NA
BRANCH   8  11
ATOM     11  C   UNL     1      -0.317  11.181  21.513  0.00  0.00    +0.000 A 
ATOM     12  C   UNL     1      -0.330  12.435  20.870  0.00  0.00    +0.000 A 
ATOM     13  C   UNL     1      -0.982  13.538  21.430  0.00  0.00    +0.000 A 
ATOM     14  C   UNL     1      -1.652  13.408  22.640  0.00  0.00    +0.000 A 
ATOM     15  C   UNL     1      -1.674  12.178  23.289  0.00  0.00    +0.000 A 
ATOM     16  C   UNL     1      -1.010  11.079  22.732  0.00  0.00    +0.000 A 
ENDBRANCH   8  11
ENDBRANCH   2   5
BRANCH   3  17
ATOM     17  C   UNL     1       3.735   4.654  19.605  0.00  0.00    +0.000 C 
BRANCH  17  18
ATOM     18  C   UNL     1       5.235   4.910  19.487  0.00  0.00    +0.000 C 
BRANCH  18  19
ATOM     19  C   UNL     1       5.708   4.870  18.049  0.00  0.00    +0.000 A 
ATOM     20  C   UNL     1       6.896   5.517  17.678  0.00  0.00    +0.000 A 
ATOM     21  C   UNL     1       7.337   5.495  16.351  0.00  0.00    +0.000 A 
ATOM     22  C   UNL     1       6.581   4.826  15.382  0.00  0.00    +0.000 A 
ATOM     23  C   UNL     1       5.386   4.182  15.734  0.00  0.00    +0.000 A 
ATOM     24  C   UNL     1       4.954   4.211  17.065  0.00  0.00    +0.000 A 
BRANCH  22  25
ATOM     25  N   UNL     1       7.042   4.796  13.988  0.00  0.00    +0.000 N 
ATOM     26  O   UNL     1       6.508   3.980  13.221  0.00  0.00    +0.000 OA
ATOM     27  O   UNL     1       7.936   5.588  13.656  0.00  0.00    +0.000 OA
ENDBRANCH  22  25
ENDBRANCH  18  19
ENDBRANCH  17  18
ENDBRANCH   3  17
TORSDOF 6
ENDMDL
MODEL 5
REMARK VINA RESULT:      -7.9      8.936     11.449
REMARK  Name = 
REMARK  6 active torsions:
REMARK  status: ('A' for Active; 'I' for Inactive)
REMARK    1  A    between atoms: C_2  and  C_15
REMARK    2  A    between atoms: N_3  and  C_4
REMARK    3  A    between atoms: C_4  and  C_5
REMARK    4  A    between atoms: C_5  and  C_6
REMARK    5  A    between atoms: C_9  and  N_10
REMARK    6  A    between atoms: C_18  and  C_19
REMARK                            x       y       z     vdW  Elec       q    Type
REMARK                         _______ _______ _______ _____ _____    ______ ____
ROOT
ATOM      1  O   UNL     1       1.334  11.503  21.211  0.00  0.00    +0.000 OA
ATOM      2  C   UNL     1       0.603  10.745  20.584  0.00  0.00    +0.000 C 
ATOM      3  N   UNL     1      -0.758  10.953  20.442  0.00  0.00    +0.000 N 
ATOM      4  H   UNL     1      -1.262  10.327  19.825  0.00  0.00    +0.000 HD
ENDROOT
BRANCH   2   5
ATOM      5  C   UNL     1       1.153   9.522  19.921  0.00  0.00    +0.000 A 
ATOM      6  C   UNL     1       1.501   9.591  18.579  0.00  0.00    +0.000 A 
ATOM      7  C   UNL     1       2.034   8.457  17.971  0.00  0.00    +0.000 A 
ATOM      8  C   UNL     1       2.223   7.275  18.703  0.00  0.00    +0.000 A 
ATOM      9  C   UNL     1       1.835   7.327  20.049  0.00  0.00    +0.000 A 
ATOM     10  N   UNL     1       1.301   8.406  20.682  0.00  0.00    +0.000 NA
BRANCH   8  11
ATOM     11  C   UNL     1       2.782   6.055  18.078  0.00  0.00    +0.000 A 
ATOM     12  C   UNL     1       2.084   4.832  18.102  0.00  0.00    +0.000 A 
ATOM     13  C   UNL     1       2.629   3.668  17.550  0.00  0.00    +0.000 A 
ATOM     14  C   UNL     1       3.880   3.705  16.945  0.00  0.00    +0.000 A 
ATOM     15  C   UNL     1       4.584   4.903  16.889  0.00  0.00    +0.000 A 
ATOM     16  C   UNL     1       4.041   6.063  17.453  0.00  0.00    +0.000 A 
ENDBRANCH   8  11
ENDBRANCH   2   5
BRANCH   3  17
ATOM     17  C   UNL     1      -1.371  12.119  21.050  0.00  0.00    +0.000 C 
BRANCH  17  18
ATOM     18  C   UNL     1      -1.643  11.962  22.544  0.00  0.00    +0.000 C 
BRANCH  18  19
ATOM     19  C   UNL     1      -3.078  12.292  22.898  0.00  0.00    +0.000 A 
ATOM     20  C   UNL     1      -3.993  12.635  21.891  0.00  0.00    +0.000 A 
ATOM     21  C   UNL     1      -5.318  12.952  22.207  0.00  0.00    +0.000 A 
ATOM     22  C   UNL     1      -5.733  12.932  23.543  0.00  0.00    +0.000 A 
ATOM     23  C   UNL     1      -4.830  12.602  24.562  0.00  0.00    +0.000 A 
ATOM     24  C   UNL     1      -3.506  12.287  24.235  0.00  0.00    +0.000 A 
BRANCH  22  25
ATOM     25  N   UNL     1      -7.125  13.260  23.879  0.00  0.00    +0.000 N 
ATOM     26  O   UNL     1      -7.915  12.318  24.049  0.00  0.00    +0.000 OA
ATOM     27  O   UNL     1      -7.431  14.457  23.978  0.00  0.00    +0.000 OA
ENDBRANCH  22  25
ENDBRANCH  18  19
ENDBRANCH  17  18
ENDBRANCH   3  17
TORSDOF 6
ENDMDL
MODEL 6
REMARK VINA RESULT:      -7.9      5.967      8.616
REMARK  Name = 
REMARK  6 active torsions:
REMARK  status: ('A' for Active; 'I' for Inactive)
REMARK    1  A    between atoms: C_2  and  C_15
REMARK    2  A    between atoms: N_3  and  C_4
REMARK    3  A    between atoms: C_4  and  C_5
REMARK    4  A    between atoms: C_5  and  C_6
REMARK    5  A    between atoms: C_9  and  N_10
REMARK    6  A    between atoms: C_18  and  C_19
REMARK                            x       y       z     vdW  Elec       q    Type
REMARK                         _______ _______ _______ _____ _____    ______ ____
ROOT
ATOM      1  O   UNL     1       2.721   6.650  17.972  0.00  0.00    +0.000 OA
ATOM      2  C   UNL     1       2.555   6.749  19.182  0.00  0.00    +0.000 C 
ATOM      3  N   UNL     1       3.061   5.836  20.092  0.00  0.00    +0.000 N 
ATOM      4  H   UNL     1       2.956   6.055  21.076  0.00  0.00    +0.000 HD
ENDROOT
BRANCH   2   5
ATOM      5  C   UNL     1       1.776   7.888  19.759  0.00  0.00    +0.000 A 
ATOM      6  C   UNL     1       1.549   9.007  18.969  0.00  0.00    +0.000 A 
ATOM      7  C   UNL     1       0.804  10.056  19.501  0.00  0.00    +0.000 A 
ATOM      8  C   UNL     1       0.286   9.978  20.803  0.00  0.00    +0.000 A 
ATOM      9  C   UNL     1       0.580   8.799  21.501  0.00  0.00    +0.000 A 
ATOM     10  N   UNL     1       1.311   7.755  21.029  0.00  0.00    +0.000 NA
BRANCH   8  11
ATOM     11  C   UNL     1      -0.504  11.082  21.392  0.00  0.00    +0.000 A 
ATOM     12  C   UNL     1      -0.977  11.021  22.718  0.00  0.00    +0.000 A 
ATOM     13  C   UNL     1      -1.760  12.043  23.264  0.00  0.00    +0.000 A 
ATOM     14  C   UNL     1      -2.074  13.160  22.500  0.00  0.00    +0.000 A 
ATOM     15  C   UNL     1      -1.606  13.258  21.194  0.00  0.00    +0.000 A 
ATOM     16  C   UNL     1      -0.833  12.228  20.647  0.00  0.00    +0.000 A 
ENDBRANCH   8  11
ENDBRANCH   2   5
BRANCH   3  17
ATOM     17  C   UNL     1       3.833   4.704  19.616  0.00  0.00    +0.000 C 
BRANCH  17  18
ATOM     18  C   UNL     1       5.327   4.992  19.487  0.00  0.00    +0.000 C 
BRANCH  18  19
ATOM     19  C   UNL     1       5.789   4.964  18.045  0.00  0.00    +0.000 A 
ATOM     20  C   UNL     1       5.253   4.024  17.150  0.00  0.00    +0.000 A 
ATOM     21  C   UNL     1       5.679   3.982  15.819  0.00  0.00    +0.000 A 
ATOM     22  C   UNL     1       6.654   4.882  15.376  0.00  0.00    +0.000 A 
ATOM     23  C   UNL     1       7.206   5.820  16.259  0.00  0.00    +0.000 A 
ATOM     24  C   UNL     1       6.773   5.854  17.589  0.00  0.00    +0.000 A 
BRANCH  22  25
ATOM     25  N   UNL     1       7.100   4.845  13.978  0.00  0.00    +0.000 N 
ATOM     26  O   UNL     1       7.989   5.639  13.634  0.00  0.00    +0.000 OA
ATOM     27  O   UNL     1       6.568   4.021  13.221  0.00  0.00    +0.000 OA
ENDBRANCH  22  25
ENDBRANCH  18  19
ENDBRANCH  17  18
ENDBRANCH   3  17
TORSDOF 6
ENDMDL
MODEL 7
REMARK VINA RESULT:      -7.8      4.202     10.382
REMARK  Name = 
REMARK  6 active torsions:
REMARK  status: ('A' for Active; 'I' for Inactive)
REMARK    1  A    between atoms: C_2  and  C_15
REMARK    2  A    between atoms: N_3  and  C_4
REMARK    3  A    between atoms: C_4  and  C_5
REMARK    4  A    between atoms: C_5  and  C_6
REMARK    5  A    between atoms: C_9  and  N_10
REMARK    6  A    between atoms: C_18  and  C_19
REMARK                            x       y       z     vdW  Elec       q    Type
REMARK                         _______ _______ _______ _____ _____    ______ ____
ROOT
ATOM      1  O   UNL     1       6.705   4.494  18.452  0.00  0.00    +0.000 OA
ATOM      2  C   UNL     1       6.820   5.367  17.600  0.00  0.00    +0.000 C 
ATOM      3  N   UNL     1       6.388   5.211  16.294  0.00  0.00    +0.000 N 
ATOM      4  H   UNL     1       6.436   6.023  15.689  0.00  0.00    +0.000 HD
ENDROOT
BRANCH   2   5
ATOM      5  C   UNL     1       7.452   6.683  17.929  0.00  0.00    +0.000 A 
ATOM      6  C   UNL     1       7.109   7.794  17.172  0.00  0.00    +0.000 A 
ATOM      7  C   UNL     1       7.680   9.022  17.496  0.00  0.00    +0.000 A 
ATOM      8  C   UNL     1       8.576   9.133  18.571  0.00  0.00    +0.000 A 
ATOM      9  C   UNL     1       8.843   7.943  19.261  0.00  0.00    +0.000 A 
ATOM     10  N   UNL     1       8.319   6.721  18.975  0.00  0.00    +0.000 NA
BRANCH   8  11
ATOM     11  C   UNL     1       9.201  10.425  18.932  0.00  0.00    +0.000 A 
ATOM     12  C   UNL     1       9.470  10.762  20.273  0.00  0.00    +0.000 A 
ATOM     13  C   UNL     1      10.021  12.000  20.620  0.00  0.00    +0.000 A 
ATOM     14  C   UNL     1      10.331  12.924  19.630  0.00  0.00    +0.000 A 
ATOM     15  C   UNL     1      10.094  12.612  18.295  0.00  0.00    +0.000 A 
ATOM     16  C   UNL     1       9.532  11.378  17.953  0.00  0.00    +0.000 A 
ENDBRANCH   8  11
ENDBRANCH   2   5
BRANCH   3  17
ATOM     17  C   UNL     1       5.759   3.967  15.892  0.00  0.00    +0.000 C 
BRANCH  17  18
ATOM     18  C   UNL     1       4.233   4.018  15.906  0.00  0.00    +0.000 C 
BRANCH  18  19
ATOM     19  C   UNL     1       3.666   3.703  17.274  0.00  0.00    +0.000 A 
ATOM     20  C   UNL     1       3.686   2.386  17.760  0.00  0.00    +0.000 A 
ATOM     21  C   UNL     1       3.156   2.081  19.017  0.00  0.00    +0.000 A 
ATOM     22  C   UNL     1       2.593   3.098  19.796  0.00  0.00    +0.000 A 
ATOM     23  C   UNL     1       2.556   4.417  19.321  0.00  0.00    +0.000 A 
ATOM     24  C   UNL     1       3.089   4.711  18.061  0.00  0.00    +0.000 A 
BRANCH  22  25
ATOM     25  N   UNL     1       2.040   2.783  21.119  0.00  0.00    +0.000 N 
ATOM     26  O   UNL     1       2.837   2.493  22.024  0.00  0.00    +0.000 OA
ATOM     27  O   UNL     1       0.809   2.828  21.258  0.00  0.00    +0.000 OA
ENDBRANCH  22  25
ENDBRANCH  18  19
ENDBRANCH  17  18
ENDBRANCH   3  17
TORSDOF 6
ENDMDL
MODEL 8
REMARK VINA RESULT:      -7.7      7.323      9.992
REMARK  Name = 
REMARK  6 active torsions:
REMARK  status: ('A' for Active; 'I' for Inactive)
REMARK    1  A    between atoms: C_2  and  C_15
REMARK    2  A    between atoms: N_3  and  C_4
REMARK    3  A    between atoms: C_4  and  C_5
REMARK    4  A    between atoms: C_5  and  C_6
REMARK    5  A    between atoms: C_9  and  N_10
REMARK    6  A    between atoms: C_18  and  C_19
REMARK                            x       y       z     vdW  Elec       q    Type
REMARK                         _______ _______ _______ _____ _____    ______ ____
ROOT
ATOM      1  O   UNL     1       0.696   9.355  20.041  0.00  0.00    +0.000 OA
ATOM      2  C   UNL     1       0.296   9.708  18.937  0.00  0.00    +0.000 C 
ATOM      3  N   UNL     1       1.024   9.522  17.774  0.00  0.00    +0.000 N 
ATOM      4  H   UNL     1       0.569   9.756  16.900  0.00  0.00    +0.000 HD
ENDROOT
BRANCH   2   5
ATOM      5  C   UNL     1      -1.032  10.377  18.780  0.00  0.00    +0.000 A 
ATOM      6  C   UNL     1      -1.871   9.959  17.756  0.00  0.00    +0.000 A 
ATOM      7  C   UNL     1      -3.117  10.568  17.627  0.00  0.00    +0.000 A 
ATOM      8  C   UNL     1      -3.517  11.575  18.519  0.00  0.00    +0.000 A 
ATOM      9  C   UNL     1      -2.586  11.910  19.511  0.00  0.00    +0.000 A 
ATOM     10  N   UNL     1      -1.356  11.352  19.669  0.00  0.00    +0.000 NA
BRANCH   8  11
ATOM     11  C   UNL     1      -4.834  12.241  18.399  0.00  0.00    +0.000 A 
ATOM     12  C   UNL     1      -5.409  12.932  19.484  0.00  0.00    +0.000 A 
ATOM     13  C   UNL     1      -6.671  13.525  19.386  0.00  0.00    +0.000 A 
ATOM     14  C   UNL     1      -7.381  13.456  18.194  0.00  0.00    +0.000 A 
ATOM     15  C   UNL     1      -6.830  12.798  17.100  0.00  0.00    +0.000 A 
ATOM     16  C   UNL     1      -5.572  12.195  17.204  0.00  0.00    +0.000 A 
ENDBRANCH   8  11
ENDBRANCH   2   5
BRANCH   3  17
ATOM     17  C   UNL     1       2.321   8.875  17.837  0.00  0.00    +0.000 C 
BRANCH  17  18
ATOM     18  C   UNL     1       2.244   7.364  18.046  0.00  0.00    +0.000 C 
BRANCH  18  19
ATOM     19  C   UNL     1       3.615   6.721  18.049  0.00  0.00    +0.000 A 
ATOM     20  C   UNL     1       3.961   5.801  19.052  0.00  0.00    +0.000 A 
ATOM     21  C   UNL     1       5.227   5.208  19.071  0.00  0.00    +0.000 A 
ATOM     22  C   UNL     1       6.161   5.541  18.084  0.00  0.00    +0.000 A 
ATOM     23  C   UNL     1       5.836   6.465  17.082  0.00  0.00    +0.000 A 
ATOM     24  C   UNL     1       4.566   7.052  17.072  0.00  0.00    +0.000 A 
BRANCH  22  25
ATOM     25  N   UNL     1       7.491   4.917  18.098  0.00  0.00    +0.000 N 
ATOM     26  O   UNL     1       7.916   4.442  17.034  0.00  0.00    +0.000 OA
ATOM     27  O   UNL     1       8.114   4.903  19.169  0.00  0.00    +0.000 OA
ENDBRANCH  22  25
ENDBRANCH  18  19
ENDBRANCH  17  18
ENDBRANCH   3  17
TORSDOF 6
ENDMDL
MODEL 9
REMARK VINA RESULT:      -7.7      6.107      8.616
REMARK  Name = 
REMARK  6 active torsions:
REMARK  status: ('A' for Active; 'I' for Inactive)
REMARK    1  A    between atoms: C_2  and  C_15
REMARK    2  A    between atoms: N_3  and  C_4
REMARK    3  A    between atoms: C_4  and  C_5
REMARK    4  A    between atoms: C_5  and  C_6
REMARK    5  A    between atoms: C_9  and  N_10
REMARK    6  A    between atoms: C_18  and  C_19
REMARK                            x       y       z     vdW  Elec       q    Type
REMARK                         _______ _______ _______ _____ _____    ______ ____
ROOT
ATOM      1  O   UNL     1       2.930   5.407  20.399  0.00  0.00    +0.000 OA
ATOM      2  C   UNL     1       2.701   5.954  19.326  0.00  0.00    +0.000 C 
ATOM      3  N   UNL     1       2.907   5.338  18.104  0.00  0.00    +0.000 N 
ATOM      4  H   UNL     1       2.596   5.833  17.276  0.00  0.00    +0.000 HD
ENDROOT
BRANCH   2   5
ATOM      5  C   UNL     1       2.176   7.354  19.276  0.00  0.00    +0.000 A 
ATOM      6  C   UNL     1       2.320   8.077  18.100  0.00  0.00    +0.000 A 
ATOM      7  C   UNL     1       1.808   9.372  18.048  0.00  0.00    +0.000 A 
ATOM      8  C   UNL     1       1.154   9.927  19.159  0.00  0.00    +0.000 A 
ATOM      9  C   UNL     1       1.070   9.101  20.287  0.00  0.00    +0.000 A 
ATOM     10  N   UNL     1       1.562   7.837  20.388  0.00  0.00    +0.000 NA
BRANCH   8  11
ATOM     11  C   UNL     1       0.607  11.302  19.130  0.00  0.00    +0.000 A 
ATOM     12  C   UNL     1      -0.745  11.561  19.427  0.00  0.00    +0.000 A 
ATOM     13  C   UNL     1      -1.275  12.854  19.359  0.00  0.00    +0.000 A 
ATOM     14  C   UNL     1      -0.457  13.922  19.009  0.00  0.00    +0.000 A 
ATOM     15  C   UNL     1       0.887  13.700  18.729  0.00  0.00    +0.000 A 
ATOM     16  C   UNL     1       1.410  12.403  18.786  0.00  0.00    +0.000 A 
ENDBRANCH   8  11
ENDBRANCH   2   5
BRANCH   3  17
ATOM     17  C   UNL     1       3.410   3.978  18.064  0.00  0.00    +0.000 C 
BRANCH  17  18
ATOM     18  C   UNL     1       4.928   3.880  18.195  0.00  0.00    +0.000 C 
BRANCH  18  19
ATOM     19  C   UNL     1       5.633   4.206  16.895  0.00  0.00    +0.000 A 
ATOM     20  C   UNL     1       4.972   4.030  15.670  0.00  0.00    +0.000 A 
ATOM     21  C   UNL     1       5.617   4.317  14.463  0.00  0.00    +0.000 A 
ATOM     22  C   UNL     1       6.937   4.780  14.477  0.00  0.00    +0.000 A 
ATOM     23  C   UNL     1       7.615   4.952  15.692  0.00  0.00    +0.000 A 
ATOM     24  C   UNL     1       6.961   4.661  16.894  0.00  0.00    +0.000 A 
BRANCH  22  25
ATOM     25  N   UNL     1       7.617   5.088  13.212  0.00  0.00    +0.000 N 
ATOM     26  O   UNL     1       8.520   5.938  13.234  0.00  0.00    +0.000 OA
ATOM     27  O   UNL     1       7.252   4.479  12.196  0.00  0.00    +0.000 OA
ENDBRANCH  22  25
ENDBRANCH  18  19
ENDBRANCH  17  18
ENDBRANCH   3  17
TORSDOF 6
ENDMDL
