MODEL 1
REMARK VINA RESULT:      -9.5      0.000      0.000
REMARK  Name = 
REMARK  6 active torsions:
REMARK  status: ('A' for Active; 'I' for Inactive)
REMARK    1  A    between atoms: C_1  and  N_2
REMARK    2  A    between atoms: C_6  and  C_7
REMARK    3  A    between atoms: C_7  and  N_8
REMARK    4  A    between atoms: C_12  and  C_14
REMARK    5  A    between atoms: C_18  and  N_19
REMARK    6  A    between atoms: C_24  and  C_25
REMARK                            x       y       z     vdW  Elec       q    Type
REMARK                         _______ _______ _______ _____ _____    ______ ____
ROOT
ATOM      1  C   UNL     1       0.649   9.170  21.318  0.00  0.00    +0.000 A 
ATOM      2  C   UNL     1       1.268   9.159  20.080  0.00  0.00    +0.000 A 
ATOM      3  C   UNL     1       1.627   7.822  19.764  0.00  0.00    +0.000 A 
ATOM      4  C   UNL     1       2.283   7.214  18.676  0.00  0.00    +0.000 A 
ATOM      5  C   UNL     1       2.595   5.846  18.720  0.00  0.00    +0.000 A 
ATOM      6  C   UNL     1       2.190   5.113  19.844  0.00  0.00    +0.000 A 
ATOM      7  C   UNL     1       1.526   5.684  20.928  0.00  0.00    +0.000 A 
ATOM      8  C   UNL     1       1.253   7.042  20.849  0.00  0.00    +0.000 A 
ATOM      9  N   UNL     1       0.621   7.862  21.747  0.00  0.00    +0.000 N 
ATOM     10  H   UNL     1       0.224   7.556  22.625  0.00  0.00    +0.000 HD
ENDROOT
BRANCH   1  15
ATOM     11  N   UNL     1      -2.636  12.920  20.857  0.00  0.00    +0.000 NA
ATOM     12  C   UNL     1      -1.884  13.443  21.975  0.00  0.00    +0.000 C 
ATOM     13  C   UNL     1      -0.946  12.363  22.534  0.00  0.00    +0.000 C 
ATOM     14  N   UNL     1      -0.402  11.379  21.577  0.00  0.00    +0.000 N 
ATOM     15  C   UNL     1       0.163  10.238  22.166  0.00  0.00    +0.000 C 
ATOM     16  O   UNL     1       0.215  10.108  23.390  0.00  0.00    +0.000 OA
ATOM     17  C   UNL     1      -0.891  11.365  20.186  0.00  0.00    +0.000 C 
ATOM     18  C   UNL     1      -1.790  12.533  19.758  0.00  0.00    +0.000 C 
BRANCH  11  19
ATOM     19  C   UNL     1      -4.077  12.986  20.780  0.00  0.00    +0.000 C 
BRANCH  19  25
ATOM     20  C   UNL     1      -5.274  15.652  21.724  0.00  0.00    +0.000 C 
ATOM     21  N   UNL     1      -5.232  14.457  22.522  0.00  0.00    +0.000 N 
ATOM     22  C   UNL     1      -5.717  14.348  23.794  0.00  0.00    +0.000 A 
ATOM     23  C   UNL     1      -5.569  13.021  24.111  0.00  0.00    +0.000 A 
ATOM     24  N   UNL     1      -4.971  12.337  23.077  0.00  0.00    +0.000 NA
ATOM     25  C   UNL     1      -4.778  13.221  22.107  0.00  0.00    +0.000 A 
ENDBRANCH  19  25
ENDBRANCH  11  19
ENDBRANCH   1  15
BRANCH   5  26
ATOM     26  N   UNL     1       3.303   5.273  17.651  0.00  0.00    +0.000 N 
ATOM     27  C   UNL     1       4.651   5.387  17.321  0.00  0.00    +0.000 A 
ATOM     28  N   UNL     1       5.535   5.852  18.216  0.00  0.00    +0.000 NA
ATOM     29  C   UNL     1       6.805   6.011  17.844  0.00  0.00    +0.000 A 
ATOM     30  C   UNL     1       7.248   5.706  16.595  0.00  0.00    +0.000 A 
ATOM     31  C   UNL     1       6.299   5.208  15.719  0.00  0.00    +0.000 A 
ATOM     32  N   UNL     1       5.002   5.050  16.080  0.00  0.00    +0.000 NA
ATOM     33  H   UNL     1       2.774   5.003  16.836  0.00  0.00    +0.000 HD
BRANCH  31  34
ATOM     34  C   UNL     1       6.664   4.828  14.336  0.00  0.00    +0.000 A 
ATOM     35  C   UNL     1       6.002   3.815  13.642  0.00  0.00    +0.000 A 
ATOM     36  C   UNL     1       6.423   3.486  12.354  0.00  0.00    +0.000 A 
ATOM     37  C   UNL     1       7.483   4.178  11.787  0.00  0.00    +0.000 A 
ATOM     38  C   UNL     1       8.082   5.179  12.531  0.00  0.00    +0.000 A 
ATOM     39  N   UNL     1       7.696   5.516  13.779  0.00  0.00    +0.000 NA
ENDBRANCH  31  34
ENDBRANCH   5  26
TORSDOF 5
ENDMDL
MODEL 2
REMARK VINA RESULT:      -9.2      1.369      1.676
REMARK  Name = 
REMARK  6 active torsions:
REMARK  status: ('A' for Active; 'I' for Inactive)
REMARK    1  A    between atoms: C_1  and  N_2
REMARK    2  A    between atoms: C_6  and  C_7
REMARK    3  A    between atoms: C_7  and  N_8
REMARK    4  A    between atoms: C_12  and  C_14
REMARK    5  A    between atoms: C_18  and  N_19
REMARK    6  A    between atoms: C_24  and  C_25
REMARK                            x       y       z     vdW  Elec       q    Type
REMARK                         _______ _______ _______ _____ _____    ______ ____
ROOT
ATOM      1  C   UNL     1       0.518  11.025  20.236  0.00  0.00    +0.000 A 
ATOM      2  C   UNL     1       0.977  10.681  18.976  0.00  0.00    +0.000 A 
ATOM      3  C   UNL     1       1.435   9.338  19.011  0.00  0.00    +0.000 A 
ATOM      4  C   UNL     1       2.013   8.473  18.061  0.00  0.00    +0.000 A 
ATOM      5  C   UNL     1       2.473   7.206  18.453  0.00  0.00    +0.000 A 
ATOM      6  C   UNL     1       2.292   6.822  19.788  0.00  0.00    +0.000 A 
ATOM      7  C   UNL     1       1.711   7.649  20.747  0.00  0.00    +0.000 A 
ATOM      8  C   UNL     1       1.285   8.899  20.320  0.00  0.00    +0.000 A 
ATOM      9  N   UNL     1       0.685   9.909  21.025  0.00  0.00    +0.000 N 
ATOM     10  H   UNL     1       0.436   9.858  22.004  0.00  0.00    +0.000 HD
ENDROOT
BRANCH   1  15
ATOM     11  N   UNL     1      -3.910  13.336  20.550  0.00  0.00    +0.000 NA
ATOM     12  C   UNL     1      -3.064  14.484  20.784  0.00  0.00    +0.000 C 
ATOM     13  C   UNL     1      -1.614  14.034  21.018  0.00  0.00    +0.000 C 
ATOM     14  N   UNL     1      -1.161  12.820  20.311  0.00  0.00    +0.000 N 
ATOM     15  C   UNL     1       0.030  12.265  20.802  0.00  0.00    +0.000 C 
ATOM     16  O   UNL     1       0.645  12.788  21.732  0.00  0.00    +0.000 OA
ATOM     17  C   UNL     1      -2.134  12.010  19.554  0.00  0.00    +0.000 C 
ATOM     18  C   UNL     1      -3.534  12.608  19.367  0.00  0.00    +0.000 C 
BRANCH  11  19
ATOM     19  C   UNL     1      -5.121  13.087  21.300  0.00  0.00    +0.000 C 
BRANCH  19  25
ATOM     20  C   UNL     1      -7.301  12.927  23.456  0.00  0.00    +0.000 C 
ATOM     21  N   UNL     1      -5.902  12.704  23.703  0.00  0.00    +0.000 N 
ATOM     22  C   UNL     1      -5.361  12.393  24.917  0.00  0.00    +0.000 A 
ATOM     23  C   UNL     1      -4.033  12.162  24.659  0.00  0.00    +0.000 A 
ATOM     24  N   UNL     1      -3.754  12.366  23.326  0.00  0.00    +0.000 NA
ATOM     25  C   UNL     1      -4.904  12.688  22.749  0.00  0.00    +0.000 A 
ENDBRANCH  19  25
ENDBRANCH  11  19
ENDBRANCH   1  15
BRANCH   5  26
ATOM     26  N   UNL     1       3.100   6.384  17.501  0.00  0.00    +0.000 N 
ATOM     27  C   UNL     1       4.456   6.214  17.237  0.00  0.00    +0.000 A 
ATOM     28  N   UNL     1       5.379   6.625  18.119  0.00  0.00    +0.000 NA
ATOM     29  C   UNL     1       6.669   6.507  17.803  0.00  0.00    +0.000 A 
ATOM     30  C   UNL     1       7.091   5.970  16.626  0.00  0.00    +0.000 A 
ATOM     31  C   UNL     1       6.098   5.541  15.764  0.00  0.00    +0.000 A 
ATOM     32  N   UNL     1       4.781   5.664  16.067  0.00  0.00    +0.000 NA
ATOM     33  H   UNL     1       2.558   6.111  16.696  0.00  0.00    +0.000 HD
BRANCH  31  34
ATOM     34  C   UNL     1       6.433   4.928  14.460  0.00  0.00    +0.000 A 
ATOM     35  C   UNL     1       5.664   3.911  13.894  0.00  0.00    +0.000 A 
ATOM     36  C   UNL     1       6.060   3.355  12.677  0.00  0.00    +0.000 A 
ATOM     37  C   UNL     1       7.204   3.831  12.053  0.00  0.00    +0.000 A 
ATOM     38  C   UNL     1       7.908   4.852  12.668  0.00  0.00    +0.000 A 
ATOM     39  N   UNL     1       7.548   5.405  13.844  0.00  0.00    +0.000 NA
ENDBRANCH  31  34
ENDBRANCH   5  26
TORSDOF 5
ENDMDL
MODEL 3
REMARK VINA RESULT:      -9.2      1.562      1.921
REMARK  Name = 
REMARK  6 active torsions:
REMARK  status: ('A' for Active; 'I' for Inactive)
REMARK    1  A    between atoms: C_1  and  N_2
REMARK    2  A    between atoms: C_6  and  C_7
REMARK    3  A    between atoms: C_7  and  N_8
REMARK    4  A    between atoms: C_12  and  C_14
REMARK    5  A    between atoms: C_18  and  N_19
REMARK    6  A    between atoms: C_24  and  C_25
REMARK                            x       y       z     vdW  Elec       q    Type
REMARK                         _______ _______ _______ _____ _____    ______ ____
ROOT
ATOM      1  C   UNL     1       0.474   9.831  20.991  0.00  0.00    +0.000 A 
ATOM      2  C   UNL     1       1.042   9.709  19.734  0.00  0.00    +0.000 A 
ATOM      3  C   UNL     1       1.464   8.366  19.555  0.00  0.00    +0.000 A 
ATOM      4  C   UNL     1       2.109   7.671  18.513  0.00  0.00    +0.000 A 
ATOM      5  C   UNL     1       2.502   6.335  18.698  0.00  0.00    +0.000 A 
ATOM      6  C   UNL     1       2.189   5.718  19.916  0.00  0.00    +0.000 A 
ATOM      7  C   UNL     1       1.538   6.375  20.959  0.00  0.00    +0.000 A 
ATOM      8  C   UNL     1       1.183   7.699  20.739  0.00  0.00    +0.000 A 
ATOM      9  N   UNL     1       0.542   8.582  21.567  0.00  0.00    +0.000 N 
ATOM     10  H   UNL     1       0.201   8.360  22.492  0.00  0.00    +0.000 HD
ENDROOT
BRANCH   1  15
ATOM     11  N   UNL     1      -3.552  12.793  20.716  0.00  0.00    +0.000 NA
ATOM     12  C   UNL     1      -2.710  13.665  21.504  0.00  0.00    +0.000 C 
ATOM     13  C   UNL     1      -1.469  12.903  21.992  0.00  0.00    +0.000 C 
ATOM     14  N   UNL     1      -0.942  11.838  21.116  0.00  0.00    +0.000 N 
ATOM     15  C   UNL     1      -0.037  10.963  21.735  0.00  0.00    +0.000 C 
ATOM     16  O   UNL     1       0.297  11.114  22.911  0.00  0.00    +0.000 OA
ATOM     17  C   UNL     1      -1.698  11.440  19.914  0.00  0.00    +0.000 C 
ATOM     18  C   UNL     1      -2.893  12.321  19.527  0.00  0.00    +0.000 C 
BRANCH  11  19
ATOM     19  C   UNL     1      -4.958  12.601  20.989  0.00  0.00    +0.000 C 
BRANCH  19  25
ATOM     20  C   UNL     1      -6.834  14.677  19.724  0.00  0.00    +0.000 C 
ATOM     21  N   UNL     1      -6.711  13.317  19.273  0.00  0.00    +0.000 N 
ATOM     22  C   UNL     1      -7.403  12.772  18.230  0.00  0.00    +0.000 A 
ATOM     23  C   UNL     1      -6.888  11.508  18.091  0.00  0.00    +0.000 A 
ATOM     24  N   UNL     1      -5.931  11.265  19.050  0.00  0.00    +0.000 NA
ATOM     25  C   UNL     1      -5.824  12.379  19.761  0.00  0.00    +0.000 A 
ENDBRANCH  19  25
ENDBRANCH  11  19
ENDBRANCH   1  15
BRANCH   5  26
ATOM     26  N   UNL     1       3.197   5.681  17.668  0.00  0.00    +0.000 N 
ATOM     27  C   UNL     1       4.555   5.706  17.363  0.00  0.00    +0.000 A 
ATOM     28  N   UNL     1       5.447   6.157  18.258  0.00  0.00    +0.000 NA
ATOM     29  C   UNL     1       6.731   6.229  17.908  0.00  0.00    +0.000 A 
ATOM     30  C   UNL     1       7.180   5.848  16.682  0.00  0.00    +0.000 A 
ATOM     31  C   UNL     1       6.222   5.369  15.806  0.00  0.00    +0.000 A 
ATOM     32  N   UNL     1       4.911   5.299  16.144  0.00  0.00    +0.000 NA
ATOM     33  H   UNL     1       2.670   5.408  16.853  0.00  0.00    +0.000 HD
BRANCH  31  34
ATOM     34  C   UNL     1       6.592   4.913  14.448  0.00  0.00    +0.000 A 
ATOM     35  C   UNL     1       5.870   3.932  13.769  0.00  0.00    +0.000 A 
ATOM     36  C   UNL     1       6.297   3.525  12.505  0.00  0.00    +0.000 A 
ATOM     37  C   UNL     1       7.423   4.112  11.946  0.00  0.00    +0.000 A 
ATOM     38  C   UNL     1       8.079   5.089  12.674  0.00  0.00    +0.000 A 
ATOM     39  N   UNL     1       7.689   5.499  13.898  0.00  0.00    +0.000 NA
ENDBRANCH  31  34
ENDBRANCH   5  26
TORSDOF 5
ENDMDL
MODEL 4
REMARK VINA RESULT:      -9.1      1.314      1.830
REMARK  Name = 
REMARK  6 active torsions:
REMARK  status: ('A' for Active; 'I' for Inactive)
REMARK    1  A    between atoms: C_1  and  N_2
REMARK    2  A    between atoms: C_6  and  C_7
REMARK    3  A    between atoms: C_7  and  N_8
REMARK    4  A    between atoms: C_12  and  C_14
REMARK    5  A    between atoms: C_18  and  N_19
REMARK    6  A    between atoms: C_24  and  C_25
REMARK                            x       y       z     vdW  Elec       q    Type
REMARK                         _______ _______ _______ _____ _____    ______ ____
ROOT
ATOM      1  C   UNL     1       0.472   9.593  21.083  0.00  0.00    +0.000 A 
ATOM      2  C   UNL     1       1.042   9.500  19.825  0.00  0.00    +0.000 A 
ATOM      3  C   UNL     1       1.478   8.165  19.622  0.00  0.00    +0.000 A 
ATOM      4  C   UNL     1       2.131   7.496  18.568  0.00  0.00    +0.000 A 
ATOM      5  C   UNL     1       2.537   6.161  18.729  0.00  0.00    +0.000 A 
ATOM      6  C   UNL     1       2.228   5.518  19.935  0.00  0.00    +0.000 A 
ATOM      7  C   UNL     1       1.569   6.149  20.988  0.00  0.00    +0.000 A 
ATOM      8  C   UNL     1       1.201   7.473  20.793  0.00  0.00    +0.000 A 
ATOM      9  N   UNL     1       0.550   8.335  21.635  0.00  0.00    +0.000 N 
ATOM     10  H   UNL     1       0.210   8.092  22.556  0.00  0.00    +0.000 HD
ENDROOT
BRANCH   1  15
ATOM     11  N   UNL     1      -3.368  12.774  20.635  0.00  0.00    +0.000 NA
ATOM     12  C   UNL     1      -2.562  13.553  21.547  0.00  0.00    +0.000 C 
ATOM     13  C   UNL     1      -1.408  12.701  22.095  0.00  0.00    +0.000 C 
ATOM     14  N   UNL     1      -0.854  11.661  21.205  0.00  0.00    +0.000 N 
ATOM     15  C   UNL     1      -0.052  10.706  21.847  0.00  0.00    +0.000 C 
ATOM     16  O   UNL     1       0.180  10.771  23.055  0.00  0.00    +0.000 OA
ATOM     17  C   UNL     1      -1.514  11.374  19.918  0.00  0.00    +0.000 C 
ATOM     18  C   UNL     1      -2.626  12.336  19.482  0.00  0.00    +0.000 C 
BRANCH  11  19
ATOM     19  C   UNL     1      -4.801  12.641  20.770  0.00  0.00    +0.000 C 
BRANCH  19  25
ATOM     20  C   UNL     1      -7.038  12.210  18.711  0.00  0.00    +0.000 C 
ATOM     21  N   UNL     1      -6.555  13.500  19.121  0.00  0.00    +0.000 N 
ATOM     22  C   UNL     1      -7.022  14.696  18.657  0.00  0.00    +0.000 A 
ATOM     23  C   UNL     1      -6.361  15.642  19.398  0.00  0.00    +0.000 A 
ATOM     24  N   UNL     1      -5.478  15.046  20.270  0.00  0.00    +0.000 NA
ATOM     25  C   UNL     1      -5.610  13.738  20.099  0.00  0.00    +0.000 A 
ENDBRANCH  19  25
ENDBRANCH  11  19
ENDBRANCH   1  15
BRANCH   5  26
ATOM     26  N   UNL     1       3.240   5.533  17.687  0.00  0.00    +0.000 N 
ATOM     27  C   UNL     1       4.590   5.616  17.356  0.00  0.00    +0.000 A 
ATOM     28  N   UNL     1       5.478   6.110  18.232  0.00  0.00    +0.000 NA
ATOM     29  C   UNL     1       6.750   6.237  17.856  0.00  0.00    +0.000 A 
ATOM     30  C   UNL     1       7.192   5.871  16.623  0.00  0.00    +0.000 A 
ATOM     31  C   UNL     1       6.239   5.345  15.768  0.00  0.00    +0.000 A 
ATOM     32  N   UNL     1       4.939   5.219  16.132  0.00  0.00    +0.000 NA
ATOM     33  H   UNL     1       2.709   5.233  16.885  0.00  0.00    +0.000 HD
BRANCH  31  34
ATOM     34  C   UNL     1       6.602   4.899  14.404  0.00  0.00    +0.000 A 
ATOM     35  C   UNL     1       5.894   3.902  13.733  0.00  0.00    +0.000 A 
ATOM     36  C   UNL     1       6.314   3.506  12.463  0.00  0.00    +0.000 A 
ATOM     37  C   UNL     1       7.419   4.119  11.892  0.00  0.00    +0.000 A 
ATOM     38  C   UNL     1       8.062   5.110  12.612  0.00  0.00    +0.000 A 
ATOM     39  N   UNL     1       7.678   5.510  13.842  0.00  0.00    +0.000 NA
ENDBRANCH  31  34
ENDBRANCH   5  26
TORSDOF 5
ENDMDL
MODEL 5
REMARK VINA RESULT:      -9.0      0.470      1.099
REMARK  Name = 
REMARK  6 active torsions:
REMARK  status: ('A' for Active; 'I' for Inactive)
REMARK    1  A    between atoms: C_1  and  N_2
REMARK    2  A    between atoms: C_6  and  C_7
REMARK    3  A    between atoms: C_7  and  N_8
REMARK    4  A    between atoms: C_12  and  C_14
REMARK    5  A    between atoms: C_18  and  N_19
REMARK    6  A    between atoms: C_24  and  C_25
REMARK                            x       y       z     vdW  Elec       q    Type
REMARK                         _______ _______ _______ _____ _____    ______ ____
ROOT
ATOM      1  C   UNL     1       0.633   9.191  21.373  0.00  0.00    +0.000 A 
ATOM      2  C   UNL     1       1.295   9.182  20.157  0.00  0.00    +0.000 A 
ATOM      3  C   UNL     1       1.618   7.840  19.825  0.00  0.00    +0.000 A 
ATOM      4  C   UNL     1       2.291   7.231  18.749  0.00  0.00    +0.000 A 
ATOM      5  C   UNL     1       2.554   5.851  18.775  0.00  0.00    +0.000 A 
ATOM      6  C   UNL     1       2.085   5.112  19.869  0.00  0.00    +0.000 A 
ATOM      7  C   UNL     1       1.403   5.684  20.941  0.00  0.00    +0.000 A 
ATOM      8  C   UNL     1       1.180   7.052  20.881  0.00  0.00    +0.000 A 
ATOM      9  N   UNL     1       0.545   7.876  21.773  0.00  0.00    +0.000 N 
ATOM     10  H   UNL     1       0.107   7.568  22.630  0.00  0.00    +0.000 HD
ENDROOT
BRANCH   1  15
ATOM     11  N   UNL     1      -2.686  12.915  20.957  0.00  0.00    +0.000 NA
ATOM     12  C   UNL     1      -1.918  13.448  22.059  0.00  0.00    +0.000 C 
ATOM     13  C   UNL     1      -0.963  12.376  22.606  0.00  0.00    +0.000 C 
ATOM     14  N   UNL     1      -0.429  11.393  21.643  0.00  0.00    +0.000 N 
ATOM     15  C   UNL     1       0.155  10.258  22.226  0.00  0.00    +0.000 C 
ATOM     16  O   UNL     1       0.229  10.133  23.449  0.00  0.00    +0.000 OA
ATOM     17  C   UNL     1      -0.942  11.371  20.260  0.00  0.00    +0.000 C 
ATOM     18  C   UNL     1      -1.857  12.530  19.845  0.00  0.00    +0.000 C 
BRANCH  11  19
ATOM     19  C   UNL     1      -4.129  12.971  20.905  0.00  0.00    +0.000 C 
BRANCH  19  25
ATOM     20  C   UNL     1      -5.513  13.260  23.631  0.00  0.00    +0.000 C 
ATOM     21  N   UNL     1      -5.421  14.312  22.656  0.00  0.00    +0.000 N 
ATOM     22  C   UNL     1      -5.929  15.571  22.810  0.00  0.00    +0.000 A 
ATOM     23  C   UNL     1      -5.510  16.255  21.698  0.00  0.00    +0.000 A 
ATOM     24  N   UNL     1      -4.796  15.430  20.858  0.00  0.00    +0.000 NA
ATOM     25  C   UNL     1      -4.739  14.248  21.457  0.00  0.00    +0.000 A 
ENDBRANCH  19  25
ENDBRANCH  11  19
ENDBRANCH   1  15
BRANCH   5  26
ATOM     26  N   UNL     1       3.279   5.275  17.719  0.00  0.00    +0.000 N 
ATOM     27  C   UNL     1       4.610   5.461  17.357  0.00  0.00    +0.000 A 
ATOM     28  N   UNL     1       5.478   6.024  18.211  0.00  0.00    +0.000 NA
ATOM     29  C   UNL     1       6.728   6.247  17.806  0.00  0.00    +0.000 A 
ATOM     30  C   UNL     1       7.168   5.911  16.564  0.00  0.00    +0.000 A 
ATOM     31  C   UNL     1       6.239   5.312  15.732  0.00  0.00    +0.000 A 
ATOM     32  N   UNL     1       4.961   5.088  16.126  0.00  0.00    +0.000 NA
ATOM     33  H   UNL     1       2.755   4.933  16.929  0.00  0.00    +0.000 HD
BRANCH  31  34
ATOM     34  C   UNL     1       6.604   4.890  14.361  0.00  0.00    +0.000 A 
ATOM     35  C   UNL     1       5.902   3.900  13.674  0.00  0.00    +0.000 A 
ATOM     36  C   UNL     1       6.324   3.528  12.397  0.00  0.00    +0.000 A 
ATOM     37  C   UNL     1       7.425   4.157  11.835  0.00  0.00    +0.000 A 
ATOM     38  C   UNL     1       8.062   5.140  12.572  0.00  0.00    +0.000 A 
ATOM     39  N   UNL     1       7.676   5.518  13.808  0.00  0.00    +0.000 NA
ENDBRANCH  31  34
ENDBRANCH   5  26
TORSDOF 5
ENDMDL
MODEL 6
REMARK VINA RESULT:      -8.8      1.244      1.710
REMARK  Name = 
REMARK  6 active torsions:
REMARK  status: ('A' for Active; 'I' for Inactive)
REMARK    1  A    between atoms: C_1  and  N_2
REMARK    2  A    between atoms: C_6  and  C_7
REMARK    3  A    between atoms: C_7  and  N_8
REMARK    4  A    between atoms: C_12  and  C_14
REMARK    5  A    between atoms: C_18  and  N_19
REMARK    6  A    between atoms: C_24  and  C_25
REMARK                            x       y       z     vdW  Elec       q    Type
REMARK                         _______ _______ _______ _____ _____    ______ ____
ROOT
ATOM      1  C   UNL     1       0.326  10.743  20.506  0.00  0.00    +0.000 A 
ATOM      2  C   UNL     1       0.725  10.464  19.210  0.00  0.00    +0.000 A 
ATOM      3  C   UNL     1       1.277   9.157  19.175  0.00  0.00    +0.000 A 
ATOM      4  C   UNL     1       1.850   8.361  18.165  0.00  0.00    +0.000 A 
ATOM      5  C   UNL     1       2.422   7.120  18.489  0.00  0.00    +0.000 A 
ATOM      6  C   UNL     1       2.356   6.690  19.821  0.00  0.00    +0.000 A 
ATOM      7  C   UNL     1       1.781   7.449  20.839  0.00  0.00    +0.000 A 
ATOM      8  C   UNL     1       1.243   8.676  20.477  0.00  0.00    +0.000 A 
ATOM      9  N   UNL     1       0.621   9.621  21.249  0.00  0.00    +0.000 N 
ATOM     10  H   UNL     1       0.440   9.527  22.239  0.00  0.00    +0.000 HD
ENDROOT
BRANCH   1  15
ATOM     11  N   UNL     1      -4.122  13.033  20.670  0.00  0.00    +0.000 NA
ATOM     12  C   UNL     1      -3.301  14.153  21.071  0.00  0.00    +0.000 C 
ATOM     13  C   UNL     1      -1.872  13.678  21.379  0.00  0.00    +0.000 C 
ATOM     14  N   UNL     1      -1.360  12.530  20.606  0.00  0.00    +0.000 N 
ATOM     15  C   UNL     1      -0.210  11.929  21.138  0.00  0.00    +0.000 C 
ATOM     16  O   UNL     1       0.327  12.366  22.157  0.00  0.00    +0.000 OA
ATOM     17  C   UNL     1      -2.267  11.794  19.705  0.00  0.00    +0.000 C 
ATOM     18  C   UNL     1      -3.650  12.411  19.461  0.00  0.00    +0.000 C 
BRANCH  11  19
ATOM     19  C   UNL     1      -5.387  12.723  21.296  0.00  0.00    +0.000 C 
BRANCH  19  25
ATOM     20  C   UNL     1      -6.600  12.789  24.117  0.00  0.00    +0.000 C 
ATOM     21  N   UNL     1      -6.694  13.868  23.171  0.00  0.00    +0.000 N 
ATOM     22  C   UNL     1      -7.327  15.056  23.398  0.00  0.00    +0.000 A 
ATOM     23  C   UNL     1      -7.067  15.810  22.282  0.00  0.00    +0.000 A 
ATOM     24  N   UNL     1      -6.326  15.091  21.371  0.00  0.00    +0.000 NA
ATOM     25  C   UNL     1      -6.096  13.910  21.928  0.00  0.00    +0.000 A 
ENDBRANCH  19  25
ENDBRANCH  11  19
ENDBRANCH   1  15
BRANCH   5  26
ATOM     26  N   UNL     1       3.042   6.370  17.475  0.00  0.00    +0.000 N 
ATOM     27  C   UNL     1       4.382   6.025  17.325  0.00  0.00    +0.000 A 
ATOM     28  N   UNL     1       5.234   6.135  18.355  0.00  0.00    +0.000 NA
ATOM     29  C   UNL     1       6.523   5.860  18.156  0.00  0.00    +0.000 A 
ATOM     30  C   UNL     1       7.011   5.457  16.952  0.00  0.00    +0.000 A 
ATOM     31  C   UNL     1       6.086   5.338  15.931  0.00  0.00    +0.000 A 
ATOM     32  N   UNL     1       4.773   5.624  16.115  0.00  0.00    +0.000 NA
ATOM     33  H   UNL     1       2.574   6.320  16.584  0.00  0.00    +0.000 HD
BRANCH  31  34
ATOM     34  C   UNL     1       6.495   4.895  14.579  0.00  0.00    +0.000 A 
ATOM     35  C   UNL     1       5.795   3.918  13.872  0.00  0.00    +0.000 A 
ATOM     36  C   UNL     1       6.258   3.523  12.617  0.00  0.00    +0.000 A 
ATOM     37  C   UNL     1       7.398   4.118  12.095  0.00  0.00    +0.000 A 
ATOM     38  C   UNL     1       8.030   5.091  12.849  0.00  0.00    +0.000 A 
ATOM     39  N   UNL     1       7.605   5.489  14.066  0.00  0.00    +0.000 NA
ENDBRANCH  31  34
ENDBRANCH   5  26
TORSDOF 5
ENDMDL
MODEL 7
REMARK VINA RESULT:      -8.7      1.156      1.375
REMARK  Name = 
REMARK  6 active torsions:
REMARK  status: ('A' for Active; 'I' for Inactive)
REMARK    1  A    between atoms: C_1  and  N_2
REMARK    2  A    between atoms: C_6  and  C_7
REMARK    3  A    between atoms: C_7  and  N_8
REMARK    4  A    between atoms: C_12  and  C_14
REMARK    5  A    between atoms: C_18  and  N_19
REMARK    6  A    between atoms: C_24  and  C_25
REMARK                            x       y       z     vdW  Elec       q    Type
REMARK                         _______ _______ _______ _____ _____    ______ ____
ROOT
ATOM      1  C   UNL     1       0.580  10.258  20.321  0.00  0.00    +0.000 A 
ATOM      2  C   UNL     1       1.072   9.980  19.058  0.00  0.00    +0.000 A 
ATOM      3  C   UNL     1       1.559   8.646  19.042  0.00  0.00    +0.000 A 
ATOM      4  C   UNL     1       2.175   7.838  18.067  0.00  0.00    +0.000 A 
ATOM      5  C   UNL     1       2.654   6.564  18.413  0.00  0.00    +0.000 A 
ATOM      6  C   UNL     1       2.454   6.117  19.726  0.00  0.00    +0.000 A 
ATOM      7  C   UNL     1       1.835   6.888  20.707  0.00  0.00    +0.000 A 
ATOM      8  C   UNL     1       1.391   8.147  20.327  0.00  0.00    +0.000 A 
ATOM      9  N   UNL     1       0.754   9.111  21.063  0.00  0.00    +0.000 N 
ATOM     10  H   UNL     1       0.486   9.010  22.032  0.00  0.00    +0.000 HD
ENDROOT
BRANCH   1  15
ATOM     11  N   UNL     1      -3.721  12.809  20.107  0.00  0.00    +0.000 NA
ATOM     12  C   UNL     1      -2.881  13.868  20.620  0.00  0.00    +0.000 C 
ATOM     13  C   UNL     1      -1.521  13.301  21.054  0.00  0.00    +0.000 C 
ATOM     14  N   UNL     1      -1.002  12.141  20.303  0.00  0.00    +0.000 N 
ATOM     15  C   UNL     1       0.053  11.460  20.930  0.00  0.00    +0.000 C 
ATOM     16  O   UNL     1       0.509  11.841  22.010  0.00  0.00    +0.000 OA
ATOM     17  C   UNL     1      -1.854  11.481  19.296  0.00  0.00    +0.000 C 
ATOM     18  C   UNL     1      -3.167  12.186  18.934  0.00  0.00    +0.000 C 
BRANCH  11  19
ATOM     19  C   UNL     1      -5.059  12.562  20.596  0.00  0.00    +0.000 C 
BRANCH  19  25
ATOM     20  C   UNL     1      -7.071  14.541  21.809  0.00  0.00    +0.000 C 
ATOM     21  N   UNL     1      -6.120  13.782  22.576  0.00  0.00    +0.000 N 
ATOM     22  C   UNL     1      -5.987  13.836  23.934  0.00  0.00    +0.000 A 
ATOM     23  C   UNL     1      -5.054  12.876  24.232  0.00  0.00    +0.000 A 
ATOM     24  N   UNL     1      -4.593  12.272  23.084  0.00  0.00    +0.000 NA
ATOM     25  C   UNL     1      -5.257  12.826  22.079  0.00  0.00    +0.000 A 
ENDBRANCH  19  25
ENDBRANCH  11  19
ENDBRANCH   1  15
BRANCH   5  26
ATOM     26  N   UNL     1       3.319   5.800  17.439  0.00  0.00    +0.000 N 
ATOM     27  C   UNL     1       4.659   5.822  17.061  0.00  0.00    +0.000 A 
ATOM     28  N   UNL     1       5.578   6.411  17.840  0.00  0.00    +0.000 NA
ATOM     29  C   UNL     1       6.839   6.472  17.415  0.00  0.00    +0.000 A 
ATOM     30  C   UNL     1       7.240   5.947  16.225  0.00  0.00    +0.000 A 
ATOM     31  C   UNL     1       6.256   5.330  15.472  0.00  0.00    +0.000 A 
ATOM     32  N   UNL     1       4.966   5.269  15.887  0.00  0.00    +0.000 NA
ATOM     33  H   UNL     1       2.761   5.408  16.697  0.00  0.00    +0.000 HD
BRANCH  31  34
ATOM     34  C   UNL     1       6.572   4.710  14.166  0.00  0.00    +0.000 A 
ATOM     35  C   UNL     1       7.615   5.164  13.359  0.00  0.00    +0.000 A 
ATOM     36  C   UNL     1       7.834   4.554  12.124  0.00  0.00    +0.000 A 
ATOM     37  C   UNL     1       7.017   3.505  11.730  0.00  0.00    +0.000 A 
ATOM     38  C   UNL     1       6.012   3.101  12.590  0.00  0.00    +0.000 A 
ATOM     39  N   UNL     1       5.777   3.674  13.788  0.00  0.00    +0.000 NA
ENDBRANCH  31  34
ENDBRANCH   5  26
TORSDOF 5
ENDMDL
MODEL 8
REMARK VINA RESULT:      -8.7      3.535      4.774
REMARK  Name = 
REMARK  6 active torsions:
REMARK  status: ('A' for Active; 'I' for Inactive)
REMARK    1  A    between atoms: C_1  and  N_2
REMARK    2  A    between atoms: C_6  and  C_7
REMARK    3  A    between atoms: C_7  and  N_8
REMARK    4  A    between atoms: C_12  and  C_14
REMARK    5  A    between atoms: C_18  and  N_19
REMARK    6  A    between atoms: C_24  and  C_25
REMARK                            x       y       z     vdW  Elec       q    Type
REMARK                         _______ _______ _______ _____ _____    ______ ____
ROOT
ATOM      1  C   UNL     1       0.606  11.420  20.047  0.00  0.00    +0.000 A 
ATOM      2  C   UNL     1       1.084  11.044  18.803  0.00  0.00    +0.000 A 
ATOM      3  C   UNL     1       1.483   9.683  18.862  0.00  0.00    +0.000 A 
ATOM      4  C   UNL     1       2.049   8.786  17.936  0.00  0.00    +0.000 A 
ATOM      5  C   UNL     1       2.443   7.503  18.352  0.00  0.00    +0.000 A 
ATOM      6  C   UNL     1       2.209   7.141  19.685  0.00  0.00    +0.000 A 
ATOM      7  C   UNL     1       1.637   8.002  20.620  0.00  0.00    +0.000 A 
ATOM      8  C   UNL     1       1.278   9.265  20.170  0.00  0.00    +0.000 A 
ATOM      9  N   UNL     1       0.703  10.306  20.849  0.00  0.00    +0.000 N 
ATOM     10  H   UNL     1       0.424  10.275  21.821  0.00  0.00    +0.000 HD
ENDROOT
BRANCH   1  15
ATOM     11  N   UNL     1       2.738  15.798  21.208  0.00  0.00    +0.000 NA
ATOM     12  C   UNL     1       1.545  15.932  22.012  0.00  0.00    +0.000 C 
ATOM     13  C   UNL     1       0.536  14.832  21.650  0.00  0.00    +0.000 C 
ATOM     14  N   UNL     1       1.082  13.531  21.217  0.00  0.00    +0.000 N 
ATOM     15  C   UNL     1       0.156  12.685  20.587  0.00  0.00    +0.000 C 
ATOM     16  O   UNL     1      -1.022  13.017  20.448  0.00  0.00    +0.000 OA
ATOM     17  C   UNL     1       2.533  13.385  20.994  0.00  0.00    +0.000 C 
ATOM     18  C   UNL     1       3.421  14.552  21.442  0.00  0.00    +0.000 C 
BRANCH  11  19
ATOM     19  C   UNL     1       3.287  16.884  20.428  0.00  0.00    +0.000 C 
BRANCH  19  25
ATOM     20  C   UNL     1       3.543  15.746  17.587  0.00  0.00    +0.000 C 
ATOM     21  N   UNL     1       2.652  16.814  17.953  0.00  0.00    +0.000 N 
ATOM     22  C   UNL     1       1.807  17.458  17.096  0.00  0.00    +0.000 A 
ATOM     23  C   UNL     1       1.081  18.307  17.892  0.00  0.00    +0.000 A 
ATOM     24  N   UNL     1       1.496  18.219  19.202  0.00  0.00    +0.000 NA
ATOM     25  C   UNL     1       2.449  17.298  19.230  0.00  0.00    +0.000 A 
ENDBRANCH  19  25
ENDBRANCH  11  19
ENDBRANCH   1  15
BRANCH   5  26
ATOM     26  N   UNL     1       3.060   6.647  17.426  0.00  0.00    +0.000 N 
ATOM     27  C   UNL     1       4.414   6.410  17.206  0.00  0.00    +0.000 A 
ATOM     28  N   UNL     1       5.328   6.783  18.115  0.00  0.00    +0.000 NA
ATOM     29  C   UNL     1       6.620   6.602  17.842  0.00  0.00    +0.000 A 
ATOM     30  C   UNL     1       7.053   6.038  16.682  0.00  0.00    +0.000 A 
ATOM     31  C   UNL     1       6.068   5.650  15.791  0.00  0.00    +0.000 A 
ATOM     32  N   UNL     1       4.750   5.837  16.050  0.00  0.00    +0.000 NA
ATOM     33  H   UNL     1       2.532   6.393  16.605  0.00  0.00    +0.000 HD
BRANCH  31  34
ATOM     34  C   UNL     1       6.416   5.012  14.501  0.00  0.00    +0.000 A 
ATOM     35  C   UNL     1       5.651   3.986  13.947  0.00  0.00    +0.000 A 
ATOM     36  C   UNL     1       6.058   3.407  12.745  0.00  0.00    +0.000 A 
ATOM     37  C   UNL     1       7.208   3.871  12.122  0.00  0.00    +0.000 A 
ATOM     38  C   UNL     1       7.906   4.902  12.725  0.00  0.00    +0.000 A 
ATOM     39  N   UNL     1       7.536   5.478  13.887  0.00  0.00    +0.000 NA
ENDBRANCH  31  34
ENDBRANCH   5  26
TORSDOF 5
ENDMDL
MODEL 9
REMARK VINA RESULT:      -8.6      1.062      1.191
REMARK  Name = 
REMARK  6 active torsions:
REMARK  status: ('A' for Active; 'I' for Inactive)
REMARK    1  A    between atoms: C_1  and  N_2
REMARK    2  A    between atoms: C_6  and  C_7
REMARK    3  A    between atoms: C_7  and  N_8
REMARK    4  A    between atoms: C_12  and  C_14
REMARK    5  A    between atoms: C_18  and  N_19
REMARK    6  A    between atoms: C_24  and  C_25
REMARK                            x       y       z     vdW  Elec       q    Type
REMARK                         _______ _______ _______ _____ _____    ______ ____
ROOT
ATOM      1  C   UNL     1       0.221  10.403  20.770  0.00  0.00    +0.000 A 
ATOM      2  C   UNL     1       0.535  10.177  19.441  0.00  0.00    +0.000 A 
ATOM      3  C   UNL     1       1.189   8.921  19.336  0.00  0.00    +0.000 A 
ATOM      4  C   UNL     1       1.742   8.190  18.267  0.00  0.00    +0.000 A 
ATOM      5  C   UNL     1       2.439   6.997  18.519  0.00  0.00    +0.000 A 
ATOM      6  C   UNL     1       2.517   6.546  19.843  0.00  0.00    +0.000 A 
ATOM      7  C   UNL     1       1.966   7.240  20.919  0.00  0.00    +0.000 A 
ATOM      8  C   UNL     1       1.301   8.422  20.626  0.00  0.00    +0.000 A 
ATOM      9  N   UNL     1       0.667   9.301  21.464  0.00  0.00    +0.000 N 
ATOM     10  H   UNL     1       0.576   9.179  22.463  0.00  0.00    +0.000 HD
ENDROOT
BRANCH   1  15
ATOM     11  N   UNL     1      -4.015  13.049  20.434  0.00  0.00    +0.000 NA
ATOM     12  C   UNL     1      -3.226  14.019  21.158  0.00  0.00    +0.000 C 
ATOM     13  C   UNL     1      -1.923  13.375  21.656  0.00  0.00    +0.000 C 
ATOM     14  N   UNL     1      -1.336  12.307  20.824  0.00  0.00    +0.000 N 
ATOM     15  C   UNL     1      -0.358  11.532  21.467  0.00  0.00    +0.000 C 
ATOM     16  O   UNL     1      -0.015  11.767  22.626  0.00  0.00    +0.000 OA
ATOM     17  C   UNL     1      -2.083  11.793  19.660  0.00  0.00    +0.000 C 
ATOM     18  C   UNL     1      -3.345  12.564  19.255  0.00  0.00    +0.000 C 
BRANCH  11  19
ATOM     19  C   UNL     1      -5.398  12.771  20.747  0.00  0.00    +0.000 C 
BRANCH  19  25
ATOM     20  C   UNL     1      -7.267  15.038  21.642  0.00  0.00    +0.000 C 
ATOM     21  N   UNL     1      -6.584  14.150  22.543  0.00  0.00    +0.000 N 
ATOM     22  C   UNL     1      -6.675  14.193  23.905  0.00  0.00    +0.000 A 
ATOM     23  C   UNL     1      -5.961  13.105  24.338  0.00  0.00    +0.000 A 
ATOM     24  N   UNL     1      -5.408  12.430  23.272  0.00  0.00    +0.000 NA
ATOM     25  C   UNL     1      -5.802  13.071  22.181  0.00  0.00    +0.000 A 
ENDBRANCH  19  25
ENDBRANCH  11  19
ENDBRANCH   1  15
BRANCH   5  26
ATOM     26  N   UNL     1       3.034   6.316  17.444  0.00  0.00    +0.000 N 
ATOM     27  C   UNL     1       4.332   5.827  17.318  0.00  0.00    +0.000 A 
ATOM     28  N   UNL     1       5.117   5.689  18.396  0.00  0.00    +0.000 NA
ATOM     29  C   UNL     1       6.375   5.281  18.229  0.00  0.00    +0.000 A 
ATOM     30  C   UNL     1       6.894   4.983  17.008  0.00  0.00    +0.000 A 
ATOM     31  C   UNL     1       6.034   5.120  15.932  0.00  0.00    +0.000 A 
ATOM     32  N   UNL     1       4.755   5.543  16.086  0.00  0.00    +0.000 NA
ATOM     33  H   UNL     1       2.628   6.445  16.531  0.00  0.00    +0.000 HD
BRANCH  31  34
ATOM     34  C   UNL     1       6.481   4.812  14.556  0.00  0.00    +0.000 A 
ATOM     35  C   UNL     1       5.810   3.900  13.741  0.00  0.00    +0.000 A 
ATOM     36  C   UNL     1       6.307   3.632  12.466  0.00  0.00    +0.000 A 
ATOM     37  C   UNL     1       7.452   4.284  12.032  0.00  0.00    +0.000 A 
ATOM     38  C   UNL     1       8.055   5.186  12.891  0.00  0.00    +0.000 A 
ATOM     39  N   UNL     1       7.596   5.462  14.129  0.00  0.00    +0.000 NA
ENDBRANCH  31  34
ENDBRANCH   5  26
TORSDOF 5
ENDMDL
