MODEL 1
REMARK VINA RESULT:      -6.8      0.000      0.000
REMARK  Name = 
REMARK  5 active torsions:
REMARK  status: ('A' for Active; 'I' for Inactive)
REMARK    1  A    between atoms: C_2  and  C_20
REMARK    2  A    between atoms: N_3  and  C_4
REMARK    3  A    between atoms: C_6  and  C_7
REMARK    4  A    between atoms: C_13  and  N_14
REMARK    5  A    between atoms: N_22  and  C_23
REMARK                            x       y       z     vdW  Elec       q    Type
REMARK                         _______ _______ _______ _____ _____    ______ ____
ROOT
ATOM      1  O   UNL     1      -2.732  11.469  19.055  0.00  0.00    +0.000 OA
ATOM      2  C   UNL     1      -2.151  12.443  19.548  0.00  0.00    +0.000 C 
ATOM      3  N   UNL     1      -1.291  13.127  18.720  0.00  0.00    +0.000 N 
ATOM      4  H   UNL     1      -1.335  12.746  17.788  0.00  0.00    +0.000 HD
ENDROOT
BRANCH   2   5
ATOM      5  C   UNL     1      -2.591  12.837  20.944  0.00  0.00    +0.000 A 
ATOM      6  N   UNL     1      -1.899  12.216  21.875  0.00  0.00    +0.000 NA
ATOM      7  N   UNL     1      -2.155  12.660  23.179  0.00  0.00    +0.000 N 
ATOM      8  C   UNL     1      -3.535  12.621  23.446  0.00  0.00    +0.000 A 
ATOM      9  O   UNL     1      -4.125  11.885  24.224  0.00  0.00    +0.000 OA
ATOM     10  C   UNL     1      -4.273  13.542  22.563  0.00  0.00    +0.000 A 
ATOM     11  C   UNL     1      -5.197  14.366  23.208  0.00  0.00    +0.000 A 
ATOM     12  C   UNL     1      -5.262  15.679  22.788  0.00  0.00    +0.000 A 
ATOM     13  C   UNL     1      -4.444  16.117  21.735  0.00  0.00    +0.000 A 
ATOM     14  C   UNL     1      -3.641  15.215  20.988  0.00  0.00    +0.000 A 
ATOM     15  C   UNL     1      -3.606  13.873  21.363  0.00  0.00    +0.000 A 
BRANCH   7  16
ATOM     16  C   UNL     1      -1.364  13.882  23.430  0.00  0.00    +0.000 A 
ATOM     17  C   UNL     1      -1.674  14.825  24.428  0.00  0.00    +0.000 A 
ATOM     18  C   UNL     1      -1.046  16.088  24.454  0.00  0.00    +0.000 A 
ATOM     19  C   UNL     1      -0.056  16.407  23.526  0.00  0.00    +0.000 A 
ATOM     20  C   UNL     1       0.321  15.460  22.582  0.00  0.00    +0.000 A 
ATOM     21  C   UNL     1      -0.324  14.217  22.538  0.00  0.00    +0.000 A 
ENDBRANCH   7  16
ENDBRANCH   2   5
BRANCH   3  22
ATOM     22  C   UNL     1      -0.198  13.981  18.916  0.00  0.00    +0.000 A 
ATOM     23  C   UNL     1      -0.322  15.344  18.591  0.00  0.00    +0.000 A 
ATOM     24  C   UNL     1       0.773  16.212  18.699  0.00  0.00    +0.000 A 
ATOM     25  C   UNL     1       1.966  15.722  19.227  0.00  0.00    +0.000 A 
ATOM     26  C   UNL     1       2.100  14.369  19.522  0.00  0.00    +0.000 A 
ATOM     27  C   UNL     1       1.064  13.429  19.315  0.00  0.00    +0.000 A 
BRANCH  27  28
ATOM     28  N   UNL     1       1.348  12.089  19.471  0.00  0.00    +0.000 N 
ATOM     29  C   UNL     1       1.960  11.307  18.364  0.00  0.00    +0.000 C 
ATOM     30  C   UNL     1       1.123  10.041  18.119  0.00  0.00    +0.000 C 
ATOM     31  O   UNL     1       0.996   9.252  19.313  0.00  0.00    +0.000 OA
ATOM     32  C   UNL     1       0.397  10.024  20.371  0.00  0.00    +0.000 C 
ATOM     33  C   UNL     1       1.238  11.277  20.693  0.00  0.00    +0.000 C 
ENDBRANCH  27  28
BRANCH  24  34
ATOM     34  C   UNL     1       0.717  17.638  18.220  0.00  0.00    +0.000 C 
ATOM     35  F   UNL     1       1.695  17.949  17.331  0.00  0.00    +0.000 F 
ATOM     36  F   UNL     1      -0.466  17.917  17.602  0.00  0.00    +0.000 F 
ATOM     37  F   UNL     1       0.830  18.532  19.240  0.00  0.00    +0.000 F 
ENDBRANCH  24  34
ENDBRANCH   3  22
TORSDOF 5
ENDMDL
MODEL 2
REMARK VINA RESULT:      -6.5      3.158      4.973
REMARK  Name = 
REMARK  5 active torsions:
REMARK  status: ('A' for Active; 'I' for Inactive)
REMARK    1  A    between atoms: C_2  and  C_20
REMARK    2  A    between atoms: N_3  and  C_4
REMARK    3  A    between atoms: C_6  and  C_7
REMARK    4  A    between atoms: C_13  and  N_14
REMARK    5  A    between atoms: N_22  and  C_23
REMARK                            x       y       z     vdW  Elec       q    Type
REMARK                         _______ _______ _______ _____ _____    ______ ____
ROOT
ATOM      1  O   UNL     1      -3.038   9.843  16.853  0.00  0.00    +0.000 OA
ATOM      2  C   UNL     1      -2.834  10.830  17.569  0.00  0.00    +0.000 C 
ATOM      3  N   UNL     1      -1.535  11.281  17.635  0.00  0.00    +0.000 N 
ATOM      4  H   UNL     1      -0.955  10.750  17.005  0.00  0.00    +0.000 HD
ENDROOT
BRANCH   2   5
ATOM      5  C   UNL     1      -4.069  11.498  18.141  0.00  0.00    +0.000 A 
ATOM      6  N   UNL     1      -5.163  11.153  17.496  0.00  0.00    +0.000 NA
ATOM      7  N   UNL     1      -6.349  11.615  18.081  0.00  0.00    +0.000 N 
ATOM      8  C   UNL     1      -6.285  13.004  18.283  0.00  0.00    +0.000 A 
ATOM      9  O   UNL     1      -6.932  13.873  17.717  0.00  0.00    +0.000 OA
ATOM     10  C   UNL     1      -5.213  13.353  19.235  0.00  0.00    +0.000 A 
ATOM     11  C   UNL     1      -5.586  14.241  20.245  0.00  0.00    +0.000 A 
ATOM     12  C   UNL     1      -5.107  13.982  21.512  0.00  0.00    +0.000 A 
ATOM     13  C   UNL     1      -4.259  12.884  21.727  0.00  0.00    +0.000 A 
ATOM     14  C   UNL     1      -3.762  12.102  20.651  0.00  0.00    +0.000 A 
ATOM     15  C   UNL     1      -4.192  12.386  19.355  0.00  0.00    +0.000 A 
BRANCH   7  16
ATOM     16  C   UNL     1      -6.727  10.701  19.178  0.00  0.00    +0.000 A 
ATOM     17  C   UNL     1      -6.657   9.298  19.090  0.00  0.00    +0.000 A 
ATOM     18  C   UNL     1      -7.269   8.479  20.061  0.00  0.00    +0.000 A 
ATOM     19  C   UNL     1      -7.905   9.042  21.166  0.00  0.00    +0.000 A 
ATOM     20  C   UNL     1      -7.916  10.422  21.312  0.00  0.00    +0.000 A 
ATOM     21  C   UNL     1      -7.335  11.237  20.333  0.00  0.00    +0.000 A 
ENDBRANCH   7  16
ENDBRANCH   2   5
BRANCH   3  22
ATOM     22  C   UNL     1      -0.801  12.053  18.544  0.00  0.00    +0.000 A 
ATOM     23  C   UNL     1      -0.889  13.456  18.482  0.00  0.00    +0.000 A 
ATOM     24  C   UNL     1      -0.109  14.263  19.322  0.00  0.00    +0.000 A 
ATOM     25  C   UNL     1       0.686  13.650  20.290  0.00  0.00    +0.000 A 
ATOM     26  C   UNL     1       0.796  12.265  20.333  0.00  0.00    +0.000 A 
ATOM     27  C   UNL     1       0.125  11.410  19.428  0.00  0.00    +0.000 A 
BRANCH  27  28
ATOM     28  N   UNL     1       0.432  10.066  19.439  0.00  0.00    +0.000 N 
ATOM     29  C   UNL     1       0.097   9.217  20.612  0.00  0.00    +0.000 C 
ATOM     30  C   UNL     1       1.354   8.450  21.056  0.00  0.00    +0.000 C 
ATOM     31  O   UNL     1       1.902   7.670  19.981  0.00  0.00    +0.000 OA
ATOM     32  C   UNL     1       2.226   8.509  18.856  0.00  0.00    +0.000 C 
ATOM     33  C   UNL     1       0.977   9.254  18.338  0.00  0.00    +0.000 C 
ENDBRANCH  27  28
BRANCH  24  34
ATOM     34  C   UNL     1      -0.066  15.762  19.183  0.00  0.00    +0.000 C 
ATOM     35  F   UNL     1       1.146  16.297  19.481  0.00  0.00    +0.000 F 
ATOM     36  F   UNL     1      -0.357  16.159  17.912  0.00  0.00    +0.000 F 
ATOM     37  F   UNL     1      -0.967  16.384  19.990  0.00  0.00    +0.000 F 
ENDBRANCH  24  34
ENDBRANCH   3  22
TORSDOF 5
ENDMDL
MODEL 3
REMARK VINA RESULT:      -6.5      1.452      1.939
REMARK  Name = 
REMARK  5 active torsions:
REMARK  status: ('A' for Active; 'I' for Inactive)
REMARK    1  A    between atoms: C_2  and  C_20
REMARK    2  A    between atoms: N_3  and  C_4
REMARK    3  A    between atoms: C_6  and  C_7
REMARK    4  A    between atoms: C_13  and  N_14
REMARK    5  A    between atoms: N_22  and  C_23
REMARK                            x       y       z     vdW  Elec       q    Type
REMARK                         _______ _______ _______ _____ _____    ______ ____
ROOT
ATOM      1  O   UNL     1      -4.075  11.895  19.408  0.00  0.00    +0.000 OA
ATOM      2  C   UNL     1      -3.366  12.646  20.089  0.00  0.00    +0.000 C 
ATOM      3  N   UNL     1      -2.237  13.143  19.479  0.00  0.00    +0.000 N 
ATOM      4  H   UNL     1      -2.214  12.854  18.513  0.00  0.00    +0.000 HD
ENDROOT
BRANCH   2   5
ATOM      5  C   UNL     1      -3.928  13.039  21.441  0.00  0.00    +0.000 A 
ATOM      6  N   UNL     1      -3.494  12.255  22.404  0.00  0.00    +0.000 NA
ATOM      7  N   UNL     1      -3.854  12.668  23.693  0.00  0.00    +0.000 N 
ATOM      8  C   UNL     1      -5.244  12.864  23.772  0.00  0.00    +0.000 A 
ATOM      9  O   UNL     1      -6.057  12.206  24.406  0.00  0.00    +0.000 OA
ATOM     10  C   UNL     1      -5.680  13.949  22.873  0.00  0.00    +0.000 A 
ATOM     11  C   UNL     1      -6.532  14.890  23.452  0.00  0.00    +0.000 A 
ATOM     12  C   UNL     1      -6.311  16.214  23.130  0.00  0.00    +0.000 A 
ATOM     13  C   UNL     1      -5.288  16.552  22.232  0.00  0.00    +0.000 A 
ATOM     14  C   UNL     1      -4.552  15.562  21.530  0.00  0.00    +0.000 A 
ATOM     15  C   UNL     1      -4.801  14.217  21.801  0.00  0.00    +0.000 A 
BRANCH   7  16
ATOM     16  C   UNL     1      -2.911  13.713  24.141  0.00  0.00    +0.000 A 
ATOM     17  C   UNL     1      -3.227  14.699  25.095  0.00  0.00    +0.000 A 
ATOM     18  C   UNL     1      -2.387  15.814  25.291  0.00  0.00    +0.000 A 
ATOM     19  C   UNL     1      -1.190  15.934  24.586  0.00  0.00    +0.000 A 
ATOM     20  C   UNL     1      -0.821  14.933  23.698  0.00  0.00    +0.000 A 
ATOM     21  C   UNL     1      -1.670  13.839  23.481  0.00  0.00    +0.000 A 
ENDBRANCH   7  16
ENDBRANCH   2   5
BRANCH   3  22
ATOM     22  C   UNL     1      -1.019  13.667  19.928  0.00  0.00    +0.000 A 
ATOM     23  C   UNL     1      -0.773  15.046  19.798  0.00  0.00    +0.000 A 
ATOM     24  C   UNL     1       0.464  15.594  20.163  0.00  0.00    +0.000 A 
ATOM     25  C   UNL     1       1.416  14.764  20.751  0.00  0.00    +0.000 A 
ATOM     26  C   UNL     1       1.187  13.396  20.853  0.00  0.00    +0.000 A 
ATOM     27  C   UNL     1       0.005  12.775  20.387  0.00  0.00    +0.000 A 
BRANCH  27  28
ATOM     28  N   UNL     1      -0.056  11.398  20.373  0.00  0.00    +0.000 N 
ATOM     29  C   UNL     1      -0.365  10.637  21.613  0.00  0.00    +0.000 C 
ATOM     30  C   UNL     1       0.707   9.555  21.821  0.00  0.00    +0.000 C 
ATOM     31  O   UNL     1       0.809   8.686  20.681  0.00  0.00    +0.000 OA
ATOM     32  C   UNL     1       1.114   9.440  19.493  0.00  0.00    +0.000 C 
ATOM     33  C   UNL     1       0.029  10.500  19.210  0.00  0.00    +0.000 C 
ENDBRANCH  27  28
BRANCH  24  34
ATOM     34  C   UNL     1       0.813  17.035  19.900  0.00  0.00    +0.000 C 
ATOM     35  F   UNL     1       0.585  17.849  20.963  0.00  0.00    +0.000 F 
ATOM     36  F   UNL     1       2.130  17.184  19.579  0.00  0.00    +0.000 F 
ATOM     37  F   UNL     1       0.109  17.558  18.861  0.00  0.00    +0.000 F 
ENDBRANCH  24  34
ENDBRANCH   3  22
TORSDOF 5
ENDMDL
MODEL 4
REMARK VINA RESULT:      -6.5      0.820      1.605
REMARK  Name = 
REMARK  5 active torsions:
REMARK  status: ('A' for Active; 'I' for Inactive)
REMARK    1  A    between atoms: C_2  and  C_20
REMARK    2  A    between atoms: N_3  and  C_4
REMARK    3  A    between atoms: C_6  and  C_7
REMARK    4  A    between atoms: C_13  and  N_14
REMARK    5  A    between atoms: N_22  and  C_23
REMARK                            x       y       z     vdW  Elec       q    Type
REMARK                         _______ _______ _______ _____ _____    ______ ____
ROOT
ATOM      1  O   UNL     1      -3.532  11.503  19.036  0.00  0.00    +0.000 OA
ATOM      2  C   UNL     1      -2.707  12.268  19.550  0.00  0.00    +0.000 C 
ATOM      3  N   UNL     1      -1.684  12.702  18.739  0.00  0.00    +0.000 N 
ATOM      4  H   UNL     1      -1.826  12.365  17.799  0.00  0.00    +0.000 HD
ENDROOT
BRANCH   2   5
ATOM      5  C   UNL     1      -3.032  12.743  20.953  0.00  0.00    +0.000 A 
ATOM      6  N   UNL     1      -2.216  12.232  21.850  0.00  0.00    +0.000 NA
ATOM      7  N   UNL     1      -2.370  12.759  23.139  0.00  0.00    +0.000 N 
ATOM      8  C   UNL     1      -3.712  12.667  23.547  0.00  0.00    +0.000 A 
ATOM      9  O   UNL     1      -4.179  11.962  24.430  0.00  0.00    +0.000 OA
ATOM     10  C   UNL     1      -4.587  13.479  22.681  0.00  0.00    +0.000 A 
ATOM     11  C   UNL     1      -5.492  14.299  23.357  0.00  0.00    +0.000 A 
ATOM     12  C   UNL     1      -5.677  15.571  22.855  0.00  0.00    +0.000 A 
ATOM     13  C   UNL     1      -4.993  15.971  21.697  0.00  0.00    +0.000 A 
ATOM     14  C   UNL     1      -4.214  15.059  20.937  0.00  0.00    +0.000 A 
ATOM     15  C   UNL     1      -4.062  13.752  21.400  0.00  0.00    +0.000 A 
BRANCH   7  16
ATOM     16  C   UNL     1      -1.634  14.036  23.222  0.00  0.00    +0.000 A 
ATOM     17  C   UNL     1      -0.551  14.374  22.388  0.00  0.00    +0.000 A 
ATOM     18  C   UNL     1       0.271  15.482  22.680  0.00  0.00    +0.000 A 
ATOM     19  C   UNL     1      -0.008  16.307  23.768  0.00  0.00    +0.000 A 
ATOM     20  C   UNL     1      -1.118  16.037  24.557  0.00  0.00    +0.000 A 
ATOM     21  C   UNL     1      -1.918  14.919  24.286  0.00  0.00    +0.000 A 
ENDBRANCH   7  16
ENDBRANCH   2   5
BRANCH   3  22
ATOM     22  C   UNL     1      -0.399  13.215  18.954  0.00  0.00    +0.000 A 
ATOM     23  C   UNL     1      -0.162  14.587  18.750  0.00  0.00    +0.000 A 
ATOM     24  C   UNL     1       1.127  15.121  18.880  0.00  0.00    +0.000 A 
ATOM     25  C   UNL     1       2.157  14.287  19.310  0.00  0.00    +0.000 A 
ATOM     26  C   UNL     1       1.932  12.925  19.484  0.00  0.00    +0.000 A 
ATOM     27  C   UNL     1       0.678  12.316  19.247  0.00  0.00    +0.000 A 
BRANCH  27  28
ATOM     28  N   UNL     1       0.597  10.940  19.277  0.00  0.00    +0.000 N 
ATOM     29  C   UNL     1       0.227  10.226  20.528  0.00  0.00    +0.000 C 
ATOM     30  C   UNL     1       1.274   9.138  20.816  0.00  0.00    +0.000 C 
ATOM     31  O   UNL     1       1.409   8.229  19.711  0.00  0.00    +0.000 OA
ATOM     32  C   UNL     1       1.772   8.937  18.511  0.00  0.00    +0.000 C 
ATOM     33  C   UNL     1       0.715  10.002  18.149  0.00  0.00    +0.000 C 
ENDBRANCH  27  28
BRANCH  24  34
ATOM     34  C   UNL     1       1.443  16.550  18.526  0.00  0.00    +0.000 C 
ATOM     35  F   UNL     1       1.580  17.358  19.609  0.00  0.00    +0.000 F 
ATOM     36  F   UNL     1       2.608  16.649  17.824  0.00  0.00    +0.000 F 
ATOM     37  F   UNL     1       0.483  17.116  17.745  0.00  0.00    +0.000 F 
ENDBRANCH  24  34
ENDBRANCH   3  22
TORSDOF 5
ENDMDL
MODEL 5
REMARK VINA RESULT:      -6.5      3.260      4.265
REMARK  Name = 
REMARK  5 active torsions:
REMARK  status: ('A' for Active; 'I' for Inactive)
REMARK    1  A    between atoms: C_2  and  C_20
REMARK    2  A    between atoms: N_3  and  C_4
REMARK    3  A    between atoms: C_6  and  C_7
REMARK    4  A    between atoms: C_13  and  N_14
REMARK    5  A    between atoms: N_22  and  C_23
REMARK                            x       y       z     vdW  Elec       q    Type
REMARK                         _______ _______ _______ _____ _____    ______ ____
ROOT
ATOM      1  O   UNL     1      -0.141  14.521  20.998  0.00  0.00    +0.000 OA
ATOM      2  C   UNL     1      -1.009  13.659  20.822  0.00  0.00    +0.000 C 
ATOM      3  N   UNL     1      -0.744  12.708  19.863  0.00  0.00    +0.000 N 
ATOM      4  H   UNL     1       0.187  12.839  19.499  0.00  0.00    +0.000 HD
ENDROOT
BRANCH   2   5
ATOM      5  C   UNL     1      -2.169  13.680  21.799  0.00  0.00    +0.000 A 
ATOM      6  N   UNL     1      -1.766  13.584  23.048  0.00  0.00    +0.000 NA
ATOM      7  N   UNL     1      -2.780  13.758  23.997  0.00  0.00    +0.000 N 
ATOM      8  C   UNL     1      -3.853  12.889  23.731  0.00  0.00    +0.000 A 
ATOM      9  O   UNL     1      -4.221  11.931  24.395  0.00  0.00    +0.000 OA
ATOM     10  C   UNL     1      -4.474  13.195  22.429  0.00  0.00    +0.000 A 
ATOM     11  C   UNL     1      -5.867  13.282  22.445  0.00  0.00    +0.000 A 
ATOM     12  C   UNL     1      -6.437  14.297  21.704  0.00  0.00    +0.000 A 
ATOM     13  C   UNL     1      -5.621  15.161  20.958  0.00  0.00    +0.000 A 
ATOM     14  C   UNL     1      -4.225  14.941  20.827  0.00  0.00    +0.000 A 
ATOM     15  C   UNL     1      -3.639  13.885  21.523  0.00  0.00    +0.000 A 
BRANCH   7  16
ATOM     16  C   UNL     1      -3.003  15.204  24.198  0.00  0.00    +0.000 A 
ATOM     17  C   UNL     1      -1.984  16.173  24.122  0.00  0.00    +0.000 A 
ATOM     18  C   UNL     1      -2.202  17.491  24.574  0.00  0.00    +0.000 A 
ATOM     19  C   UNL     1      -3.452  17.882  25.049  0.00  0.00    +0.000 A 
ATOM     20  C   UNL     1      -4.493  16.962  25.058  0.00  0.00    +0.000 A 
ATOM     21  C   UNL     1      -4.269  15.645  24.637  0.00  0.00    +0.000 A 
ENDBRANCH   7  16
ENDBRANCH   2   5
BRANCH   3  22
ATOM     22  C   UNL     1      -1.523  11.838  19.090  0.00  0.00    +0.000 A 
ATOM     23  C   UNL     1      -2.855  12.183  18.799  0.00  0.00    +0.000 A 
ATOM     24  C   UNL     1      -3.689  11.302  18.095  0.00  0.00    +0.000 A 
ATOM     25  C   UNL     1      -3.146  10.116  17.603  0.00  0.00    +0.000 A 
ATOM     26  C   UNL     1      -1.838   9.761  17.915  0.00  0.00    +0.000 A 
ATOM     27  C   UNL     1      -0.994  10.557  18.724  0.00  0.00    +0.000 A 
BRANCH  27  28
ATOM     28  N   UNL     1       0.221  10.040  19.120  0.00  0.00    +0.000 N 
ATOM     29  C   UNL     1       1.342   9.904  18.152  0.00  0.00    +0.000 C 
ATOM     30  C   UNL     1       1.882   8.466  18.206  0.00  0.00    +0.000 C 
ATOM     31  O   UNL     1       2.287   8.103  19.536  0.00  0.00    +0.000 OA
ATOM     32  C   UNL     1       1.188   8.236  20.457  0.00  0.00    +0.000 C 
ATOM     33  C   UNL     1       0.651   9.683  20.481  0.00  0.00    +0.000 C 
ENDBRANCH  27  28
BRANCH  24  34
ATOM     34  C   UNL     1      -5.156  11.572  17.896  0.00  0.00    +0.000 C 
ATOM     35  F   UNL     1      -5.924  10.453  17.955  0.00  0.00    +0.000 F 
ATOM     36  F   UNL     1      -5.646  12.422  18.842  0.00  0.00    +0.000 F 
ATOM     37  F   UNL     1      -5.418  12.152  16.694  0.00  0.00    +0.000 F 
ENDBRANCH  24  34
ENDBRANCH   3  22
TORSDOF 5
ENDMDL
MODEL 6
REMARK VINA RESULT:      -6.4      3.440      4.691
REMARK  Name = 
REMARK  5 active torsions:
REMARK  status: ('A' for Active; 'I' for Inactive)
REMARK    1  A    between atoms: C_2  and  C_20
REMARK    2  A    between atoms: N_3  and  C_4
REMARK    3  A    between atoms: C_6  and  C_7
REMARK    4  A    between atoms: C_13  and  N_14
REMARK    5  A    between atoms: N_22  and  C_23
REMARK                            x       y       z     vdW  Elec       q    Type
REMARK                         _______ _______ _______ _____ _____    ______ ____
ROOT
ATOM      1  O   UNL     1      -4.929  12.563  19.190  0.00  0.00    +0.000 OA
ATOM      2  C   UNL     1      -4.002  12.706  19.995  0.00  0.00    +0.000 C 
ATOM      3  N   UNL     1      -2.728  12.675  19.474  0.00  0.00    +0.000 N 
ATOM      4  H   UNL     1      -2.770  12.609  18.469  0.00  0.00    +0.000 HD
ENDROOT
BRANCH   2   5
ATOM      5  C   UNL     1      -4.406  13.056  21.414  0.00  0.00    +0.000 A 
ATOM      6  N   UNL     1      -3.827  12.275  22.300  0.00  0.00    +0.000 NA
ATOM      7  N   UNL     1      -4.041  12.655  23.632  0.00  0.00    +0.000 N 
ATOM      8  C   UNL     1      -5.417  12.795  23.885  0.00  0.00    +0.000 A 
ATOM      9  O   UNL     1      -6.121  12.097  24.600  0.00  0.00    +0.000 OA
ATOM     10  C   UNL     1      -5.999  13.875  23.068  0.00  0.00    +0.000 A 
ATOM     11  C   UNL     1      -6.808  14.774  23.766  0.00  0.00    +0.000 A 
ATOM     12  C   UNL     1      -6.677  16.110  23.446  0.00  0.00    +0.000 A 
ATOM     13  C   UNL     1      -5.785  16.502  22.435  0.00  0.00    +0.000 A 
ATOM     14  C   UNL     1      -5.106  15.551  21.629  0.00  0.00    +0.000 A 
ATOM     15  C   UNL     1      -5.271  14.194  21.902  0.00  0.00    +0.000 A 
BRANCH   7  16
ATOM     16  C   UNL     1      -3.089  13.728  23.981  0.00  0.00    +0.000 A 
ATOM     17  C   UNL     1      -1.813  13.864  23.401  0.00  0.00    +0.000 A 
ATOM     18  C   UNL     1      -0.856  14.741  23.951  0.00  0.00    +0.000 A 
ATOM     19  C   UNL     1      -1.173  15.541  25.048  0.00  0.00    +0.000 A 
ATOM     20  C   UNL     1      -2.452  15.480  25.585  0.00  0.00    +0.000 A 
ATOM     21  C   UNL     1      -3.394  14.587  25.058  0.00  0.00    +0.000 A 
ENDBRANCH   7  16
ENDBRANCH   2   5
BRANCH   3  22
ATOM     22  C   UNL     1      -1.453  12.416  19.993  0.00  0.00    +0.000 A 
ATOM     23  C   UNL     1      -1.174  11.146  20.530  0.00  0.00    +0.000 A 
ATOM     24  C   UNL     1       0.064  10.874  21.129  0.00  0.00    +0.000 A 
ATOM     25  C   UNL     1       1.052  11.856  21.097  0.00  0.00    +0.000 A 
ATOM     26  C   UNL     1       0.769  13.121  20.594  0.00  0.00    +0.000 A 
ATOM     27  C   UNL     1      -0.502  13.484  20.090  0.00  0.00    +0.000 A 
BRANCH  27  28
ATOM     28  N   UNL     1      -0.735  14.806  19.777  0.00  0.00    +0.000 N 
ATOM     29  C   UNL     1      -0.123  15.422  18.570  0.00  0.00    +0.000 C 
ATOM     30  C   UNL     1       0.595  16.720  18.976  0.00  0.00    +0.000 C 
ATOM     31  O   UNL     1      -0.298  17.631  19.637  0.00  0.00    +0.000 OA
ATOM     32  C   UNL     1      -0.877  17.019  20.805  0.00  0.00    +0.000 C 
ATOM     33  C   UNL     1      -1.660  15.742  20.436  0.00  0.00    +0.000 C 
ENDBRANCH  27  28
BRANCH  24  34
ATOM     34  C   UNL     1       0.343   9.579  21.843  0.00  0.00    +0.000 C 
ATOM     35  F   UNL     1       0.388   9.705  23.194  0.00  0.00    +0.000 F 
ATOM     36  F   UNL     1      -0.610   8.641  21.578  0.00  0.00    +0.000 F 
ATOM     37  F   UNL     1       1.530   9.027  21.471  0.00  0.00    +0.000 F 
ENDBRANCH  24  34
ENDBRANCH   3  22
TORSDOF 5
ENDMDL
MODEL 7
REMARK VINA RESULT:      -6.4      3.572      5.361
REMARK  Name = 
REMARK  5 active torsions:
REMARK  status: ('A' for Active; 'I' for Inactive)
REMARK    1  A    between atoms: C_2  and  C_20
REMARK    2  A    between atoms: N_3  and  C_4
REMARK    3  A    between atoms: C_6  and  C_7
REMARK    4  A    between atoms: C_13  and  N_14
REMARK    5  A    between atoms: N_22  and  C_23
REMARK                            x       y       z     vdW  Elec       q    Type
REMARK                         _______ _______ _______ _____ _____    ______ ____
ROOT
ATOM      1  O   UNL     1      -1.084  15.558  20.457  0.00  0.00    +0.000 OA
ATOM      2  C   UNL     1      -1.653  14.467  20.340  0.00  0.00    +0.000 C 
ATOM      3  N   UNL     1      -0.901  13.435  19.828  0.00  0.00    +0.000 N 
ATOM      4  H   UNL     1       0.052  13.737  19.696  0.00  0.00    +0.000 HD
ENDROOT
BRANCH   2   5
ATOM      5  C   UNL     1      -3.049  14.383  20.926  0.00  0.00    +0.000 A 
ATOM      6  N   UNL     1      -3.971  14.761  20.066  0.00  0.00    +0.000 NA
ATOM      7  N   UNL     1      -5.286  14.554  20.500  0.00  0.00    +0.000 N 
ATOM      8  C   UNL     1      -5.483  15.143  21.761  0.00  0.00    +0.000 A 
ATOM      9  O   UNL     1      -6.181  16.107  22.036  0.00  0.00    +0.000 OA
ATOM     10  C   UNL     1      -4.626  14.510  22.781  0.00  0.00    +0.000 A 
ATOM     11  C   UNL     1      -5.278  14.159  23.965  0.00  0.00    +0.000 A 
ATOM     12  C   UNL     1      -4.941  12.944  24.526  0.00  0.00    +0.000 A 
ATOM     13  C   UNL     1      -3.960  12.143  23.921  0.00  0.00    +0.000 A 
ATOM     14  C   UNL     1      -3.196  12.604  22.816  0.00  0.00    +0.000 A 
ATOM     15  C   UNL     1      -3.484  13.855  22.271  0.00  0.00    +0.000 A 
BRANCH   7  16
ATOM     16  C   UNL     1      -5.655  13.146  20.250  0.00  0.00    +0.000 A 
ATOM     17  C   UNL     1      -5.155  12.383  19.177  0.00  0.00    +0.000 A 
ATOM     18  C   UNL     1      -5.733  11.142  18.839  0.00  0.00    +0.000 A 
ATOM     19  C   UNL     1      -6.774  10.612  19.600  0.00  0.00    +0.000 A 
ATOM     20  C   UNL     1      -7.227  11.312  20.710  0.00  0.00    +0.000 A 
ATOM     21  C   UNL     1      -6.674  12.559  21.029  0.00  0.00    +0.000 A 
ENDBRANCH   7  16
ENDBRANCH   2   5
BRANCH   3  22
ATOM     22  C   UNL     1      -1.188  12.222  19.190  0.00  0.00    +0.000 A 
ATOM     23  C   UNL     1      -1.958  12.229  18.012  0.00  0.00    +0.000 A 
ATOM     24  C   UNL     1      -2.332  11.030  17.390  0.00  0.00    +0.000 A 
ATOM     25  C   UNL     1      -1.848   9.829  17.905  0.00  0.00    +0.000 A 
ATOM     26  C   UNL     1      -1.112   9.817  19.085  0.00  0.00    +0.000 A 
ATOM     27  C   UNL     1      -0.811  10.989  19.818  0.00  0.00    +0.000 A 
BRANCH  27  28
ATOM     28  N   UNL     1      -0.230  10.859  21.061  0.00  0.00    +0.000 N 
ATOM     29  C   UNL     1       1.191  10.444  21.198  0.00  0.00    +0.000 C 
ATOM     30  C   UNL     1       1.278   9.261  22.177  0.00  0.00    +0.000 C 
ATOM     31  O   UNL     1       0.699   9.587  23.451  0.00  0.00    +0.000 OA
ATOM     32  C   UNL     1      -0.677   9.982  23.299  0.00  0.00    +0.000 C 
ATOM     33  C   UNL     1      -0.807  11.207  22.370  0.00  0.00    +0.000 C 
ENDBRANCH  27  28
BRANCH  24  34
ATOM     34  C   UNL     1      -3.276  10.994  16.217  0.00  0.00    +0.000 C 
ATOM     35  F   UNL     1      -4.197  11.992  16.235  0.00  0.00    +0.000 F 
ATOM     36  F   UNL     1      -2.611  11.108  15.032  0.00  0.00    +0.000 F 
ATOM     37  F   UNL     1      -3.974   9.829  16.149  0.00  0.00    +0.000 F 
ENDBRANCH  24  34
ENDBRANCH   3  22
TORSDOF 5
ENDMDL
MODEL 8
REMARK VINA RESULT:      -6.4      3.544      4.693
REMARK  Name = 
REMARK  5 active torsions:
REMARK  status: ('A' for Active; 'I' for Inactive)
REMARK    1  A    between atoms: C_2  and  C_20
REMARK    2  A    between atoms: N_3  and  C_4
REMARK    3  A    between atoms: C_6  and  C_7
REMARK    4  A    between atoms: C_13  and  N_14
REMARK    5  A    between atoms: N_22  and  C_23
REMARK                            x       y       z     vdW  Elec       q    Type
REMARK                         _______ _______ _______ _____ _____    ______ ____
ROOT
ATOM      1  O   UNL     1      -4.994  12.594  19.156  0.00  0.00    +0.000 OA
ATOM      2  C   UNL     1      -4.100  12.722  20.001  0.00  0.00    +0.000 C 
ATOM      3  N   UNL     1      -2.806  12.624  19.543  0.00  0.00    +0.000 N 
ATOM      4  H   UNL     1      -2.803  12.532  18.539  0.00  0.00    +0.000 HD
ENDROOT
BRANCH   2   5
ATOM      5  C   UNL     1      -4.556  13.127  21.389  0.00  0.00    +0.000 A 
ATOM      6  N   UNL     1      -4.212  12.243  22.301  0.00  0.00    +0.000 NA
ATOM      7  N   UNL     1      -4.468  12.643  23.618  0.00  0.00    +0.000 N 
ATOM      8  C   UNL     1      -5.811  13.035  23.758  0.00  0.00    +0.000 A 
ATOM      9  O   UNL     1      -6.692  12.474  24.393  0.00  0.00    +0.000 OA
ATOM     10  C   UNL     1      -6.108  14.214  22.923  0.00  0.00    +0.000 A 
ATOM     11  C   UNL     1      -6.794  15.241  23.574  0.00  0.00    +0.000 A 
ATOM     12  C   UNL     1      -6.390  16.532  23.300  0.00  0.00    +0.000 A 
ATOM     13  C   UNL     1      -5.356  16.760  22.379  0.00  0.00    +0.000 A 
ATOM     14  C   UNL     1      -4.796  15.707  21.609  0.00  0.00    +0.000 A 
ATOM     15  C   UNL     1      -5.233  14.401  21.831  0.00  0.00    +0.000 A 
BRANCH   7  16
ATOM     16  C   UNL     1      -3.368  13.515  24.075  0.00  0.00    +0.000 A 
ATOM     17  C   UNL     1      -3.544  14.615  24.936  0.00  0.00    +0.000 A 
ATOM     18  C   UNL     1      -2.513  15.557  25.129  0.00  0.00    +0.000 A 
ATOM     19  C   UNL     1      -1.271  15.387  24.518  0.00  0.00    +0.000 A 
ATOM     20  C   UNL     1      -1.051  14.267  23.728  0.00  0.00    +0.000 A 
ATOM     21  C   UNL     1      -2.085  13.346  23.512  0.00  0.00    +0.000 A 
ENDBRANCH   7  16
ENDBRANCH   2   5
BRANCH   3  22
ATOM     22  C   UNL     1      -1.569  12.328  20.129  0.00  0.00    +0.000 A 
ATOM     23  C   UNL     1      -1.385  11.083  20.757  0.00  0.00    +0.000 A 
ATOM     24  C   UNL     1      -0.189  10.782  21.422  0.00  0.00    +0.000 A 
ATOM     25  C   UNL     1       0.857  11.702  21.369  0.00  0.00    +0.000 A 
ATOM     26  C   UNL     1       0.667  12.945  20.774  0.00  0.00    +0.000 A 
ATOM     27  C   UNL     1      -0.560  13.345  20.197  0.00  0.00    +0.000 A 
BRANCH  27  28
ATOM     28  N   UNL     1      -0.703  14.654  19.790  0.00  0.00    +0.000 N 
ATOM     29  C   UNL     1      -0.153  15.111  18.487  0.00  0.00    +0.000 C 
ATOM     30  C   UNL     1       0.711  16.362  18.715  0.00  0.00    +0.000 C 
ATOM     31  O   UNL     1      -0.031  17.405  19.368  0.00  0.00    +0.000 OA
ATOM     32  C   UNL     1      -0.551  16.946  20.630  0.00  0.00    +0.000 C 
ATOM     33  C   UNL     1      -1.476  15.725  20.442  0.00  0.00    +0.000 C 
ENDBRANCH  27  28
BRANCH  24  34
ATOM     34  C   UNL     1      -0.013   9.523  22.228  0.00  0.00    +0.000 C 
ATOM     35  F   UNL     1       1.274   9.092  22.284  0.00  0.00    +0.000 F 
ATOM     36  F   UNL     1      -0.417   9.690  23.520  0.00  0.00    +0.000 F 
ATOM     37  F   UNL     1      -0.742   8.485  21.736  0.00  0.00    +0.000 F 
ENDBRANCH  24  34
ENDBRANCH   3  22
TORSDOF 5
ENDMDL
MODEL 9
REMARK VINA RESULT:      -6.4      3.630      6.540
REMARK  Name = 
REMARK  5 active torsions:
REMARK  status: ('A' for Active; 'I' for Inactive)
REMARK    1  A    between atoms: C_2  and  C_20
REMARK    2  A    between atoms: N_3  and  C_4
REMARK    3  A    between atoms: C_6  and  C_7
REMARK    4  A    between atoms: C_13  and  N_14
REMARK    5  A    between atoms: N_22  and  C_23
REMARK                            x       y       z     vdW  Elec       q    Type
REMARK                         _______ _______ _______ _____ _____    ______ ____
ROOT
ATOM      1  O   UNL     1       0.180  15.091  18.325  0.00  0.00    +0.000 OA
ATOM      2  C   UNL     1      -0.291  14.415  19.247  0.00  0.00    +0.000 C 
ATOM      3  N   UNL     1      -0.957  15.105  20.235  0.00  0.00    +0.000 N 
ATOM      4  H   UNL     1      -1.012  16.082  19.993  0.00  0.00    +0.000 HD
ENDROOT
BRANCH   2   5
ATOM      5  C   UNL     1      -0.206  12.911  19.074  0.00  0.00    +0.000 A 
ATOM      6  N   UNL     1       0.898  12.415  19.589  0.00  0.00    +0.000 NA
ATOM      7  N   UNL     1       0.953  11.015  19.598  0.00  0.00    +0.000 N 
ATOM      8  C   UNL     1       0.710  10.508  18.309  0.00  0.00    +0.000 A 
ATOM      9  O   UNL     1       1.497   9.936  17.569  0.00  0.00    +0.000 OA
ATOM     10  C   UNL     1      -0.652  10.847  17.855  0.00  0.00    +0.000 A 
ATOM     11  C   UNL     1      -1.375   9.783  17.312  0.00  0.00    +0.000 A 
ATOM     12  C   UNL     1      -2.709   9.695  17.656  0.00  0.00    +0.000 A 
ATOM     13  C   UNL     1      -3.281  10.669  18.490  0.00  0.00    +0.000 A 
ATOM     14  C   UNL     1      -2.563  11.828  18.885  0.00  0.00    +0.000 A 
ATOM     15  C   UNL     1      -1.230  11.962  18.498  0.00  0.00    +0.000 A 
BRANCH   7  16
ATOM     16  C   UNL     1       0.204  10.516  20.768  0.00  0.00    +0.000 A 
ATOM     17  C   UNL     1      -0.242  11.335  21.822  0.00  0.00    +0.000 A 
ATOM     18  C   UNL     1      -0.719  10.774  23.025  0.00  0.00    +0.000 A 
ATOM     19  C   UNL     1      -0.818   9.391  23.173  0.00  0.00    +0.000 A 
ATOM     20  C   UNL     1      -0.459   8.568  22.115  0.00  0.00    +0.000 A 
ATOM     21  C   UNL     1       0.044   9.123  20.931  0.00  0.00    +0.000 A 
ENDBRANCH   7  16
ENDBRANCH   2   5
BRANCH   3  22
ATOM     22  C   UNL     1      -1.289  14.846  21.570  0.00  0.00    +0.000 A 
ATOM     23  C   UNL     1      -2.384  14.011  21.857  0.00  0.00    +0.000 A 
ATOM     24  C   UNL     1      -2.795  13.793  23.180  0.00  0.00    +0.000 A 
ATOM     25  C   UNL     1      -2.039  14.341  24.214  0.00  0.00    +0.000 A 
ATOM     26  C   UNL     1      -0.974  15.190  23.932  0.00  0.00    +0.000 A 
ATOM     27  C   UNL     1      -0.595  15.540  22.615  0.00  0.00    +0.000 A 
BRANCH  27  28
ATOM     28  N   UNL     1       0.357  16.521  22.441  0.00  0.00    +0.000 N 
ATOM     29  C   UNL     1       1.766  16.167  22.126  0.00  0.00    +0.000 C 
ATOM     30  C   UNL     1       2.699  16.885  23.114  0.00  0.00    +0.000 C 
ATOM     31  O   UNL     1       2.497  18.307  23.094  0.00  0.00    +0.000 OA
ATOM     32  C   UNL     1       1.129  18.631  23.407  0.00  0.00    +0.000 C 
ATOM     33  C   UNL     1       0.157  17.979  22.400  0.00  0.00    +0.000 C 
ENDBRANCH  27  28
BRANCH  24  34
ATOM     34  C   UNL     1      -4.048  13.029  23.516  0.00  0.00    +0.000 C 
ATOM     35  F   UNL     1      -3.824  11.940  24.297  0.00  0.00    +0.000 F 
ATOM     36  F   UNL     1      -4.946  13.803  24.187  0.00  0.00    +0.000 F 
ATOM     37  F   UNL     1      -4.693  12.577  22.407  0.00  0.00    +0.000 F 
ENDBRANCH  24  34
ENDBRANCH   3  22
TORSDOF 5
ENDMDL
