MODEL 1
REMARK VINA RESULT:      -6.6      0.000      0.000
REMARK  Name = 
REMARK  6 active torsions:
REMARK  status: ('A' for Active; 'I' for Inactive)
REMARK    1  A    between atoms: C_1  and  C_2
REMARK    2  A    between atoms: C_2  and  N_3
REMARK    3  A    between atoms: C_5  and  C_6
REMARK    4  A    between atoms: C_7  and  N_8
REMARK    5  A    between atoms: C_9  and  C_11
REMARK    6  A    between atoms: C_19  and  C_20
REMARK                            x       y       z     vdW  Elec       q    Type
REMARK                         _______ _______ _______ _____ _____    ______ ____
ROOT
ATOM      1  N   UNL     1       3.718   4.518  16.979  0.00  0.00    +0.000 N 
ATOM      2  C   UNL     1       5.086   4.363  17.021  0.00  0.00    +0.000 C 
ATOM      3  O   UNL     1       5.707   4.025  18.025  0.00  0.00    +0.000 OA
ATOM      4  H   UNL     1       3.246   4.412  16.090  0.00  0.00    +0.000 HD
ENDROOT
BRANCH   2   5
ATOM      5  C   UNL     1       5.869   4.594  15.765  0.00  0.00    +0.000 A 
ATOM      6  C   UNL     1       5.439   3.835  14.656  0.00  0.00    +0.000 A 
ATOM      7  C   UNL     1       6.098   3.912  13.433  0.00  0.00    +0.000 A 
ATOM      8 BR   UNL     1       5.502   2.865  11.977  0.00  0.00    +0.000 Br
ATOM      9  C   UNL     1       7.206   4.738  13.287  0.00  0.00    +0.000 A 
ATOM     10  C   UNL     1       7.632   5.512  14.368  0.00  0.00    +0.000 A 
ATOM     11  C   UNL     1       6.968   5.450  15.605  0.00  0.00    +0.000 A 
ATOM     12 CL   UNL     1       7.574   6.498  16.839  0.00  0.00    +0.000 Cl
ENDBRANCH   2   5
BRANCH   1  17
ATOM     13  N   UNL     1       1.641   3.746  19.722  0.00  0.00    +0.000 N 
ATOM     14  N   UNL     1       1.663   5.073  19.916  0.00  0.00    +0.000 NA
ATOM     15  C   UNL     1       2.458   5.544  18.946  0.00  0.00    +0.000 A 
ATOM     16  C   UNL     1       2.631   7.011  18.798  0.00  0.00    +0.000 C 
ATOM     17  C   UNL     1       2.927   4.490  18.111  0.00  0.00    +0.000 A 
ATOM     18  C   UNL     1       2.387   3.335  18.645  0.00  0.00    +0.000 A 
ATOM     19  C   UNL     1       2.583   1.910  18.280  0.00  0.00    +0.000 C 
BRANCH  13  21
ATOM     20  C   UNL     1       1.617   2.543  21.878  0.00  0.00    +0.000 C 
ATOM     21  C   UNL     1       0.850   2.933  20.628  0.00  0.00    +0.000 C 
ENDBRANCH  13  21
ENDBRANCH   1  17
TORSDOF 3
ENDMDL
MODEL 2
REMARK VINA RESULT:      -6.3      3.417      6.984
REMARK  Name = 
REMARK  6 active torsions:
REMARK  status: ('A' for Active; 'I' for Inactive)
REMARK    1  A    between atoms: C_1  and  C_2
REMARK    2  A    between atoms: C_2  and  N_3
REMARK    3  A    between atoms: C_5  and  C_6
REMARK    4  A    between atoms: C_7  and  N_8
REMARK    5  A    between atoms: C_9  and  C_11
REMARK    6  A    between atoms: C_19  and  C_20
REMARK                            x       y       z     vdW  Elec       q    Type
REMARK                         _______ _______ _______ _____ _____    ______ ____
ROOT
ATOM      1  N   UNL     1       4.675   5.395  17.256  0.00  0.00    +0.000 N 
ATOM      2  C   UNL     1       4.641   4.572  18.360  0.00  0.00    +0.000 C 
ATOM      3  O   UNL     1       5.611   3.945  18.776  0.00  0.00    +0.000 OA
ATOM      4  H   UNL     1       4.003   6.151  17.196  0.00  0.00    +0.000 HD
ENDROOT
BRANCH   2   5
ATOM      5  C   UNL     1       3.356   4.447  19.119  0.00  0.00    +0.000 A 
ATOM      6  C   UNL     1       2.877   5.656  19.667  0.00  0.00    +0.000 A 
ATOM      7  C   UNL     1       1.717   5.687  20.434  0.00  0.00    +0.000 A 
ATOM      8 BR   UNL     1       1.119   7.323  21.167  0.00  0.00    +0.000 Br
ATOM      9  C   UNL     1       1.011   4.516  20.681  0.00  0.00    +0.000 A 
ATOM     10  C   UNL     1       1.459   3.315  20.130  0.00  0.00    +0.000 A 
ATOM     11  C   UNL     1       2.624   3.273  19.345  0.00  0.00    +0.000 A 
ATOM     12 CL   UNL     1       3.033   1.728  18.686  0.00  0.00    +0.000 Cl
ENDBRANCH   2   5
BRANCH   1  17
ATOM     13  N   UNL     1       7.046   5.082  14.665  0.00  0.00    +0.000 N 
ATOM     14  N   UNL     1       7.799   5.847  15.470  0.00  0.00    +0.000 NA
ATOM     15  C   UNL     1       7.018   6.095  16.530  0.00  0.00    +0.000 A 
ATOM     16  C   UNL     1       7.576   6.847  17.681  0.00  0.00    +0.000 C 
ATOM     17  C   UNL     1       5.755   5.453  16.397  0.00  0.00    +0.000 A 
ATOM     18  C   UNL     1       5.799   4.810  15.173  0.00  0.00    +0.000 A 
ATOM     19  C   UNL     1       4.760   4.053  14.433  0.00  0.00    +0.000 C 
BRANCH  13  21
ATOM     20  C   UNL     1       8.214   5.776  12.604  0.00  0.00    +0.000 C 
ATOM     21  C   UNL     1       7.620   4.634  13.409  0.00  0.00    +0.000 C 
ENDBRANCH  13  21
ENDBRANCH   1  17
TORSDOF 3
ENDMDL
MODEL 3
REMARK VINA RESULT:      -6.2      4.346      7.392
REMARK  Name = 
REMARK  6 active torsions:
REMARK  status: ('A' for Active; 'I' for Inactive)
REMARK    1  A    between atoms: C_1  and  C_2
REMARK    2  A    between atoms: C_2  and  N_3
REMARK    3  A    between atoms: C_5  and  C_6
REMARK    4  A    between atoms: C_7  and  N_8
REMARK    5  A    between atoms: C_9  and  C_11
REMARK    6  A    between atoms: C_19  and  C_20
REMARK                            x       y       z     vdW  Elec       q    Type
REMARK                         _______ _______ _______ _____ _____    ______ ____
ROOT
ATOM      1  N   UNL     1       2.972   7.113  18.231  0.00  0.00    +0.000 N 
ATOM      2  C   UNL     1       2.368   7.160  19.468  0.00  0.00    +0.000 C 
ATOM      3  O   UNL     1       2.424   6.251  20.292  0.00  0.00    +0.000 OA
ATOM      4  H   UNL     1       3.220   7.985  17.780  0.00  0.00    +0.000 HD
ENDROOT
BRANCH   2   5
ATOM      5  C   UNL     1       1.619   8.399  19.850  0.00  0.00    +0.000 A 
ATOM      6  C   UNL     1       1.116   8.400  21.168  0.00  0.00    +0.000 A 
ATOM      7  C   UNL     1       0.363   9.465  21.650  0.00  0.00    +0.000 A 
ATOM      8 BR   UNL     1      -0.308   9.419  23.416  0.00  0.00    +0.000 Br
ATOM      9  C   UNL     1       0.084  10.551  20.829  0.00  0.00    +0.000 A 
ATOM     10  C   UNL     1       0.591  10.577  19.529  0.00  0.00    +0.000 A 
ATOM     11  C   UNL     1       1.362   9.511  19.035  0.00  0.00    +0.000 A 
ATOM     12 CL   UNL     1       1.965   9.699  17.426  0.00  0.00    +0.000 Cl
ENDBRANCH   2   5
BRANCH   1  17
ATOM     13  N   UNL     1       4.988   4.609  16.781  0.00  0.00    +0.000 N 
ATOM     14  N   UNL     1       3.897   3.847  16.951  0.00  0.00    +0.000 NA
ATOM     15  C   UNL     1       3.006   4.658  17.539  0.00  0.00    +0.000 A 
ATOM     16  C   UNL     1       1.630   4.162  17.789  0.00  0.00    +0.000 C 
ATOM     17  C   UNL     1       3.543   5.964  17.719  0.00  0.00    +0.000 A 
ATOM     18  C   UNL     1       4.833   5.899  17.226  0.00  0.00    +0.000 A 
ATOM     19  C   UNL     1       5.924   6.905  17.219  0.00  0.00    +0.000 C 
BRANCH  13  21
ATOM     20  C   UNL     1       6.049   3.987  14.641  0.00  0.00    +0.000 C 
ATOM     21  C   UNL     1       6.152   4.010  16.155  0.00  0.00    +0.000 C 
ENDBRANCH  13  21
ENDBRANCH   1  17
TORSDOF 3
ENDMDL
MODEL 4
REMARK VINA RESULT:      -6.2      1.209      1.271
REMARK  Name = 
REMARK  6 active torsions:
REMARK  status: ('A' for Active; 'I' for Inactive)
REMARK    1  A    between atoms: C_1  and  C_2
REMARK    2  A    between atoms: C_2  and  N_3
REMARK    3  A    between atoms: C_5  and  C_6
REMARK    4  A    between atoms: C_7  and  N_8
REMARK    5  A    between atoms: C_9  and  C_11
REMARK    6  A    between atoms: C_19  and  C_20
REMARK                            x       y       z     vdW  Elec       q    Type
REMARK                         _______ _______ _______ _____ _____    ______ ____
ROOT
ATOM      1  N   UNL     1       4.562   5.406  17.800  0.00  0.00    +0.000 N 
ATOM      2  C   UNL     1       4.437   4.594  16.694  0.00  0.00    +0.000 C 
ATOM      3  O   UNL     1       3.498   3.825  16.512  0.00  0.00    +0.000 OA
ATOM      4  H   UNL     1       5.106   6.255  17.717  0.00  0.00    +0.000 HD
ENDROOT
BRANCH   2   5
ATOM      5  C   UNL     1       5.492   4.666  15.633  0.00  0.00    +0.000 A 
ATOM      6  C   UNL     1       5.182   3.967  14.447  0.00  0.00    +0.000 A 
ATOM      7  C   UNL     1       6.084   3.908  13.391  0.00  0.00    +0.000 A 
ATOM      8 BR   UNL     1       5.638   2.945  11.827  0.00  0.00    +0.000 Br
ATOM      9  C   UNL     1       7.319   4.536  13.491  0.00  0.00    +0.000 A 
ATOM     10  C   UNL     1       7.635   5.250  14.648  0.00  0.00    +0.000 A 
ATOM     11  C   UNL     1       6.727   5.324  15.718  0.00  0.00    +0.000 A 
ATOM     12 CL   UNL     1       7.229   6.282  17.067  0.00  0.00    +0.000 Cl
ENDBRANCH   2   5
BRANCH   1  17
ATOM     13  N   UNL     1       2.728   4.467  20.662  0.00  0.00    +0.000 N 
ATOM     14  N   UNL     1       2.155   5.669  20.501  0.00  0.00    +0.000 NA
ATOM     15  C   UNL     1       2.773   6.199  19.436  0.00  0.00    +0.000 A 
ATOM     16  C   UNL     1       2.313   7.508  18.909  0.00  0.00    +0.000 C 
ATOM     17  C   UNL     1       3.739   5.299  18.904  0.00  0.00    +0.000 A 
ATOM     18  C   UNL     1       3.693   4.188  19.726  0.00  0.00    +0.000 A 
ATOM     19  C   UNL     1       4.522   2.957  19.745  0.00  0.00    +0.000 C 
BRANCH  13  21
ATOM     20  C   UNL     1       1.179   2.662  21.323  0.00  0.00    +0.000 C 
ATOM     21  C   UNL     1       2.268   3.629  21.753  0.00  0.00    +0.000 C 
ENDBRANCH  13  21
ENDBRANCH   1  17
TORSDOF 3
ENDMDL
MODEL 5
REMARK VINA RESULT:      -6.0      4.776      6.929
REMARK  Name = 
REMARK  6 active torsions:
REMARK  status: ('A' for Active; 'I' for Inactive)
REMARK    1  A    between atoms: C_1  and  C_2
REMARK    2  A    between atoms: C_2  and  N_3
REMARK    3  A    between atoms: C_5  and  C_6
REMARK    4  A    between atoms: C_7  and  N_8
REMARK    5  A    between atoms: C_9  and  C_11
REMARK    6  A    between atoms: C_19  and  C_20
REMARK                            x       y       z     vdW  Elec       q    Type
REMARK                         _______ _______ _______ _____ _____    ______ ____
ROOT
ATOM      1  N   UNL     1       3.066   6.746  18.869  0.00  0.00    +0.000 N 
ATOM      2  C   UNL     1       2.177   6.946  19.901  0.00  0.00    +0.000 C 
ATOM      3  O   UNL     1       1.919   6.102  20.756  0.00  0.00    +0.000 OA
ATOM      4  H   UNL     1       3.515   7.553  18.454  0.00  0.00    +0.000 HD
ENDROOT
BRANCH   2   5
ATOM      5  C   UNL     1       1.498   8.276  20.012  0.00  0.00    +0.000 A 
ATOM      6  C   UNL     1       0.904   8.531  21.266  0.00  0.00    +0.000 A 
ATOM      7  C   UNL     1       0.201   9.707  21.502  0.00  0.00    +0.000 A 
ATOM      8 BR   UNL     1      -0.597  10.003  23.190  0.00  0.00    +0.000 Br
ATOM      9  C   UNL     1       0.064  10.654  20.494  0.00  0.00    +0.000 A 
ATOM     10  C   UNL     1       0.662  10.428  19.254  0.00  0.00    +0.000 A 
ATOM     11  C   UNL     1       1.384   9.248  19.007  0.00  0.00    +0.000 A 
ATOM     12 CL   UNL     1       2.112   9.123  17.444  0.00  0.00    +0.000 Cl
ENDBRANCH   2   5
BRANCH   1  17
ATOM     13  N   UNL     1       3.790   3.405  18.005  0.00  0.00    +0.000 N 
ATOM     14  N   UNL     1       5.037   3.743  18.365  0.00  0.00    +0.000 NA
ATOM     15  C   UNL     1       4.952   5.035  18.709  0.00  0.00    +0.000 A 
ATOM     16  C   UNL     1       6.148   5.720  19.259  0.00  0.00    +0.000 C 
ATOM     17  C   UNL     1       3.616   5.512  18.582  0.00  0.00    +0.000 A 
ATOM     18  C   UNL     1       2.888   4.433  18.116  0.00  0.00    +0.000 A 
ATOM     19  C   UNL     1       1.467   4.325  17.699  0.00  0.00    +0.000 C 
BRANCH  13  21
ATOM     20  C   UNL     1       3.621   1.048  18.720  0.00  0.00    +0.000 C 
ATOM     21  C   UNL     1       3.547   2.040  17.574  0.00  0.00    +0.000 C 
ENDBRANCH  13  21
ENDBRANCH   1  17
TORSDOF 3
ENDMDL
MODEL 6
REMARK VINA RESULT:      -6.0      5.582      8.035
REMARK  Name = 
REMARK  6 active torsions:
REMARK  status: ('A' for Active; 'I' for Inactive)
REMARK    1  A    between atoms: C_1  and  C_2
REMARK    2  A    between atoms: C_2  and  N_3
REMARK    3  A    between atoms: C_5  and  C_6
REMARK    4  A    between atoms: C_7  and  N_8
REMARK    5  A    between atoms: C_9  and  C_11
REMARK    6  A    between atoms: C_19  and  C_20
REMARK                            x       y       z     vdW  Elec       q    Type
REMARK                         _______ _______ _______ _____ _____    ______ ____
ROOT
ATOM      1  N   UNL     1       0.655   9.291  20.263  0.00  0.00    +0.000 N 
ATOM      2  C   UNL     1       1.506   8.371  20.832  0.00  0.00    +0.000 C 
ATOM      3  O   UNL     1       2.006   8.498  21.947  0.00  0.00    +0.000 OA
ATOM      4  H   UNL     1      -0.003   8.973  19.562  0.00  0.00    +0.000 HD
ENDROOT
BRANCH   2   5
ATOM      5  C   UNL     1       1.828   7.125  20.065  0.00  0.00    +0.000 A 
ATOM      6  C   UNL     1       1.577   5.924  20.761  0.00  0.00    +0.000 A 
ATOM      7  C   UNL     1       1.867   4.689  20.191  0.00  0.00    +0.000 A 
ATOM      8 BR   UNL     1       1.533   3.104  21.164  0.00  0.00    +0.000 Br
ATOM      9  C   UNL     1       2.423   4.620  18.920  0.00  0.00    +0.000 A 
ATOM     10  C   UNL     1       2.659   5.797  18.208  0.00  0.00    +0.000 A 
ATOM     11  C   UNL     1       2.360   7.050  18.770  0.00  0.00    +0.000 A 
ATOM     12 CL   UNL     1       2.658   8.419  17.758  0.00  0.00    +0.000 Cl
ENDBRANCH   2   5
BRANCH   1  17
ATOM     13  N   UNL     1       0.479  12.707  21.119  0.00  0.00    +0.000 N 
ATOM     14  N   UNL     1      -0.188  12.248  22.188  0.00  0.00    +0.000 NA
ATOM     15  C   UNL     1      -0.243  10.921  22.008  0.00  0.00    +0.000 A 
ATOM     16  C   UNL     1      -0.837  10.070  23.069  0.00  0.00    +0.000 C 
ATOM     17  C   UNL     1       0.425  10.538  20.811  0.00  0.00    +0.000 A 
ATOM     18  C   UNL     1       0.875  11.719  20.251  0.00  0.00    +0.000 A 
ATOM     19  C   UNL     1       1.556  11.988  18.960  0.00  0.00    +0.000 C 
BRANCH  13  21
ATOM     20  C   UNL     1       0.302  14.882  22.275  0.00  0.00    +0.000 C 
ATOM     21  C   UNL     1       0.710  14.137  21.016  0.00  0.00    +0.000 C 
ENDBRANCH  13  21
ENDBRANCH   1  17
TORSDOF 3
ENDMDL
MODEL 7
REMARK VINA RESULT:      -6.0      5.324      7.621
REMARK  Name = 
REMARK  6 active torsions:
REMARK  status: ('A' for Active; 'I' for Inactive)
REMARK    1  A    between atoms: C_1  and  C_2
REMARK    2  A    between atoms: C_2  and  N_3
REMARK    3  A    between atoms: C_5  and  C_6
REMARK    4  A    between atoms: C_7  and  N_8
REMARK    5  A    between atoms: C_9  and  C_11
REMARK    6  A    between atoms: C_19  and  C_20
REMARK                            x       y       z     vdW  Elec       q    Type
REMARK                         _______ _______ _______ _____ _____    ______ ____
ROOT
ATOM      1  N   UNL     1       0.837   9.497  19.224  0.00  0.00    +0.000 N 
ATOM      2  C   UNL     1       1.858   9.150  18.368  0.00  0.00    +0.000 C 
ATOM      3  O   UNL     1       2.276   9.876  17.470  0.00  0.00    +0.000 OA
ATOM      4  H   UNL     1       0.803   9.061  20.138  0.00  0.00    +0.000 HD
ENDROOT
BRANCH   2   5
ATOM      5  C   UNL     1       2.522   7.820  18.550  0.00  0.00    +0.000 A 
ATOM      6  C   UNL     1       3.402   7.454  17.509  0.00  0.00    +0.000 A 
ATOM      7  C   UNL     1       4.058   6.227  17.520  0.00  0.00    +0.000 A 
ATOM      8 BR   UNL     1       5.213   5.767  16.097  0.00  0.00    +0.000 Br
ATOM      9  C   UNL     1       3.847   5.332  18.562  0.00  0.00    +0.000 A 
ATOM     10  C   UNL     1       2.997   5.686  19.610  0.00  0.00    +0.000 A 
ATOM     11  C   UNL     1       2.337   6.926  19.615  0.00  0.00    +0.000 A 
ATOM     12 CL   UNL     1       1.354   7.251  20.999  0.00  0.00    +0.000 Cl
ENDBRANCH   2   5
BRANCH   1  17
ATOM     13  N   UNL     1      -0.771  12.634  19.297  0.00  0.00    +0.000 N 
ATOM     14  N   UNL     1      -1.563  12.078  18.368  0.00  0.00    +0.000 NA
ATOM     15  C   UNL     1      -1.062  10.848  18.188  0.00  0.00    +0.000 A 
ATOM     16  C   UNL     1      -1.765   9.905  17.283  0.00  0.00    +0.000 C 
ATOM     17  C   UNL     1       0.055  10.620  19.041  0.00  0.00    +0.000 A 
ATOM     18  C   UNL     1       0.225  11.800  19.742  0.00  0.00    +0.000 A 
ATOM     19  C   UNL     1       1.273  12.216  20.707  0.00  0.00    +0.000 C 
BRANCH  13  21
ATOM     20  C   UNL     1      -0.264  15.023  18.938  0.00  0.00    +0.000 C 
ATOM     21  C   UNL     1      -1.058  13.992  19.720  0.00  0.00    +0.000 C 
ENDBRANCH  13  21
ENDBRANCH   1  17
TORSDOF 3
ENDMDL
MODEL 8
REMARK VINA RESULT:      -6.0      4.622      7.064
REMARK  Name = 
REMARK  6 active torsions:
REMARK  status: ('A' for Active; 'I' for Inactive)
REMARK    1  A    between atoms: C_1  and  C_2
REMARK    2  A    between atoms: C_2  and  N_3
REMARK    3  A    between atoms: C_5  and  C_6
REMARK    4  A    between atoms: C_7  and  N_8
REMARK    5  A    between atoms: C_9  and  C_11
REMARK    6  A    between atoms: C_19  and  C_20
REMARK                            x       y       z     vdW  Elec       q    Type
REMARK                         _______ _______ _______ _____ _____    ______ ____
ROOT
ATOM      1  N   UNL     1       2.513   7.277  19.753  0.00  0.00    +0.000 N 
ATOM      2  C   UNL     1       1.820   8.106  18.899  0.00  0.00    +0.000 C 
ATOM      3  O   UNL     1       1.547   7.819  17.737  0.00  0.00    +0.000 OA
ATOM      4  H   UNL     1       2.371   7.382  20.750  0.00  0.00    +0.000 HD
ENDROOT
BRANCH   2   5
ATOM      5  C   UNL     1       1.343   9.428  19.418  0.00  0.00    +0.000 A 
ATOM      6  C   UNL     1       1.820  10.547  18.704  0.00  0.00    +0.000 A 
ATOM      7  C   UNL     1       1.497  11.841  19.096  0.00  0.00    +0.000 A 
ATOM      8 BR   UNL     1       2.173  13.315  18.123  0.00  0.00    +0.000 Br
ATOM      9  C   UNL     1       0.698  12.054  20.213  0.00  0.00    +0.000 A 
ATOM     10  C   UNL     1       0.199  10.959  20.919  0.00  0.00    +0.000 A 
ATOM     11  C   UNL     1       0.511   9.646  20.526  0.00  0.00    +0.000 A 
ATOM     12 CL   UNL     1      -0.214   8.387  21.462  0.00  0.00    +0.000 Cl
ENDBRANCH   2   5
BRANCH   1  17
ATOM     13  N   UNL     1       3.744   4.016  19.224  0.00  0.00    +0.000 N 
ATOM     14  N   UNL     1       4.486   4.614  18.279  0.00  0.00    +0.000 NA
ATOM     15  C   UNL     1       4.114   5.901  18.322  0.00  0.00    +0.000 A 
ATOM     16  C   UNL     1       4.815   6.886  17.461  0.00  0.00    +0.000 C 
ATOM     17  C   UNL     1       3.134   6.118  19.331  0.00  0.00    +0.000 A 
ATOM     18  C   UNL     1       2.908   4.875  19.893  0.00  0.00    +0.000 A 
ATOM     19  C   UNL     1       1.935   4.435  20.923  0.00  0.00    +0.000 C 
BRANCH  13  21
ATOM     20  C   UNL     1       3.291   1.762  18.323  0.00  0.00    +0.000 C 
ATOM     21  C   UNL     1       3.918   2.590  19.431  0.00  0.00    +0.000 C 
ENDBRANCH  13  21
ENDBRANCH   1  17
TORSDOF 3
ENDMDL
MODEL 9
REMARK VINA RESULT:      -5.9      3.777      6.971
REMARK  Name = 
REMARK  6 active torsions:
REMARK  status: ('A' for Active; 'I' for Inactive)
REMARK    1  A    between atoms: C_1  and  C_2
REMARK    2  A    between atoms: C_2  and  N_3
REMARK    3  A    between atoms: C_5  and  C_6
REMARK    4  A    between atoms: C_7  and  N_8
REMARK    5  A    between atoms: C_9  and  C_11
REMARK    6  A    between atoms: C_19  and  C_20
REMARK                            x       y       z     vdW  Elec       q    Type
REMARK                         _______ _______ _______ _____ _____    ______ ____
ROOT
ATOM      1  N   UNL     1       5.057   6.370  17.896  0.00  0.00    +0.000 N 
ATOM      2  C   UNL     1       3.794   5.865  18.113  0.00  0.00    +0.000 C 
ATOM      3  O   UNL     1       3.406   4.782  17.684  0.00  0.00    +0.000 OA
ATOM      4  H   UNL     1       5.434   7.033  18.561  0.00  0.00    +0.000 HD
ENDROOT
BRANCH   2   5
ATOM      5  C   UNL     1       2.838   6.666  18.943  0.00  0.00    +0.000 A 
ATOM      6  C   UNL     1       2.545   7.948  18.430  0.00  0.00    +0.000 A 
ATOM      7  C   UNL     1       1.707   8.821  19.115  0.00  0.00    +0.000 A 
ATOM      8 BR   UNL     1       1.355  10.537  18.404  0.00  0.00    +0.000 Br
ATOM      9  C   UNL     1       1.148   8.445  20.330  0.00  0.00    +0.000 A 
ATOM     10  C   UNL     1       1.410   7.173  20.842  0.00  0.00    +0.000 A 
ATOM     11  C   UNL     1       2.247   6.278  20.154  0.00  0.00    +0.000 A 
ATOM     12 CL   UNL     1       2.444   4.721  20.879  0.00  0.00    +0.000 Cl
ENDBRANCH   2   5
BRANCH   1  17
ATOM     13  N   UNL     1       6.872   5.110  15.148  0.00  0.00    +0.000 N 
ATOM     14  N   UNL     1       7.681   4.624  16.101  0.00  0.00    +0.000 NA
ATOM     15  C   UNL     1       7.140   5.045  17.252  0.00  0.00    +0.000 A 
ATOM     16  C   UNL     1       7.734   4.602  18.537  0.00  0.00    +0.000 C 
ATOM     17  C   UNL     1       5.952   5.794  17.016  0.00  0.00    +0.000 A 
ATOM     18  C   UNL     1       5.809   5.826  15.641  0.00  0.00    +0.000 A 
ATOM     19  C   UNL     1       4.825   6.528  14.781  0.00  0.00    +0.000 C 
BRANCH  13  21
ATOM     20  C   UNL     1       6.314   3.727  13.180  0.00  0.00    +0.000 C 
ATOM     21  C   UNL     1       7.192   4.820  13.762  0.00  0.00    +0.000 C 
ENDBRANCH  13  21
ENDBRANCH   1  17
TORSDOF 3
ENDMDL
