MODEL 1
REMARK VINA RESULT:      -8.1      0.000      0.000
REMARK  Name = 
REMARK  5 active torsions:
REMARK  status: ('A' for Active; 'I' for Inactive)
REMARK    1  A    between atoms: C_2  and  O_3
REMARK    2  A    between atoms: C_2  and  C_4
REMARK    3  A    between atoms: C_5  and  C_6
REMARK    4  A    between atoms: N_23  and  C_24
REMARK    5  A    between atoms: C_24  and  C_25
REMARK                            x       y       z     vdW  Elec       q    Type
REMARK                         _______ _______ _______ _____ _____    ______ ____
ROOT
ATOM      1  C   UNL     1       0.145  11.384  19.967  0.00  0.00    +0.000 A 
ATOM      2  C   UNL     1      -1.210  11.716  20.094  0.00  0.00    +0.000 A 
ATOM      3  C   UNL     1      -1.854  11.188  18.952  0.00  0.00    +0.000 A 
ATOM      4  C   UNL     1      -3.174  11.300  18.584  0.00  0.00    +0.000 A 
ATOM      5  O   UNL     1      -4.086  11.972  19.268  0.00  0.00    +0.000 OA
ATOM      6  C   UNL     1      -5.241  11.871  18.541  0.00  0.00    +0.000 A 
ATOM      7  C   UNL     1      -5.036  11.120  17.400  0.00  0.00    +0.000 A 
ATOM      8  C   UNL     1      -3.675  10.731  17.430  0.00  0.00    +0.000 A 
ATOM      9  C   UNL     1      -2.776   9.982  16.649  0.00  0.00    +0.000 A 
ATOM     10  F   UNL     1      -3.202   9.385  15.527  0.00  0.00    +0.000 F 
ATOM     11  C   UNL     1      -1.412   9.842  17.011  0.00  0.00    +0.000 A 
ATOM     12  C   UNL     1      -0.954  10.489  18.173  0.00  0.00    +0.000 A 
ATOM     13  N   UNL     1       0.277  10.635  18.787  0.00  0.00    +0.000 N 
ENDROOT
BRANCH   2  14
ATOM     14  C   UNL     1      -1.785  12.470  21.170  0.00  0.00    +0.000 A 
ATOM     15  C   UNL     1      -2.269  11.904  22.291  0.00  0.00    +0.000 A 
ATOM     16  C   UNL     1      -2.864  12.688  23.351  0.00  0.00    +0.000 A 
ATOM     17  C   UNL     1      -2.951  14.016  23.223  0.00  0.00    +0.000 A 
ATOM     18  N   UNL     1      -2.475  14.633  22.101  0.00  0.00    +0.000 N 
ATOM     19  C   UNL     1      -1.875  13.972  21.047  0.00  0.00    +0.000 A 
ATOM     20  O   UNL     1      -1.438  14.583  20.076  0.00  0.00    +0.000 OA
ATOM     21  H   UNL     1      -2.529  15.642  22.006  0.00  0.00    +0.000 HD
ENDBRANCH   2  14
BRANCH   1  23
ATOM     22  O   UNL     1       1.933  12.652  20.886  0.00  0.00    +0.000 OA
ATOM     23  C   UNL     1       1.191  11.681  20.930  0.00  0.00    +0.000 C 
BRANCH  23  24
ATOM     24  O   UNL     1       1.290  10.758  21.913  0.00  0.00    +0.000 OA
ATOM     25  H   UNL     1       1.131  11.115  22.803  0.00  0.00    +0.000 HD
ENDBRANCH  23  24
ENDBRANCH   1  23
BRANCH  13  26
ATOM     26  C   UNL     1       1.518  10.112  18.205  0.00  0.00    +0.000 C 
BRANCH  26  27
ATOM     27  C   UNL     1       1.931   8.745  18.685  0.00  0.00    +0.000 A 
ATOM     28  C   UNL     1       1.503   8.224  19.917  0.00  0.00    +0.000 A 
ATOM     29  C   UNL     1       1.824   6.891  20.183  0.00  0.00    +0.000 A 
ATOM     30  N   UNL     1       1.560   6.079  21.257  0.00  0.00    +0.000 N 
ATOM     31  C   UNL     1       2.045   4.835  20.973  0.00  0.00    +0.000 A 
ATOM     32  N   UNL     1       2.644   4.803  19.805  0.00  0.00    +0.000 NA
ATOM     33  C   UNL     1       2.526   6.075  19.302  0.00  0.00    +0.000 A 
ATOM     34  C   UNL     1       2.979   6.603  18.090  0.00  0.00    +0.000 A 
ATOM     35  C   UNL     1       2.667   7.933  17.806  0.00  0.00    +0.000 A 
ATOM     36  F   UNL     1       3.066   8.442  16.629  0.00  0.00    +0.000 F 
ATOM     37  H   UNL     1       1.077   6.350  22.101  0.00  0.00    +0.000 HD
ENDBRANCH  26  27
ENDBRANCH  13  26
TORSDOF 5
ENDMDL
MODEL 2
REMARK VINA RESULT:      -8.0      1.602      1.949
REMARK  Name = 
REMARK  5 active torsions:
REMARK  status: ('A' for Active; 'I' for Inactive)
REMARK    1  A    between atoms: C_2  and  O_3
REMARK    2  A    between atoms: C_2  and  C_4
REMARK    3  A    between atoms: C_5  and  C_6
REMARK    4  A    between atoms: N_23  and  C_24
REMARK    5  A    between atoms: C_24  and  C_25
REMARK                            x       y       z     vdW  Elec       q    Type
REMARK                         _______ _______ _______ _____ _____    ______ ____
ROOT
ATOM      1  C   UNL     1      -0.782  12.199  20.638  0.00  0.00    +0.000 A 
ATOM      2  C   UNL     1      -2.144  12.380  20.366  0.00  0.00    +0.000 A 
ATOM      3  C   UNL     1      -2.399  11.699  19.154  0.00  0.00    +0.000 A 
ATOM      4  C   UNL     1      -3.571  11.630  18.439  0.00  0.00    +0.000 A 
ATOM      5  O   UNL     1      -4.694  12.241  18.784  0.00  0.00    +0.000 OA
ATOM      6  C   UNL     1      -5.590  11.953  17.790  0.00  0.00    +0.000 A 
ATOM      7  C   UNL     1      -5.011  11.149  16.828  0.00  0.00    +0.000 A 
ATOM      8  C   UNL     1      -3.681  10.923  17.258  0.00  0.00    +0.000 A 
ATOM      9  C   UNL     1      -2.537  10.228  16.825  0.00  0.00    +0.000 A 
ATOM     10  F   UNL     1      -2.582   9.505  15.697  0.00  0.00    +0.000 F 
ATOM     11  C   UNL     1      -1.318  10.274  17.548  0.00  0.00    +0.000 A 
ATOM     12  C   UNL     1      -1.259  11.053  18.718  0.00  0.00    +0.000 A 
ATOM     13  N   UNL     1      -0.263  11.386  19.619  0.00  0.00    +0.000 N 
ENDROOT
BRANCH   2  14
ATOM     14  C   UNL     1      -3.059  13.140  21.168  0.00  0.00    +0.000 A 
ATOM     15  C   UNL     1      -3.935  12.577  22.022  0.00  0.00    +0.000 A 
ATOM     16  C   UNL     1      -4.862  13.367  22.802  0.00  0.00    +0.000 A 
ATOM     17  C   UNL     1      -4.867  14.698  22.674  0.00  0.00    +0.000 A 
ATOM     18  N   UNL     1      -3.998  15.312  21.817  0.00  0.00    +0.000 N 
ATOM     19  C   UNL     1      -3.066  14.644  21.047  0.00  0.00    +0.000 A 
ATOM     20  O   UNL     1      -2.289  15.252  20.317  0.00  0.00    +0.000 OA
ATOM     21  H   UNL     1      -3.992  16.322  21.727  0.00  0.00    +0.000 HD
ENDBRANCH   2  14
BRANCH   1  23
ATOM     22  O   UNL     1       0.801  13.540  21.797  0.00  0.00    +0.000 OA
ATOM     23  C   UNL     1      -0.073  12.684  21.809  0.00  0.00    +0.000 C 
BRANCH  23  24
ATOM     24  O   UNL     1      -0.464  12.087  22.957  0.00  0.00    +0.000 OA
ATOM     25  H   UNL     1      -0.094  11.197  23.081  0.00  0.00    +0.000 HD
ENDBRANCH  23  24
ENDBRANCH   1  23
BRANCH  13  26
ATOM     26  C   UNL     1       1.132  10.968  19.444  0.00  0.00    +0.000 C 
BRANCH  26  27
ATOM     27  C   UNL     1       1.377   9.484  19.517  0.00  0.00    +0.000 A 
ATOM     28  C   UNL     1       1.966   8.771  18.460  0.00  0.00    +0.000 A 
ATOM     29  C   UNL     1       2.283   7.432  18.701  0.00  0.00    +0.000 A 
ATOM     30  N   UNL     1       2.863   6.468  17.916  0.00  0.00    +0.000 N 
ATOM     31  C   UNL     1       3.006   5.340  18.671  0.00  0.00    +0.000 A 
ATOM     32  N   UNL     1       2.515   5.499  19.879  0.00  0.00    +0.000 NA
ATOM     33  C   UNL     1       2.052   6.790  19.914  0.00  0.00    +0.000 A 
ATOM     34  C   UNL     1       1.436   7.492  20.955  0.00  0.00    +0.000 A 
ATOM     35  C   UNL     1       1.114   8.831  20.733  0.00  0.00    +0.000 A 
ATOM     36  F   UNL     1       0.555   9.525  21.736  0.00  0.00    +0.000 F 
ATOM     37  H   UNL     1       3.149   6.580  16.955  0.00  0.00    +0.000 HD
ENDBRANCH  26  27
ENDBRANCH  13  26
TORSDOF 5
ENDMDL
MODEL 3
REMARK VINA RESULT:      -8.0      0.800      1.137
REMARK  Name = 
REMARK  5 active torsions:
REMARK  status: ('A' for Active; 'I' for Inactive)
REMARK    1  A    between atoms: C_2  and  O_3
REMARK    2  A    between atoms: C_2  and  C_4
REMARK    3  A    between atoms: C_5  and  C_6
REMARK    4  A    between atoms: N_23  and  C_24
REMARK    5  A    between atoms: C_24  and  C_25
REMARK                            x       y       z     vdW  Elec       q    Type
REMARK                         _______ _______ _______ _____ _____    ______ ____
ROOT
ATOM      1  C   UNL     1       0.211  11.465  19.914  0.00  0.00    +0.000 A 
ATOM      2  C   UNL     1      -1.142  11.800  20.053  0.00  0.00    +0.000 A 
ATOM      3  C   UNL     1      -1.806  11.231  18.942  0.00  0.00    +0.000 A 
ATOM      4  C   UNL     1      -3.132  11.329  18.594  0.00  0.00    +0.000 A 
ATOM      5  O   UNL     1      -4.033  12.025  19.269  0.00  0.00    +0.000 OA
ATOM      6  C   UNL     1      -5.200  11.897  18.567  0.00  0.00    +0.000 A 
ATOM      7  C   UNL     1      -5.014  11.105  17.451  0.00  0.00    +0.000 A 
ATOM      8  C   UNL     1      -3.652  10.718  17.471  0.00  0.00    +0.000 A 
ATOM      9  C   UNL     1      -2.767   9.942  16.701  0.00  0.00    +0.000 A 
ATOM     10  F   UNL     1      -3.212   9.304  15.610  0.00  0.00    +0.000 F 
ATOM     11  C   UNL     1      -1.396   9.816  17.044  0.00  0.00    +0.000 A 
ATOM     12  C   UNL     1      -0.918  10.504  18.173  0.00  0.00    +0.000 A 
ATOM     13  N   UNL     1       0.323  10.674  18.760  0.00  0.00    +0.000 N 
ENDROOT
BRANCH   2  14
ATOM     14  C   UNL     1      -1.698  12.592  21.111  0.00  0.00    +0.000 A 
ATOM     15  C   UNL     1      -2.106  13.865  20.945  0.00  0.00    +0.000 A 
ATOM     16  C   UNL     1      -2.643  14.647  22.035  0.00  0.00    +0.000 A 
ATOM     17  C   UNL     1      -2.735  14.107  23.255  0.00  0.00    +0.000 A 
ATOM     18  N   UNL     1      -2.332  12.819  23.471  0.00  0.00    +0.000 N 
ATOM     19  C   UNL     1      -1.825  11.990  22.489  0.00  0.00    +0.000 A 
ATOM     20  O   UNL     1      -1.507  10.831  22.735  0.00  0.00    +0.000 OA
ATOM     21  H   UNL     1      -2.412  12.402  24.392  0.00  0.00    +0.000 HD
ENDBRANCH   2  14
BRANCH   1  23
ATOM     22  O   UNL     1       1.988  12.787  20.776  0.00  0.00    +0.000 OA
ATOM     23  C   UNL     1       1.274  11.796  20.847  0.00  0.00    +0.000 C 
BRANCH  23  24
ATOM     24  O   UNL     1       1.423  10.884  21.834  0.00  0.00    +0.000 OA
ATOM     25  H   UNL     1       2.077  11.138  22.506  0.00  0.00    +0.000 HD
ENDBRANCH  23  24
ENDBRANCH   1  23
BRANCH  13  26
ATOM     26  C   UNL     1       1.554  10.130  18.176  0.00  0.00    +0.000 C 
BRANCH  26  27
ATOM     27  C   UNL     1       1.956   8.765  18.668  0.00  0.00    +0.000 A 
ATOM     28  C   UNL     1       1.515   8.255  19.900  0.00  0.00    +0.000 A 
ATOM     29  C   UNL     1       1.826   6.922  20.178  0.00  0.00    +0.000 A 
ATOM     30  N   UNL     1       1.549   6.118  21.255  0.00  0.00    +0.000 N 
ATOM     31  C   UNL     1       2.029   4.870  20.983  0.00  0.00    +0.000 A 
ATOM     32  N   UNL     1       2.638   4.826  19.821  0.00  0.00    +0.000 NA
ATOM     33  C   UNL     1       2.531   6.095  19.308  0.00  0.00    +0.000 A 
ATOM     34  C   UNL     1       2.997   6.613  18.096  0.00  0.00    +0.000 A 
ATOM     35  C   UNL     1       2.694   7.942  17.800  0.00  0.00    +0.000 A 
ATOM     36  F   UNL     1       3.106   8.441  16.624  0.00  0.00    +0.000 F 
ATOM     37  H   UNL     1       1.060   6.398  22.093  0.00  0.00    +0.000 HD
ENDBRANCH  26  27
ENDBRANCH  13  26
TORSDOF 5
ENDMDL
MODEL 4
REMARK VINA RESULT:      -7.9      3.406      5.518
REMARK  Name = 
REMARK  5 active torsions:
REMARK  status: ('A' for Active; 'I' for Inactive)
REMARK    1  A    between atoms: C_2  and  O_3
REMARK    2  A    between atoms: C_2  and  C_4
REMARK    3  A    between atoms: C_5  and  C_6
REMARK    4  A    between atoms: N_23  and  C_24
REMARK    5  A    between atoms: C_24  and  C_25
REMARK                            x       y       z     vdW  Elec       q    Type
REMARK                         _______ _______ _______ _____ _____    ______ ____
ROOT
ATOM      1  C   UNL     1      -2.874  12.545  20.107  0.00  0.00    +0.000 A 
ATOM      2  C   UNL     1      -4.255  12.682  20.301  0.00  0.00    +0.000 A 
ATOM      3  C   UNL     1      -4.463  12.646  21.699  0.00  0.00    +0.000 A 
ATOM      4  C   UNL     1      -5.651  12.682  22.390  0.00  0.00    +0.000 A 
ATOM      5  O   UNL     1      -6.845  12.739  21.821  0.00  0.00    +0.000 OA
ATOM      6  C   UNL     1      -7.745  12.711  22.851  0.00  0.00    +0.000 A 
ATOM      7  C   UNL     1      -7.094  12.645  24.068  0.00  0.00    +0.000 A 
ATOM      8  C   UNL     1      -5.710  12.638  23.768  0.00  0.00    +0.000 A 
ATOM      9  C   UNL     1      -4.484  12.593  24.456  0.00  0.00    +0.000 A 
ATOM     10  F   UNL     1      -4.470  12.570  25.796  0.00  0.00    +0.000 F 
ATOM     11  C   UNL     1      -3.244  12.565  23.768  0.00  0.00    +0.000 A 
ATOM     12  C   UNL     1      -3.255  12.563  22.362  0.00  0.00    +0.000 A 
ATOM     13  N   UNL     1      -2.285  12.474  21.379  0.00  0.00    +0.000 N 
ENDROOT
BRANCH   2  14
ATOM     14  C   UNL     1      -5.233  12.802  19.260  0.00  0.00    +0.000 A 
ATOM     15  C   UNL     1      -5.785  13.975  18.896  0.00  0.00    +0.000 A 
ATOM     16  C   UNL     1      -6.786  14.064  17.857  0.00  0.00    +0.000 A 
ATOM     17  C   UNL     1      -7.194  12.952  17.235  0.00  0.00    +0.000 A 
ATOM     18  N   UNL     1      -6.664  11.739  17.573  0.00  0.00    +0.000 N 
ATOM     19  C   UNL     1      -5.692  11.559  18.537  0.00  0.00    +0.000 A 
ATOM     20  O   UNL     1      -5.230  10.447  18.777  0.00  0.00    +0.000 OA
ATOM     21  H   UNL     1      -6.963  10.896  17.095  0.00  0.00    +0.000 HD
ENDBRANCH   2  14
BRANCH   1  23
ATOM     22  O   UNL     1      -2.296  11.725  17.953  0.00  0.00    +0.000 OA
ATOM     23  C   UNL     1      -2.184  12.571  18.829  0.00  0.00    +0.000 C 
BRANCH  23  24
ATOM     24  O   UNL     1      -1.371  13.641  18.683  0.00  0.00    +0.000 OA
ATOM     25  H   UNL     1      -0.909  13.667  17.828  0.00  0.00    +0.000 HD
ENDBRANCH  23  24
ENDBRANCH   1  23
BRANCH  13  26
ATOM     26  C   UNL     1      -0.864  12.273  21.686  0.00  0.00    +0.000 C 
BRANCH  26  27
ATOM     27  C   UNL     1      -0.328  10.897  21.393  0.00  0.00    +0.000 A 
ATOM     28  C   UNL     1       0.381  10.606  20.217  0.00  0.00    +0.000 A 
ATOM     29  C   UNL     1       0.962   9.339  20.127  0.00  0.00    +0.000 A 
ATOM     30  N   UNL     1       1.715   8.740  19.149  0.00  0.00    +0.000 N 
ATOM     31  C   UNL     1       2.087   7.507  19.602  0.00  0.00    +0.000 A 
ATOM     32  N   UNL     1       1.586   7.253  20.788  0.00  0.00    +0.000 NA
ATOM     33  C   UNL     1       0.874   8.377  21.128  0.00  0.00    +0.000 A 
ATOM     34  C   UNL     1       0.141   8.656  22.286  0.00  0.00    +0.000 A 
ATOM     35  C   UNL     1      -0.444   9.918  22.394  0.00  0.00    +0.000 A 
ATOM     36  F   UNL     1      -1.121  10.210  23.515  0.00  0.00    +0.000 F 
ATOM     37  H   UNL     1       1.963   9.146  18.259  0.00  0.00    +0.000 HD
ENDBRANCH  26  27
ENDBRANCH  13  26
TORSDOF 5
ENDMDL
MODEL 5
REMARK VINA RESULT:      -7.8      1.943      2.593
REMARK  Name = 
REMARK  5 active torsions:
REMARK  status: ('A' for Active; 'I' for Inactive)
REMARK    1  A    between atoms: C_2  and  O_3
REMARK    2  A    between atoms: C_2  and  C_4
REMARK    3  A    between atoms: C_5  and  C_6
REMARK    4  A    between atoms: N_23  and  C_24
REMARK    5  A    between atoms: C_24  and  C_25
REMARK                            x       y       z     vdW  Elec       q    Type
REMARK                         _______ _______ _______ _____ _____    ______ ____
ROOT
ATOM      1  C   UNL     1      -1.073  12.827  20.717  0.00  0.00    +0.000 A 
ATOM      2  C   UNL     1      -2.467  12.906  20.604  0.00  0.00    +0.000 A 
ATOM      3  C   UNL     1      -2.821  12.092  19.504  0.00  0.00    +0.000 A 
ATOM      4  C   UNL     1      -4.064  11.889  18.953  0.00  0.00    +0.000 A 
ATOM      5  O   UNL     1      -5.174  12.470  19.379  0.00  0.00    +0.000 OA
ATOM      6  C   UNL     1      -6.163  12.035  18.539  0.00  0.00    +0.000 A 
ATOM      7  C   UNL     1      -5.654  11.171  17.590  0.00  0.00    +0.000 A 
ATOM      8  C   UNL     1      -4.269  11.062  17.868  0.00  0.00    +0.000 A 
ATOM      9  C   UNL     1      -3.143  10.389  17.359  0.00  0.00    +0.000 A 
ATOM     10  F   UNL     1      -3.277   9.554  16.319  0.00  0.00    +0.000 F 
ATOM     11  C   UNL     1      -1.851  10.573  17.914  0.00  0.00    +0.000 A 
ATOM     12  C   UNL     1      -1.702  11.468  18.988  0.00  0.00    +0.000 A 
ATOM     13  N   UNL     1      -0.628  11.944  19.720  0.00  0.00    +0.000 N 
ENDROOT
BRANCH   2  14
ATOM     14  C   UNL     1      -3.326  13.692  21.441  0.00  0.00    +0.000 A 
ATOM     15  C   UNL     1      -3.741  14.931  21.117  0.00  0.00    +0.000 A 
ATOM     16  C   UNL     1      -4.590  15.709  21.991  0.00  0.00    +0.000 A 
ATOM     17  C   UNL     1      -4.975  15.199  23.166  0.00  0.00    +0.000 A 
ATOM     18  N   UNL     1      -4.576  13.946  23.538  0.00  0.00    +0.000 N 
ATOM     19  C   UNL     1      -3.783  13.123  22.763  0.00  0.00    +0.000 A 
ATOM     20  O   UNL     1      -3.481  11.993  23.136  0.00  0.00    +0.000 OA
ATOM     21  H   UNL     1      -4.877  13.552  24.423  0.00  0.00    +0.000 HD
ENDBRANCH   2  14
BRANCH   1  23
ATOM     22  O   UNL     1      -0.066  13.022  22.861  0.00  0.00    +0.000 OA
ATOM     23  C   UNL     1      -0.260  13.465  21.738  0.00  0.00    +0.000 C 
BRANCH  23  24
ATOM     24  O   UNL     1       0.279  14.638  21.336  0.00  0.00    +0.000 OA
ATOM     25  H   UNL     1       1.230  14.587  21.145  0.00  0.00    +0.000 HD
ENDBRANCH  23  24
ENDBRANCH   1  23
BRANCH  13  26
ATOM     26  C   UNL     1       0.760  11.586  19.409  0.00  0.00    +0.000 C 
BRANCH  26  27
ATOM     27  C   UNL     1       1.089  10.120  19.511  0.00  0.00    +0.000 A 
ATOM     28  C   UNL     1       1.685   9.413  18.454  0.00  0.00    +0.000 A 
ATOM     29  C   UNL     1       2.083   8.100  18.719  0.00  0.00    +0.000 A 
ATOM     30  N   UNL     1       2.692   7.149  17.940  0.00  0.00    +0.000 N 
ATOM     31  C   UNL     1       2.919   6.051  18.718  0.00  0.00    +0.000 A 
ATOM     32  N   UNL     1       2.456   6.214  19.936  0.00  0.00    +0.000 NA
ATOM     33  C   UNL     1       1.924   7.479  19.954  0.00  0.00    +0.000 A 
ATOM     34  C   UNL     1       1.301   8.173  20.996  0.00  0.00    +0.000 A 
ATOM     35  C   UNL     1       0.899   9.486  20.750  0.00  0.00    +0.000 A 
ATOM     36  F   UNL     1       0.332  10.175  21.753  0.00  0.00    +0.000 F 
ATOM     37  H   UNL     1       2.942   7.251  16.967  0.00  0.00    +0.000 HD
ENDBRANCH  26  27
ENDBRANCH  13  26
TORSDOF 5
ENDMDL
MODEL 6
REMARK VINA RESULT:      -7.7      3.377      5.425
REMARK  Name = 
REMARK  5 active torsions:
REMARK  status: ('A' for Active; 'I' for Inactive)
REMARK    1  A    between atoms: C_2  and  O_3
REMARK    2  A    between atoms: C_2  and  C_4
REMARK    3  A    between atoms: C_5  and  C_6
REMARK    4  A    between atoms: N_23  and  C_24
REMARK    5  A    between atoms: C_24  and  C_25
REMARK                            x       y       z     vdW  Elec       q    Type
REMARK                         _______ _______ _______ _____ _____    ______ ____
ROOT
ATOM      1  C   UNL     1      -2.803  12.583  20.237  0.00  0.00    +0.000 A 
ATOM      2  C   UNL     1      -4.181  12.740  20.438  0.00  0.00    +0.000 A 
ATOM      3  C   UNL     1      -4.384  12.689  21.836  0.00  0.00    +0.000 A 
ATOM      4  C   UNL     1      -5.569  12.736  22.532  0.00  0.00    +0.000 A 
ATOM      5  O   UNL     1      -6.764  12.820  21.970  0.00  0.00    +0.000 OA
ATOM      6  C   UNL     1      -7.660  12.794  23.002  0.00  0.00    +0.000 A 
ATOM      7  C   UNL     1      -7.006  12.701  24.215  0.00  0.00    +0.000 A 
ATOM      8  C   UNL     1      -5.623  12.675  23.910  0.00  0.00    +0.000 A 
ATOM      9  C   UNL     1      -4.396  12.601  24.593  0.00  0.00    +0.000 A 
ATOM     10  F   UNL     1      -4.377  12.560  25.932  0.00  0.00    +0.000 F 
ATOM     11  C   UNL     1      -3.159  12.561  23.900  0.00  0.00    +0.000 A 
ATOM     12  C   UNL     1      -3.175  12.578  22.493  0.00  0.00    +0.000 A 
ATOM     13  N   UNL     1      -2.210  12.486  21.506  0.00  0.00    +0.000 N 
ENDROOT
BRANCH   2  14
ATOM     14  C   UNL     1      -5.161  12.890  19.402  0.00  0.00    +0.000 A 
ATOM     15  C   UNL     1      -5.579  11.871  18.628  0.00  0.00    +0.000 A 
ATOM     16  C   UNL     1      -6.554  12.056  17.576  0.00  0.00    +0.000 A 
ATOM     17  C   UNL     1      -7.057  13.273  17.347  0.00  0.00    +0.000 A 
ATOM     18  N   UNL     1      -6.660  14.338  18.106  0.00  0.00    +0.000 N 
ATOM     19  C   UNL     1      -5.751  14.255  19.143  0.00  0.00    +0.000 A 
ATOM     20  O   UNL     1      -5.455  15.241  19.811  0.00  0.00    +0.000 OA
ATOM     21  H   UNL     1      -7.049  15.260  17.942  0.00  0.00    +0.000 HD
ENDBRANCH   2  14
BRANCH   1  23
ATOM     22  O   UNL     1      -2.178  11.739  18.105  0.00  0.00    +0.000 OA
ATOM     23  C   UNL     1      -2.118  12.615  18.957  0.00  0.00    +0.000 C 
BRANCH  23  24
ATOM     24  O   UNL     1      -1.373  13.728  18.777  0.00  0.00    +0.000 OA
ATOM     25  H   UNL     1      -1.813  14.412  18.244  0.00  0.00    +0.000 HD
ENDBRANCH  23  24
ENDBRANCH   1  23
BRANCH  13  26
ATOM     26  C   UNL     1      -0.792  12.257  21.804  0.00  0.00    +0.000 C 
BRANCH  26  27
ATOM     27  C   UNL     1      -0.275  10.883  21.473  0.00  0.00    +0.000 A 
ATOM     28  C   UNL     1       0.428  10.614  20.288  0.00  0.00    +0.000 A 
ATOM     29  C   UNL     1       0.991   9.342  20.162  0.00  0.00    +0.000 A 
ATOM     30  N   UNL     1       1.734   8.759  19.167  0.00  0.00    +0.000 N 
ATOM     31  C   UNL     1       2.091   7.510  19.585  0.00  0.00    +0.000 A 
ATOM     32  N   UNL     1       1.588   7.231  20.766  0.00  0.00    +0.000 NA
ATOM     33  C   UNL     1       0.893   8.354  21.138  0.00  0.00    +0.000 A 
ATOM     34  C   UNL     1       0.165   8.612  22.303  0.00  0.00    +0.000 A 
ATOM     35  C   UNL     1      -0.403   9.878  22.447  0.00  0.00    +0.000 A 
ATOM     36  F   UNL     1      -1.074  10.149  23.577  0.00  0.00    +0.000 F 
ATOM     37  H   UNL     1       1.987   9.187  18.288  0.00  0.00    +0.000 HD
ENDBRANCH  26  27
ENDBRANCH  13  26
TORSDOF 5
ENDMDL
MODEL 7
REMARK VINA RESULT:      -7.7      2.562      3.777
REMARK  Name = 
REMARK  5 active torsions:
REMARK  status: ('A' for Active; 'I' for Inactive)
REMARK    1  A    between atoms: C_2  and  O_3
REMARK    2  A    between atoms: C_2  and  C_4
REMARK    3  A    between atoms: C_5  and  C_6
REMARK    4  A    between atoms: N_23  and  C_24
REMARK    5  A    between atoms: C_24  and  C_25
REMARK                            x       y       z     vdW  Elec       q    Type
REMARK                         _______ _______ _______ _____ _____    ______ ____
ROOT
ATOM      1  C   UNL     1      -2.505  13.574  21.403  0.00  0.00    +0.000 A 
ATOM      2  C   UNL     1      -3.891  13.435  21.253  0.00  0.00    +0.000 A 
ATOM      3  C   UNL     1      -4.086  12.674  20.078  0.00  0.00    +0.000 A 
ATOM      4  C   UNL     1      -5.270  12.321  19.473  0.00  0.00    +0.000 A 
ATOM      5  O   UNL     1      -6.468  12.674  19.910  0.00  0.00    +0.000 OA
ATOM      6  C   UNL     1      -7.356  12.160  19.006  0.00  0.00    +0.000 A 
ATOM      7  C   UNL     1      -6.695  11.476  18.005  0.00  0.00    +0.000 A 
ATOM      8  C   UNL     1      -5.317  11.569  18.316  0.00  0.00    +0.000 A 
ATOM      9  C   UNL     1      -4.087  11.136  17.789  0.00  0.00    +0.000 A 
ATOM     10  F   UNL     1      -4.062  10.384  16.679  0.00  0.00    +0.000 F 
ATOM     11  C   UNL     1      -2.852  11.478  18.398  0.00  0.00    +0.000 A 
ATOM     12  C   UNL     1      -2.872  12.288  19.548  0.00  0.00    +0.000 A 
ATOM     13  N   UNL     1      -1.904  12.865  20.351  0.00  0.00    +0.000 N 
ENDROOT
BRANCH   2  14
ATOM     14  C   UNL     1      -4.882  13.995  22.125  0.00  0.00    +0.000 A 
ATOM     15  C   UNL     1      -5.511  15.159  21.877  0.00  0.00    +0.000 A 
ATOM     16  C   UNL     1      -6.492  15.710  22.786  0.00  0.00    +0.000 A 
ATOM     17  C   UNL     1      -6.786  15.060  23.916  0.00  0.00    +0.000 A 
ATOM     18  N   UNL     1      -6.170  13.876  24.211  0.00  0.00    +0.000 N 
ATOM     19  C   UNL     1      -5.237  13.264  23.397  0.00  0.00    +0.000 A 
ATOM     20  O   UNL     1      -4.739  12.183  23.699  0.00  0.00    +0.000 OA
ATOM     21  H   UNL     1      -6.400  13.375  25.062  0.00  0.00    +0.000 HD
ENDBRANCH   2  14
BRANCH   1  23
ATOM     22  O   UNL     1      -1.324  15.357  22.438  0.00  0.00    +0.000 OA
ATOM     23  C   UNL     1      -1.827  14.244  22.499  0.00  0.00    +0.000 C 
BRANCH  23  24
ATOM     24  O   UNL     1      -1.787  13.509  23.633  0.00  0.00    +0.000 OA
ATOM     25  H   UNL     1      -0.887  13.293  23.928  0.00  0.00    +0.000 HD
ENDBRANCH  23  24
ENDBRANCH   1  23
BRANCH  13  26
ATOM     26  C   UNL     1      -0.470  12.767  20.056  0.00  0.00    +0.000 C 
BRANCH  26  27
ATOM     27  C   UNL     1       0.079  11.367  19.975  0.00  0.00    +0.000 A 
ATOM     28  C   UNL     1       0.616  10.841  18.789  0.00  0.00    +0.000 A 
ATOM     29  C   UNL     1       1.234   9.591  18.876  0.00  0.00    +0.000 A 
ATOM     30  N   UNL     1       1.858   8.807  17.939  0.00  0.00    +0.000 N 
ATOM     31  C   UNL     1       2.350   7.704  18.574  0.00  0.00    +0.000 A 
ATOM     32  N   UNL     1       2.045   7.703  19.851  0.00  0.00    +0.000 NA
ATOM     33  C   UNL     1       1.342   8.864  20.057  0.00  0.00    +0.000 A 
ATOM     34  C   UNL     1       0.779   9.373  21.231  0.00  0.00    +0.000 A 
ATOM     35  C   UNL     1       0.160  10.622  21.164  0.00  0.00    +0.000 A 
ATOM     36  F   UNL     1      -0.353  11.137  22.292  0.00  0.00    +0.000 F 
ATOM     37  H   UNL     1       1.951   9.018  16.956  0.00  0.00    +0.000 HD
ENDBRANCH  26  27
ENDBRANCH  13  26
TORSDOF 5
ENDMDL
MODEL 8
REMARK VINA RESULT:      -7.6      1.499      1.787
REMARK  Name = 
REMARK  5 active torsions:
REMARK  status: ('A' for Active; 'I' for Inactive)
REMARK    1  A    between atoms: C_2  and  O_3
REMARK    2  A    between atoms: C_2  and  C_4
REMARK    3  A    between atoms: C_5  and  C_6
REMARK    4  A    between atoms: N_23  and  C_24
REMARK    5  A    between atoms: C_24  and  C_25
REMARK                            x       y       z     vdW  Elec       q    Type
REMARK                         _______ _______ _______ _____ _____    ______ ____
ROOT
ATOM      1  C   UNL     1      -1.063  12.675  20.866  0.00  0.00    +0.000 A 
ATOM      2  C   UNL     1      -2.457  12.695  20.725  0.00  0.00    +0.000 A 
ATOM      3  C   UNL     1      -2.735  12.125  19.462  0.00  0.00    +0.000 A 
ATOM      4  C   UNL     1      -3.951  11.975  18.838  0.00  0.00    +0.000 A 
ATOM      5  O   UNL     1      -5.105  12.382  19.342  0.00  0.00    +0.000 OA
ATOM      6  C   UNL     1      -6.046  12.086  18.395  0.00  0.00    +0.000 A 
ATOM      7  C   UNL     1      -5.462  11.483  17.297  0.00  0.00    +0.000 A 
ATOM      8  C   UNL     1      -4.080  11.397  17.592  0.00  0.00    +0.000 A 
ATOM      9  C   UNL     1      -2.902  10.920  16.987  0.00  0.00    +0.000 A 
ATOM     10  F   UNL     1      -2.960  10.328  15.785  0.00  0.00    +0.000 F 
ATOM     11  C   UNL     1      -1.637  11.053  17.613  0.00  0.00    +0.000 A 
ATOM     12  C   UNL     1      -1.568  11.696  18.862  0.00  0.00    +0.000 A 
ATOM     13  N   UNL     1      -0.542  12.060  19.716  0.00  0.00    +0.000 N 
ENDROOT
BRANCH   2  14
ATOM     14  C   UNL     1      -3.382  13.225  21.684  0.00  0.00    +0.000 A 
ATOM     15  C   UNL     1      -3.952  12.481  22.651  0.00  0.00    +0.000 A 
ATOM     16  C   UNL     1      -4.899  13.038  23.591  0.00  0.00    +0.000 A 
ATOM     17  C   UNL     1      -5.237  14.329  23.503  0.00  0.00    +0.000 A 
ATOM     18  N   UNL     1      -4.686  15.122  22.537  0.00  0.00    +0.000 N 
ATOM     19  C   UNL     1      -3.761  14.684  21.608  0.00  0.00    +0.000 A 
ATOM     20  O   UNL     1      -3.276  15.451  20.781  0.00  0.00    +0.000 OA
ATOM     21  H   UNL     1      -4.931  16.104  22.475  0.00  0.00    +0.000 HD
ENDBRANCH   2  14
BRANCH   1  23
ATOM     22  O   UNL     1       0.304  14.171  22.106  0.00  0.00    +0.000 OA
ATOM     23  C   UNL     1      -0.315  13.119  22.029  0.00  0.00    +0.000 C 
BRANCH  23  24
ATOM     24  O   UNL     1      -0.353  12.241  23.056  0.00  0.00    +0.000 OA
ATOM     25  H   UNL     1      -0.588  11.337  22.790  0.00  0.00    +0.000 HD
ENDBRANCH  23  24
ENDBRANCH   1  23
BRANCH  13  26
ATOM     26  C   UNL     1       0.872  11.862  19.383  0.00  0.00    +0.000 C 
BRANCH  26  27
ATOM     27  C   UNL     1       1.353  10.436  19.424  0.00  0.00    +0.000 A 
ATOM     28  C   UNL     1       1.139   9.607  20.538  0.00  0.00    +0.000 A 
ATOM     29  C   UNL     1       1.492   8.263  20.401  0.00  0.00    +0.000 A 
ATOM     30  N   UNL     1       1.411   7.198  21.263  0.00  0.00    +0.000 N 
ATOM     31  C   UNL     1       1.833   6.084  20.596  0.00  0.00    +0.000 A 
ATOM     32  N   UNL     1       2.224   6.368  19.375  0.00  0.00    +0.000 NA
ATOM     33  C   UNL     1       2.029   7.720  19.237  0.00  0.00    +0.000 A 
ATOM     34  C   UNL     1       2.272   8.552  18.140  0.00  0.00    +0.000 A 
ATOM     35  C   UNL     1       1.923   9.898  18.259  0.00  0.00    +0.000 A 
ATOM     36  F   UNL     1       2.119  10.700  17.200  0.00  0.00    +0.000 F 
ATOM     37  H   UNL     1       1.081   7.231  22.216  0.00  0.00    +0.000 HD
ENDBRANCH  26  27
ENDBRANCH  13  26
TORSDOF 5
ENDMDL
MODEL 9
REMARK VINA RESULT:      -7.6      1.518      2.019
REMARK  Name = 
REMARK  5 active torsions:
REMARK  status: ('A' for Active; 'I' for Inactive)
REMARK    1  A    between atoms: C_2  and  O_3
REMARK    2  A    between atoms: C_2  and  C_4
REMARK    3  A    between atoms: C_5  and  C_6
REMARK    4  A    between atoms: N_23  and  C_24
REMARK    5  A    between atoms: C_24  and  C_25
REMARK                            x       y       z     vdW  Elec       q    Type
REMARK                         _______ _______ _______ _____ _____    ______ ____
ROOT
ATOM      1  C   UNL     1      -0.209  12.420  19.893  0.00  0.00    +0.000 A 
ATOM      2  C   UNL     1      -1.591  12.640  19.958  0.00  0.00    +0.000 A 
ATOM      3  C   UNL     1      -2.171  11.803  18.978  0.00  0.00    +0.000 A 
ATOM      4  C   UNL     1      -3.493  11.700  18.612  0.00  0.00    +0.000 A 
ATOM      5  O   UNL     1      -4.472  12.421  19.135  0.00  0.00    +0.000 OA
ATOM      6  C   UNL     1      -5.605  12.044  18.468  0.00  0.00    +0.000 A 
ATOM      7  C   UNL     1      -5.318  11.074  17.527  0.00  0.00    +0.000 A 
ATOM      8  C   UNL     1      -3.926  10.835  17.628  0.00  0.00    +0.000 A 
ATOM      9  C   UNL     1      -2.952  10.016  17.028  0.00  0.00    +0.000 A 
ATOM     10  F   UNL     1      -3.308   9.138  16.080  0.00  0.00    +0.000 F 
ATOM     11  C   UNL     1      -1.584  10.095  17.393  0.00  0.00    +0.000 A 
ATOM     12  C   UNL     1      -1.201  11.033  18.368  0.00  0.00    +0.000 A 
ATOM     13  N   UNL     1       0.005  11.435  18.915  0.00  0.00    +0.000 N 
ENDROOT
BRANCH   2  14
ATOM     14  C   UNL     1      -2.246  13.563  20.840  0.00  0.00    +0.000 A 
ATOM     15  C   UNL     1      -2.522  14.837  20.503  0.00  0.00    +0.000 A 
ATOM     16  C   UNL     1      -3.164  15.752  21.420  0.00  0.00    +0.000 A 
ATOM     17  C   UNL     1      -3.490  15.337  22.649  0.00  0.00    +0.000 A 
ATOM     18  N   UNL     1      -3.227  14.053  23.035  0.00  0.00    +0.000 N 
ATOM     19  C   UNL     1      -2.636  13.104  22.224  0.00  0.00    +0.000 A 
ATOM     20  O   UNL     1      -2.452  11.956  22.616  0.00  0.00    +0.000 OA
ATOM     21  H   UNL     1      -3.484  13.732  23.963  0.00  0.00    +0.000 HD
ENDBRANCH   2  14
BRANCH   1  23
ATOM     22  O   UNL     1       1.694  13.763  20.362  0.00  0.00    +0.000 OA
ATOM     23  C   UNL     1       0.794  13.029  20.747  0.00  0.00    +0.000 C 
BRANCH  23  24
ATOM     24  O   UNL     1       0.656  12.703  22.052  0.00  0.00    +0.000 OA
ATOM     25  H   UNL     1       1.259  12.001  22.346  0.00  0.00    +0.000 HD
ENDBRANCH  23  24
ENDBRANCH   1  23
BRANCH  13  26
ATOM     26  C   UNL     1       1.295  10.913  18.453  0.00  0.00    +0.000 C 
BRANCH  26  27
ATOM     27  C   UNL     1       1.568   9.471  18.788  0.00  0.00    +0.000 A 
ATOM     28  C   UNL     1       2.182   8.595  17.878  0.00  0.00    +0.000 A 
ATOM     29  C   UNL     1       2.522   7.327  18.355  0.00  0.00    +0.000 A 
ATOM     30  N   UNL     1       3.129   6.252  17.756  0.00  0.00    +0.000 N 
ATOM     31  C   UNL     1       3.285   5.278  18.700  0.00  0.00    +0.000 A 
ATOM     32  N   UNL     1       2.777   5.636  19.856  0.00  0.00    +0.000 NA
ATOM     33  C   UNL     1       2.289   6.904  19.660  0.00  0.00    +0.000 A 
ATOM     34  C   UNL     1       1.647   7.765  20.556  0.00  0.00    +0.000 A 
ATOM     35  C   UNL     1       1.303   9.037  20.097  0.00  0.00    +0.000 A 
ATOM     36  F   UNL     1       0.718   9.885  20.958  0.00  0.00    +0.000 F 
ATOM     37  H   UNL     1       3.425   6.199  16.793  0.00  0.00    +0.000 HD
ENDBRANCH  26  27
ENDBRANCH  13  26
TORSDOF 5
ENDMDL
