MODEL 1
REMARK VINA RESULT:      -7.7      0.000      0.000
REMARK  Name = 
REMARK  7 active torsions:
REMARK  status: ('A' for Active; 'I' for Inactive)
REMARK    1  A    between atoms: N_1  and  S_2
REMARK    2  A    between atoms: S_2  and  C_5
REMARK    3  A    between atoms: N_9  and  S_10
REMARK    4  A    between atoms: S_10  and  C_13
REMARK    5  A    between atoms: C_16  and  N_17
REMARK    6  A    between atoms: N_17  and  S_18
REMARK    7  A    between atoms: S_18  and  C_21
REMARK                            x       y       z     vdW  Elec       q    Type
REMARK                         _______ _______ _______ _____ _____    ______ ____
ROOT
ATOM      1  S   UNL     1       0.302  10.946  19.386  0.00  0.00    +0.000 S 
ATOM      2  O   UNL     1      -1.104  10.679  19.152  0.00  0.00    +0.000 OA
ATOM      3  O   UNL     1       1.072  11.756  18.469  0.00  0.00    +0.000 OA
ENDROOT
BRANCH   1   8
ATOM      4  C   UNL     1      -2.488  12.278  23.044  0.00  0.00    +0.000 A 
ATOM      5  N   UNL     1      -1.946  11.126  23.396  0.00  0.00    +0.000 NA
ATOM      6  N   UNL     1      -0.823  10.858  22.642  0.00  0.00    +0.000 NA
ATOM      7  C   UNL     1      -0.621  11.764  21.712  0.00  0.00    +0.000 A 
ATOM      8  N   UNL     1       0.499  11.650  20.878  0.00  0.00    +0.000 N 
ATOM      9  S   UNL     1      -1.683  13.102  21.779  0.00  0.00    +0.000 S 
ATOM     10  H   UNL     1       1.380  12.098  21.109  0.00  0.00    +0.000 HD
BRANCH   4  11
ATOM     11  S   UNL     1      -3.876  13.019  23.824  0.00  0.00    +0.000 S 
ATOM     12  O   UNL     1      -4.843  13.319  22.795  0.00  0.00    +0.000 OA
ATOM     13  O   UNL     1      -3.345  14.036  24.705  0.00  0.00    +0.000 OA
BRANCH  11  14
ATOM     14  N   UNL     1      -4.603  11.888  24.857  0.00  0.00    +0.000 NA
ATOM     15  H   UNL     1      -4.944  12.356  25.694  0.00  0.00    +0.000 HD
ATOM     16  H   UNL     1      -3.956  11.131  25.077  0.00  0.00    +0.000 HD
ENDBRANCH  11  14
ENDBRANCH   4  11
ENDBRANCH   1   8
BRANCH   1  17
ATOM     17  C   UNL     1       1.130   9.364  19.527  0.00  0.00    +0.000 A 
ATOM     18  C   UNL     1       1.045   8.652  20.725  0.00  0.00    +0.000 A 
ATOM     19  C   UNL     1       1.695   7.425  20.862  0.00  0.00    +0.000 A 
ATOM     20  C   UNL     1       2.400   6.880  19.789  0.00  0.00    +0.000 A 
ATOM     21  C   UNL     1       2.443   7.561  18.570  0.00  0.00    +0.000 A 
ATOM     22  C   UNL     1       1.819   8.815  18.437  0.00  0.00    +0.000 A 
BRANCH  20  23
ATOM     23  N   UNL     1       3.093   5.643  19.944  0.00  0.00    +0.000 N 
ATOM     24  H   UNL     1       3.621   5.555  20.816  0.00  0.00    +0.000 HD
BRANCH  23  25
ATOM     25  S   UNL     1       2.226   4.186  19.696  0.00  0.00    +0.000 S 
ATOM     26  O   UNL     1       3.125   3.174  20.227  0.00  0.00    +0.000 OA
ATOM     27  O   UNL     1       0.905   4.335  20.280  0.00  0.00    +0.000 OA
BRANCH  25  28
ATOM     28  C   UNL     1       2.134   4.027  17.834  0.00  0.00    +0.000 C 
ATOM     29  F   UNL     1       2.048   2.725  17.433  0.00  0.00    +0.000 F 
ATOM     30  F   UNL     1       1.044   4.663  17.317  0.00  0.00    +0.000 F 
ATOM     31  F   UNL     1       3.226   4.555  17.214  0.00  0.00    +0.000 F 
ENDBRANCH  25  28
ENDBRANCH  23  25
ENDBRANCH  20  23
ENDBRANCH   1  17
TORSDOF 7
ENDMDL
MODEL 2
REMARK VINA RESULT:      -7.5      4.700      9.334
REMARK  Name = 
REMARK  7 active torsions:
REMARK  status: ('A' for Active; 'I' for Inactive)
REMARK    1  A    between atoms: N_1  and  S_2
REMARK    2  A    between atoms: S_2  and  C_5
REMARK    3  A    between atoms: N_9  and  S_10
REMARK    4  A    between atoms: S_10  and  C_13
REMARK    5  A    between atoms: C_16  and  N_17
REMARK    6  A    between atoms: N_17  and  S_18
REMARK    7  A    between atoms: S_18  and  C_21
REMARK                            x       y       z     vdW  Elec       q    Type
REMARK                         _______ _______ _______ _____ _____    ______ ____
ROOT
ATOM      1  S   UNL     1       1.667   2.916  19.359  0.00  0.00    +0.000 S 
ATOM      2  O   UNL     1       0.737   2.522  18.317  0.00  0.00    +0.000 OA
ATOM      3  O   UNL     1       1.413   2.597  20.746  0.00  0.00    +0.000 OA
ENDROOT
BRANCH   1   8
ATOM      4  C   UNL     1       5.885   4.579  17.815  0.00  0.00    +0.000 A 
ATOM      5  N   UNL     1       5.999   4.447  19.124  0.00  0.00    +0.000 NA
ATOM      6  N   UNL     1       5.036   3.594  19.620  0.00  0.00    +0.000 NA
ATOM      7  C   UNL     1       4.198   3.195  18.689  0.00  0.00    +0.000 A 
ATOM      8  N   UNL     1       3.175   2.300  19.028  0.00  0.00    +0.000 N 
ATOM      9  S   UNL     1       4.605   3.692  17.104  0.00  0.00    +0.000 S 
ATOM     10  H   UNL     1       3.301   1.297  18.948  0.00  0.00    +0.000 HD
BRANCH   4  11
ATOM     11  S   UNL     1       6.975   5.505  16.795  0.00  0.00    +0.000 S 
ATOM     12  O   UNL     1       7.861   4.570  16.145  0.00  0.00    +0.000 OA
ATOM     13  O   UNL     1       7.465   6.591  17.616  0.00  0.00    +0.000 OA
BRANCH  11  14
ATOM     14  N   UNL     1       6.081   6.260  15.568  0.00  0.00    +0.000 NA
ATOM     15  H   UNL     1       5.369   6.859  15.980  0.00  0.00    +0.000 HD
ATOM     16  H   UNL     1       5.681   5.568  14.934  0.00  0.00    +0.000 HD
ENDBRANCH  11  14
ENDBRANCH   4  11
ENDBRANCH   1   8
BRANCH   1  17
ATOM     17  C   UNL     1       1.875   4.691  19.247  0.00  0.00    +0.000 A 
ATOM     18  C   UNL     1       1.895   5.299  17.991  0.00  0.00    +0.000 A 
ATOM     19  C   UNL     1       2.072   6.679  17.879  0.00  0.00    +0.000 A 
ATOM     20  C   UNL     1       2.188   7.467  19.024  0.00  0.00    +0.000 A 
ATOM     21  C   UNL     1       2.113   6.871  20.286  0.00  0.00    +0.000 A 
ATOM     22  C   UNL     1       1.971   5.477  20.403  0.00  0.00    +0.000 A 
BRANCH  20  23
ATOM     23  N   UNL     1       2.403   8.872  18.906  0.00  0.00    +0.000 N 
ATOM     24  H   UNL     1       3.095   9.140  18.201  0.00  0.00    +0.000 HD
BRANCH  23  25
ATOM     25  S   UNL     1       1.041   9.894  18.733  0.00  0.00    +0.000 S 
ATOM     26  O   UNL     1       1.634  11.181  18.405  0.00  0.00    +0.000 OA
ATOM     27  O   UNL     1       0.123   9.278  17.791  0.00  0.00    +0.000 OA
BRANCH  25  28
ATOM     28  C   UNL     1       0.307   9.964  20.452  0.00  0.00    +0.000 C 
ATOM     29  F   UNL     1       1.262  10.129  21.413  0.00  0.00    +0.000 F 
ATOM     30  F   UNL     1      -0.570  10.999  20.597  0.00  0.00    +0.000 F 
ATOM     31  F   UNL     1      -0.374   8.827  20.771  0.00  0.00    +0.000 F 
ENDBRANCH  25  28
ENDBRANCH  23  25
ENDBRANCH  20  23
ENDBRANCH   1  17
TORSDOF 7
ENDMDL
MODEL 3
REMARK VINA RESULT:      -7.4      4.614      9.336
REMARK  Name = 
REMARK  7 active torsions:
REMARK  status: ('A' for Active; 'I' for Inactive)
REMARK    1  A    between atoms: N_1  and  S_2
REMARK    2  A    between atoms: S_2  and  C_5
REMARK    3  A    between atoms: N_9  and  S_10
REMARK    4  A    between atoms: S_10  and  C_13
REMARK    5  A    between atoms: C_16  and  N_17
REMARK    6  A    between atoms: N_17  and  S_18
REMARK    7  A    between atoms: S_18  and  C_21
REMARK                            x       y       z     vdW  Elec       q    Type
REMARK                         _______ _______ _______ _____ _____    ______ ____
ROOT
ATOM      1  S   UNL     1       1.659   3.020  19.383  0.00  0.00    +0.000 S 
ATOM      2  O   UNL     1       0.730   2.610  18.347  0.00  0.00    +0.000 OA
ATOM      3  O   UNL     1       1.401   2.727  20.775  0.00  0.00    +0.000 OA
ENDROOT
BRANCH   1   8
ATOM      4  C   UNL     1       5.770   4.551  17.461  0.00  0.00    +0.000 A 
ATOM      5  N   UNL     1       5.941   4.587  18.770  0.00  0.00    +0.000 NA
ATOM      6  N   UNL     1       5.018   3.787  19.411  0.00  0.00    +0.000 NA
ATOM      7  C   UNL     1       4.153   3.258  18.575  0.00  0.00    +0.000 A 
ATOM      8  N   UNL     1       3.166   2.395  19.066  0.00  0.00    +0.000 N 
ATOM      9  S   UNL     1       4.483   3.559  16.924  0.00  0.00    +0.000 S 
ATOM     10  H   UNL     1       3.311   1.392  19.107  0.00  0.00    +0.000 HD
BRANCH   4  11
ATOM     11  S   UNL     1       6.795   5.361  16.287  0.00  0.00    +0.000 S 
ATOM     12  O   UNL     1       5.943   5.852  15.231  0.00  0.00    +0.000 OA
ATOM     13  O   UNL     1       7.900   4.462  16.034  0.00  0.00    +0.000 OA
BRANCH  11  14
ATOM     14  N   UNL     1       7.502   6.721  17.012  0.00  0.00    +0.000 NA
ATOM     15  H   UNL     1       7.545   7.485  16.340  0.00  0.00    +0.000 HD
ATOM     16  H   UNL     1       8.420   6.493  17.393  0.00  0.00    +0.000 HD
ENDBRANCH  11  14
ENDBRANCH   4  11
ENDBRANCH   1   8
BRANCH   1  17
ATOM     17  C   UNL     1       1.871   4.792  19.239  0.00  0.00    +0.000 A 
ATOM     18  C   UNL     1       1.963   5.566  20.398  0.00  0.00    +0.000 A 
ATOM     19  C   UNL     1       2.112   6.950  20.310  0.00  0.00    +0.000 A 
ATOM     20  C   UNL     1       2.214   7.568  19.063  0.00  0.00    +0.000 A 
ATOM     21  C   UNL     1       2.178   6.793  17.901  0.00  0.00    +0.000 A 
ATOM     22  C   UNL     1       1.993   5.401  17.983  0.00  0.00    +0.000 A 
BRANCH  20  23
ATOM     23  N   UNL     1       2.331   8.987  18.976  0.00  0.00    +0.000 N 
ATOM     24  H   UNL     1       2.997   9.318  18.274  0.00  0.00    +0.000 HD
BRANCH  23  25
ATOM     25  S   UNL     1       0.900   9.917  18.836  0.00  0.00    +0.000 S 
ATOM     26  O   UNL     1       1.400  11.245  18.519  0.00  0.00    +0.000 OA
ATOM     27  O   UNL     1       0.013   9.252  17.898  0.00  0.00    +0.000 OA
BRANCH  25  28
ATOM     28  C   UNL     1       0.187   9.912  20.566  0.00  0.00    +0.000 C 
ATOM     29  F   UNL     1      -0.484   8.756  20.843  0.00  0.00    +0.000 F 
ATOM     30  F   UNL     1       1.153  10.036  21.522  0.00  0.00    +0.000 F 
ATOM     31  F   UNL     1      -0.694  10.932  20.766  0.00  0.00    +0.000 F 
ENDBRANCH  25  28
ENDBRANCH  23  25
ENDBRANCH  20  23
ENDBRANCH   1  17
TORSDOF 7
ENDMDL
MODEL 4
REMARK VINA RESULT:      -7.4      4.885      9.420
REMARK  Name = 
REMARK  7 active torsions:
REMARK  status: ('A' for Active; 'I' for Inactive)
REMARK    1  A    between atoms: N_1  and  S_2
REMARK    2  A    between atoms: S_2  and  C_5
REMARK    3  A    between atoms: N_9  and  S_10
REMARK    4  A    between atoms: S_10  and  C_13
REMARK    5  A    between atoms: C_16  and  N_17
REMARK    6  A    between atoms: N_17  and  S_18
REMARK    7  A    between atoms: S_18  and  C_21
REMARK                            x       y       z     vdW  Elec       q    Type
REMARK                         _______ _______ _______ _____ _____    ______ ____
ROOT
ATOM      1  S   UNL     1       1.822   3.014  19.638  0.00  0.00    +0.000 S 
ATOM      2  O   UNL     1       0.817   2.491  18.731  0.00  0.00    +0.000 OA
ATOM      3  O   UNL     1       1.700   2.841  21.068  0.00  0.00    +0.000 OA
ENDROOT
BRANCH   1   8
ATOM      4  C   UNL     1       5.814   4.579  17.504  0.00  0.00    +0.000 A 
ATOM      5  N   UNL     1       6.055   4.611  18.802  0.00  0.00    +0.000 NA
ATOM      6  N   UNL     1       5.173   3.803  19.488  0.00  0.00    +0.000 NA
ATOM      7  C   UNL     1       4.267   3.272  18.697  0.00  0.00    +0.000 A 
ATOM      8  N   UNL     1       3.314   2.400  19.238  0.00  0.00    +0.000 N 
ATOM      9  S   UNL     1       4.507   3.580  17.032  0.00  0.00    +0.000 S 
ATOM     10  H   UNL     1       3.467   1.398  19.267  0.00  0.00    +0.000 HD
BRANCH   4  11
ATOM     11  S   UNL     1       6.771   5.399  16.280  0.00  0.00    +0.000 S 
ATOM     12  O   UNL     1       5.861   5.883  15.270  0.00  0.00    +0.000 OA
ATOM     13  O   UNL     1       7.869   4.511  15.969  0.00  0.00    +0.000 OA
BRANCH  11  14
ATOM     14  N   UNL     1       7.501   6.765  16.969  0.00  0.00    +0.000 NA
ATOM     15  H   UNL     1       7.626   6.620  17.969  0.00  0.00    +0.000 HD
ATOM     16  H   UNL     1       6.959   7.606  16.768  0.00  0.00    +0.000 HD
ENDBRANCH  11  14
ENDBRANCH   4  11
ENDBRANCH   1   8
BRANCH   1  17
ATOM     17  C   UNL     1       1.963   4.772  19.321  0.00  0.00    +0.000 A 
ATOM     18  C   UNL     1       2.134   5.648  20.395  0.00  0.00    +0.000 A 
ATOM     19  C   UNL     1       2.231   7.022  20.174  0.00  0.00    +0.000 A 
ATOM     20  C   UNL     1       2.199   7.528  18.874  0.00  0.00    +0.000 A 
ATOM     21  C   UNL     1       2.083   6.652  17.792  0.00  0.00    +0.000 A 
ATOM     22  C   UNL     1       1.951   5.269  18.012  0.00  0.00    +0.000 A 
BRANCH  20  23
ATOM     23  N   UNL     1       2.263   8.936  18.654  0.00  0.00    +0.000 N 
ATOM     24  H   UNL     1       2.660   9.210  17.752  0.00  0.00    +0.000 HD
BRANCH  23  25
ATOM     25  S   UNL     1       0.850   9.867  18.920  0.00  0.00    +0.000 S 
ATOM     26  O   UNL     1       0.043   9.585  17.744  0.00  0.00    +0.000 OA
ATOM     27  O   UNL     1       0.326   9.538  20.234  0.00  0.00    +0.000 OA
BRANCH  25  28
ATOM     28  C   UNL     1       1.457  11.636  18.854  0.00  0.00    +0.000 C 
ATOM     29  F   UNL     1       0.530  12.477  18.309  0.00  0.00    +0.000 F 
ATOM     30  F   UNL     1       1.744  12.129  20.093  0.00  0.00    +0.000 F 
ATOM     31  F   UNL     1       2.589  11.768  18.108  0.00  0.00    +0.000 F 
ENDBRANCH  25  28
ENDBRANCH  23  25
ENDBRANCH  20  23
ENDBRANCH   1  17
TORSDOF 7
ENDMDL
MODEL 5
REMARK VINA RESULT:      -7.4      7.316     10.364
REMARK  Name = 
REMARK  7 active torsions:
REMARK  status: ('A' for Active; 'I' for Inactive)
REMARK    1  A    between atoms: N_1  and  S_2
REMARK    2  A    between atoms: S_2  and  C_5
REMARK    3  A    between atoms: N_9  and  S_10
REMARK    4  A    between atoms: S_10  and  C_13
REMARK    5  A    between atoms: C_16  and  N_17
REMARK    6  A    between atoms: N_17  and  S_18
REMARK    7  A    between atoms: S_18  and  C_21
REMARK                            x       y       z     vdW  Elec       q    Type
REMARK                         _______ _______ _______ _____ _____    ______ ____
ROOT
ATOM      1  S   UNL     1       7.092   6.426  17.603  0.00  0.00    +0.000 S 
ATOM      2  O   UNL     1       7.832   6.662  18.829  0.00  0.00    +0.000 OA
ATOM      3  O   UNL     1       6.912   7.477  16.627  0.00  0.00    +0.000 OA
ENDROOT
BRANCH   1   8
ATOM      4  C   UNL     1       6.437   4.218  13.404  0.00  0.00    +0.000 A 
ATOM      5  N   UNL     1       7.475   5.018  13.240  0.00  0.00    +0.000 NA
ATOM      6  N   UNL     1       8.020   5.376  14.455  0.00  0.00    +0.000 NA
ATOM      7  C   UNL     1       7.328   4.904  15.468  0.00  0.00    +0.000 A 
ATOM      8  N   UNL     1       7.769   5.155  16.774  0.00  0.00    +0.000 N 
ATOM      9  S   UNL     1       6.051   3.854  15.031  0.00  0.00    +0.000 S 
ATOM     10  H   UNL     1       8.384   4.511  17.259  0.00  0.00    +0.000 HD
BRANCH   4  11
ATOM     11  S   UNL     1       5.524   3.470  12.103  0.00  0.00    +0.000 S 
ATOM     12  O   UNL     1       5.819   4.197  10.892  0.00  0.00    +0.000 OA
ATOM     13  O   UNL     1       4.175   3.311  12.600  0.00  0.00    +0.000 OA
BRANCH  11  14
ATOM     14  N   UNL     1       6.088   1.888  11.867  0.00  0.00    +0.000 NA
ATOM     15  H   UNL     1       5.574   1.451  11.105  0.00  0.00    +0.000 HD
ATOM     16  H   UNL     1       6.025   1.350  12.731  0.00  0.00    +0.000 HD
ENDBRANCH  11  14
ENDBRANCH   4  11
ENDBRANCH   1   8
BRANCH   1  17
ATOM     17  C   UNL     1       5.464   5.841  18.066  0.00  0.00    +0.000 A 
ATOM     18  C   UNL     1       5.320   5.054  19.210  0.00  0.00    +0.000 A 
ATOM     19  C   UNL     1       4.064   4.574  19.581  0.00  0.00    +0.000 A 
ATOM     20  C   UNL     1       2.935   4.911  18.835  0.00  0.00    +0.000 A 
ATOM     21  C   UNL     1       3.065   5.743  17.720  0.00  0.00    +0.000 A 
ATOM     22  C   UNL     1       4.333   6.201  17.322  0.00  0.00    +0.000 A 
BRANCH  20  23
ATOM     23  N   UNL     1       1.658   4.390  19.196  0.00  0.00    +0.000 N 
ATOM     24  H   UNL     1       0.914   4.570  18.517  0.00  0.00    +0.000 HD
BRANCH  23  25
ATOM     25  S   UNL     1       1.553   2.750  19.680  0.00  0.00    +0.000 S 
ATOM     26  O   UNL     1       0.155   2.427  19.445  0.00  0.00    +0.000 OA
ATOM     27  O   UNL     1       2.580   2.000  18.978  0.00  0.00    +0.000 OA
BRANCH  25  28
ATOM     28  C   UNL     1       1.883   2.799  21.521  0.00  0.00    +0.000 C 
ATOM     29  F   UNL     1       2.075   4.073  21.975  0.00  0.00    +0.000 F 
ATOM     30  F   UNL     1       0.848   2.283  22.244  0.00  0.00    +0.000 F 
ATOM     31  F   UNL     1       2.995   2.091  21.867  0.00  0.00    +0.000 F 
ENDBRANCH  25  28
ENDBRANCH  23  25
ENDBRANCH  20  23
ENDBRANCH   1  17
TORSDOF 7
ENDMDL
MODEL 6
REMARK VINA RESULT:      -7.4      4.337      9.272
REMARK  Name = 
REMARK  7 active torsions:
REMARK  status: ('A' for Active; 'I' for Inactive)
REMARK    1  A    between atoms: N_1  and  S_2
REMARK    2  A    between atoms: S_2  and  C_5
REMARK    3  A    between atoms: N_9  and  S_10
REMARK    4  A    between atoms: S_10  and  C_13
REMARK    5  A    between atoms: C_16  and  N_17
REMARK    6  A    between atoms: N_17  and  S_18
REMARK    7  A    between atoms: S_18  and  C_21
REMARK                            x       y       z     vdW  Elec       q    Type
REMARK                         _______ _______ _______ _____ _____    ______ ____
ROOT
ATOM      1  S   UNL     1       1.768   2.818  19.361  0.00  0.00    +0.000 S 
ATOM      2  O   UNL     1       0.937   2.454  18.229  0.00  0.00    +0.000 OA
ATOM      3  O   UNL     1       1.439   2.382  20.700  0.00  0.00    +0.000 OA
ENDROOT
BRANCH   1   8
ATOM      4  C   UNL     1       5.780   4.632  17.478  0.00  0.00    +0.000 A 
ATOM      5  N   UNL     1       5.916   4.723  18.789  0.00  0.00    +0.000 NA
ATOM      6  N   UNL     1       5.049   3.867  19.436  0.00  0.00    +0.000 NA
ATOM      7  C   UNL     1       4.252   3.242  18.599  0.00  0.00    +0.000 A 
ATOM      8  N   UNL     1       3.329   2.313  19.098  0.00  0.00    +0.000 N 
ATOM      9  S   UNL     1       4.595   3.518  16.946  0.00  0.00    +0.000 S 
ATOM     10  H   UNL     1       3.558   1.328  19.175  0.00  0.00    +0.000 HD
BRANCH   4  11
ATOM     11  S   UNL     1       6.763   5.489  16.301  0.00  0.00    +0.000 S 
ATOM     12  O   UNL     1       5.869   6.058  15.321  0.00  0.00    +0.000 OA
ATOM     13  O   UNL     1       7.832   4.585  15.938  0.00  0.00    +0.000 OA
BRANCH  11  14
ATOM     14  N   UNL     1       7.536   6.790  17.065  0.00  0.00    +0.000 NA
ATOM     15  H   UNL     1       7.407   7.638  16.515  0.00  0.00    +0.000 HD
ATOM     16  H   UNL     1       8.522   6.582  17.223  0.00  0.00    +0.000 HD
ENDBRANCH  11  14
ENDBRANCH   4  11
ENDBRANCH   1   8
BRANCH   1  17
ATOM     17  C   UNL     1       1.875   4.605  19.392  0.00  0.00    +0.000 A 
ATOM     18  C   UNL     1       1.955   5.264  20.621  0.00  0.00    +0.000 A 
ATOM     19  C   UNL     1       2.024   6.657  20.669  0.00  0.00    +0.000 A 
ATOM     20  C   UNL     1       2.055   7.400  19.490  0.00  0.00    +0.000 A 
ATOM     21  C   UNL     1       2.031   6.744  18.257  0.00  0.00    +0.000 A 
ATOM     22  C   UNL     1       1.926   5.342  18.202  0.00  0.00    +0.000 A 
BRANCH  20  23
ATOM     23  N   UNL     1       2.089   8.825  19.544  0.00  0.00    +0.000 N 
ATOM     24  H   UNL     1       2.377   9.279  18.673  0.00  0.00    +0.000 HD
BRANCH  23  25
ATOM     25  S   UNL     1       0.716   9.652  20.147  0.00  0.00    +0.000 S 
ATOM     26  O   UNL     1       0.002   8.615  20.875  0.00  0.00    +0.000 OA
ATOM     27  O   UNL     1       1.171  10.832  20.862  0.00  0.00    +0.000 OA
BRANCH  25  28
ATOM     28  C   UNL     1      -0.245  10.114  18.610  0.00  0.00    +0.000 C 
ATOM     29  F   UNL     1      -0.156  11.447  18.330  0.00  0.00    +0.000 F 
ATOM     30  F   UNL     1       0.205   9.455  17.504  0.00  0.00    +0.000 F 
ATOM     31  F   UNL     1      -1.572   9.828  18.724  0.00  0.00    +0.000 F 
ENDBRANCH  25  28
ENDBRANCH  23  25
ENDBRANCH  20  23
ENDBRANCH   1  17
TORSDOF 7
ENDMDL
MODEL 7
REMARK VINA RESULT:      -7.3      1.693      2.152
REMARK  Name = 
REMARK  7 active torsions:
REMARK  status: ('A' for Active; 'I' for Inactive)
REMARK    1  A    between atoms: N_1  and  S_2
REMARK    2  A    between atoms: S_2  and  C_5
REMARK    3  A    between atoms: N_9  and  S_10
REMARK    4  A    between atoms: S_10  and  C_13
REMARK    5  A    between atoms: C_16  and  N_17
REMARK    6  A    between atoms: N_17  and  S_18
REMARK    7  A    between atoms: S_18  and  C_21
REMARK                            x       y       z     vdW  Elec       q    Type
REMARK                         _______ _______ _______ _____ _____    ______ ____
ROOT
ATOM      1  S   UNL     1       0.907  10.717  19.151  0.00  0.00    +0.000 S 
ATOM      2  O   UNL     1      -0.514  10.608  18.880  0.00  0.00    +0.000 OA
ATOM      3  O   UNL     1       1.776  11.479  18.284  0.00  0.00    +0.000 OA
ENDROOT
BRANCH   1   8
ATOM      4  C   UNL     1      -1.812  12.132  22.831  0.00  0.00    +0.000 A 
ATOM      5  N   UNL     1      -1.380  10.922  23.138  0.00  0.00    +0.000 NA
ATOM      6  N   UNL     1      -0.274  10.588  22.386  0.00  0.00    +0.000 NA
ATOM      7  C   UNL     1       0.023  11.512  21.500  0.00  0.00    +0.000 A 
ATOM      8  N   UNL     1       1.142  11.335  20.676  0.00  0.00    +0.000 N 
ATOM      9  S   UNL     1      -0.917  12.936  21.614  0.00  0.00    +0.000 S 
ATOM     10  H   UNL     1       2.055  11.692  20.937  0.00  0.00    +0.000 HD
BRANCH   4  11
ATOM     11  S   UNL     1      -3.142  12.960  23.627  0.00  0.00    +0.000 S 
ATOM     12  O   UNL     1      -2.585  14.072  24.358  0.00  0.00    +0.000 OA
ATOM     13  O   UNL     1      -3.929  11.929  24.268  0.00  0.00    +0.000 OA
BRANCH  11  14
ATOM     14  N   UNL     1      -4.169  13.619  22.450  0.00  0.00    +0.000 NA
ATOM     15  H   UNL     1      -3.756  13.498  21.527  0.00  0.00    +0.000 HD
ATOM     16  H   UNL     1      -4.372  14.598  22.654  0.00  0.00    +0.000 HD
ENDBRANCH  11  14
ENDBRANCH   4  11
ENDBRANCH   1   8
BRANCH   1  17
ATOM     17  C   UNL     1       1.563   9.053  19.238  0.00  0.00    +0.000 A 
ATOM     18  C   UNL     1       2.319   8.560  18.173  0.00  0.00    +0.000 A 
ATOM     19  C   UNL     1       2.827   7.261  18.212  0.00  0.00    +0.000 A 
ATOM     20  C   UNL     1       2.619   6.459  19.334  0.00  0.00    +0.000 A 
ATOM     21  C   UNL     1       1.911   6.966  20.426  0.00  0.00    +0.000 A 
ATOM     22  C   UNL     1       1.367   8.262  20.378  0.00  0.00    +0.000 A 
BRANCH  20  23
ATOM     23  N   UNL     1       3.110   5.120  19.356  0.00  0.00    +0.000 N 
ATOM     24  H   UNL     1       3.303   4.751  20.290  0.00  0.00    +0.000 HD
BRANCH  23  25
ATOM     25  S   UNL     1       2.256   3.924  18.476  0.00  0.00    +0.000 S 
ATOM     26  O   UNL     1       1.426   4.708  17.576  0.00  0.00    +0.000 OA
ATOM     27  O   UNL     1       3.221   2.992  17.918  0.00  0.00    +0.000 OA
BRANCH  25  28
ATOM     28  C   UNL     1       1.178   3.099  19.763  0.00  0.00    +0.000 C 
ATOM     29  F   UNL     1       1.889   2.251  20.562  0.00  0.00    +0.000 F 
ATOM     30  F   UNL     1       0.582   4.003  20.592  0.00  0.00    +0.000 F 
ATOM     31  F   UNL     1       0.178   2.361  19.205  0.00  0.00    +0.000 F 
ENDBRANCH  25  28
ENDBRANCH  23  25
ENDBRANCH  20  23
ENDBRANCH   1  17
TORSDOF 7
ENDMDL
MODEL 8
REMARK VINA RESULT:      -7.3      1.565      1.807
REMARK  Name = 
REMARK  7 active torsions:
REMARK  status: ('A' for Active; 'I' for Inactive)
REMARK    1  A    between atoms: N_1  and  S_2
REMARK    2  A    between atoms: S_2  and  C_5
REMARK    3  A    between atoms: N_9  and  S_10
REMARK    4  A    between atoms: S_10  and  C_13
REMARK    5  A    between atoms: C_16  and  N_17
REMARK    6  A    between atoms: N_17  and  S_18
REMARK    7  A    between atoms: S_18  and  C_21
REMARK                            x       y       z     vdW  Elec       q    Type
REMARK                         _______ _______ _______ _____ _____    ______ ____
ROOT
ATOM      1  S   UNL     1       0.515  10.694  19.453  0.00  0.00    +0.000 S 
ATOM      2  O   UNL     1      -0.900  10.435  19.263  0.00  0.00    +0.000 OA
ATOM      3  O   UNL     1       1.222  11.632  18.611  0.00  0.00    +0.000 OA
ENDROOT
BRANCH   1   8
ATOM      4  C   UNL     1      -2.042  12.557  23.049  0.00  0.00    +0.000 A 
ATOM      5  N   UNL     1      -1.902  11.273  23.325  0.00  0.00    +0.000 NA
ATOM      6  N   UNL     1      -0.853  10.727  22.616  0.00  0.00    +0.000 NA
ATOM      7  C   UNL     1      -0.310  11.590  21.787  0.00  0.00    +0.000 A 
ATOM      8  N   UNL     1       0.789  11.198  21.013  0.00  0.00    +0.000 N 
ATOM      9  S   UNL     1      -0.923  13.182  21.915  0.00  0.00    +0.000 S 
ATOM     10  H   UNL     1       1.741  11.337  21.335  0.00  0.00    +0.000 HD
BRANCH   4  11
ATOM     11  S   UNL     1      -3.203  13.632  23.812  0.00  0.00    +0.000 S 
ATOM     12  O   UNL     1      -4.056  14.157  22.773  0.00  0.00    +0.000 OA
ATOM     13  O   UNL     1      -2.438  14.490  24.690  0.00  0.00    +0.000 OA
BRANCH  11  14
ATOM     14  N   UNL     1      -4.198  12.730  24.847  0.00  0.00    +0.000 NA
ATOM     15  H   UNL     1      -3.689  11.919  25.193  0.00  0.00    +0.000 HD
ATOM     16  H   UNL     1      -5.065  12.468  24.377  0.00  0.00    +0.000 HD
ENDBRANCH  11  14
ENDBRANCH   4  11
ENDBRANCH   1   8
BRANCH   1  17
ATOM     17  C   UNL     1       1.366   9.122  19.336  0.00  0.00    +0.000 A 
ATOM     18  C   UNL     1       1.352   8.254  20.429  0.00  0.00    +0.000 A 
ATOM     19  C   UNL     1       2.021   7.032  20.365  0.00  0.00    +0.000 A 
ATOM     20  C   UNL     1       2.675   6.649  19.194  0.00  0.00    +0.000 A 
ATOM     21  C   UNL     1       2.646   7.489  18.078  0.00  0.00    +0.000 A 
ATOM     22  C   UNL     1       2.002   8.738  18.148  0.00  0.00    +0.000 A 
BRANCH  20  23
ATOM     23  N   UNL     1       3.388   5.415  19.144  0.00  0.00    +0.000 N 
ATOM     24  H   UNL     1       3.978   5.229  19.959  0.00  0.00    +0.000 HD
BRANCH  23  25
ATOM     25  S   UNL     1       2.519   3.985  18.777  0.00  0.00    +0.000 S 
ATOM     26  O   UNL     1       1.513   4.445  17.833  0.00  0.00    +0.000 OA
ATOM     27  O   UNL     1       3.468   2.968  18.360  0.00  0.00    +0.000 OA
BRANCH  25  28
ATOM     28  C   UNL     1       1.697   3.527  20.394  0.00  0.00    +0.000 C 
ATOM     29  F   UNL     1       0.467   4.104  20.527  0.00  0.00    +0.000 F 
ATOM     30  F   UNL     1       1.508   2.182  20.513  0.00  0.00    +0.000 F 
ATOM     31  F   UNL     1       2.429   3.917  21.475  0.00  0.00    +0.000 F 
ENDBRANCH  25  28
ENDBRANCH  23  25
ENDBRANCH  20  23
ENDBRANCH   1  17
TORSDOF 7
ENDMDL
MODEL 9
REMARK VINA RESULT:      -7.3      4.623      9.336
REMARK  Name = 
REMARK  7 active torsions:
REMARK  status: ('A' for Active; 'I' for Inactive)
REMARK    1  A    between atoms: N_1  and  S_2
REMARK    2  A    between atoms: S_2  and  C_5
REMARK    3  A    between atoms: N_9  and  S_10
REMARK    4  A    between atoms: S_10  and  C_13
REMARK    5  A    between atoms: C_16  and  N_17
REMARK    6  A    between atoms: N_17  and  S_18
REMARK    7  A    between atoms: S_18  and  C_21
REMARK                            x       y       z     vdW  Elec       q    Type
REMARK                         _______ _______ _______ _____ _____    ______ ____
ROOT
ATOM      1  S   UNL     1       1.685   2.904  19.375  0.00  0.00    +0.000 S 
ATOM      2  O   UNL     1       0.688   2.518  18.395  0.00  0.00    +0.000 OA
ATOM      3  O   UNL     1       1.538   2.551  20.769  0.00  0.00    +0.000 OA
ENDROOT
BRANCH   1   8
ATOM      4  C   UNL     1       5.808   4.695  17.722  0.00  0.00    +0.000 A 
ATOM      5  N   UNL     1       5.995   4.474  19.011  0.00  0.00    +0.000 NA
ATOM      6  N   UNL     1       5.062   3.583  19.499  0.00  0.00    +0.000 NA
ATOM      7  C   UNL     1       4.175   3.244  18.590  0.00  0.00    +0.000 A 
ATOM      8  N   UNL     1       3.174   2.322  18.921  0.00  0.00    +0.000 N 
ATOM      9  S   UNL     1       4.494   3.851  17.023  0.00  0.00    +0.000 S 
ATOM     10  H   UNL     1       3.297   1.327  18.766  0.00  0.00    +0.000 HD
BRANCH   4  11
ATOM     11  S   UNL     1       6.840   5.695  16.711  0.00  0.00    +0.000 S 
ATOM     12  O   UNL     1       7.898   6.209  17.546  0.00  0.00    +0.000 OA
ATOM     13  O   UNL     1       5.952   6.561  15.967  0.00  0.00    +0.000 OA
BRANCH  11  14
ATOM     14  N   UNL     1       7.579   4.720  15.537  0.00  0.00    +0.000 NA
ATOM     15  H   UNL     1       6.866   4.248  14.984  0.00  0.00    +0.000 HD
ATOM     16  H   UNL     1       8.228   4.063  15.968  0.00  0.00    +0.000 HD
ENDBRANCH  11  14
ENDBRANCH   4  11
ENDBRANCH   1   8
BRANCH   1  17
ATOM     17  C   UNL     1       1.857   4.685  19.290  0.00  0.00    +0.000 A 
ATOM     18  C   UNL     1       1.877   5.311  18.042  0.00  0.00    +0.000 A 
ATOM     19  C   UNL     1       2.026   6.695  17.951  0.00  0.00    +0.000 A 
ATOM     20  C   UNL     1       2.114   7.469  19.108  0.00  0.00    +0.000 A 
ATOM     21  C   UNL     1       2.040   6.855  20.360  0.00  0.00    +0.000 A 
ATOM     22  C   UNL     1       1.925   5.457  20.458  0.00  0.00    +0.000 A 
BRANCH  20  23
ATOM     23  N   UNL     1       2.302   8.880  19.011  0.00  0.00    +0.000 N 
ATOM     24  H   UNL     1       2.974   9.174  18.298  0.00  0.00    +0.000 HD
BRANCH  23  25
ATOM     25  S   UNL     1       0.918   9.880  18.884  0.00  0.00    +0.000 S 
ATOM     26  O   UNL     1       1.483  11.192  18.613  0.00  0.00    +0.000 OA
ATOM     27  O   UNL     1       0.011   9.287  17.916  0.00  0.00    +0.000 OA
BRANCH  25  28
ATOM     28  C   UNL     1       0.185   9.858  20.605  0.00  0.00    +0.000 C 
ATOM     29  F   UNL     1      -0.669  10.903  20.814  0.00  0.00    +0.000 F 
ATOM     30  F   UNL     1      -0.530   8.721  20.846  0.00  0.00    +0.000 F 
ATOM     31  F   UNL     1       1.138   9.935  21.575  0.00  0.00    +0.000 F 
ENDBRANCH  25  28
ENDBRANCH  23  25
ENDBRANCH  20  23
ENDBRANCH   1  17
TORSDOF 7
ENDMDL
