MODEL 1
REMARK VINA RESULT:      -8.4      0.000      0.000
REMARK  Name = 
REMARK  6 active torsions:
REMARK  status: ('A' for Active; 'I' for Inactive)
REMARK    1  A    between atoms: N_1  and  C_2
REMARK    2  A    between atoms: C_4  and  C_5
REMARK    3  A    between atoms: C_7  and  C_8
REMARK    4  A    between atoms: C_11  and  O_12
REMARK    5  A    between atoms: O_12  and  C_13
REMARK    6  A    between atoms: C_26  and  O_27
REMARK                            x       y       z     vdW  Elec       q    Type
REMARK                         _______ _______ _______ _____ _____    ______ ____
ROOT
ATOM      1  C   UNL     1       2.368   6.832  19.847  0.00  0.00    +0.000 A 
ATOM      2  N   UNL     1       1.776   7.389  20.880  0.00  0.00    +0.000 NA
ATOM      3  C   UNL     1       1.310   8.576  20.355  0.00  0.00    +0.000 A 
ATOM      4  N   UNL     1       1.591   8.741  19.051  0.00  0.00    +0.000 NA
ATOM      5  O   UNL     1       2.291   7.589  18.715  0.00  0.00    +0.000 OA
ENDROOT
BRANCH   1   8
ATOM      6  C   UNL     1       4.957   4.214  19.044  0.00  0.00    +0.000 A 
ATOM      7  C   UNL     1       4.322   5.451  19.118  0.00  0.00    +0.000 A 
ATOM      8  C   UNL     1       3.076   5.571  19.750  0.00  0.00    +0.000 A 
ATOM      9  C   UNL     1       2.529   4.421  20.316  0.00  0.00    +0.000 A 
ATOM     10  N   UNL     1       3.126   3.204  20.306  0.00  0.00    +0.000 NA
ATOM     11  C   UNL     1       4.320   3.155  19.693  0.00  0.00    +0.000 A 
BRANCH   6  12
ATOM     12  N   UNL     1       6.267   4.115  18.553  0.00  0.00    +0.000 N 
ATOM     13  H   UNL     1       6.984   4.468  19.178  0.00  0.00    +0.000 HD
ATOM     14  H   UNL     1       6.339   4.494  17.610  0.00  0.00    +0.000 HD
ENDBRANCH   6  12
BRANCH  11  15
ATOM     15  O   UNL     1       4.894   1.923  19.723  0.00  0.00    +0.000 OA
ATOM     16  H   UNL     1       5.303   1.953  20.607  0.00  0.00    +0.000 HD
ENDBRANCH  11  15
ENDBRANCH   1   8
BRANCH   3  17
ATOM     17  C   UNL     1       0.599   9.560  21.159  0.00  0.00    +0.000 A 
ATOM     18  C   UNL     1       0.623  10.919  20.810  0.00  0.00    +0.000 A 
ATOM     19  C   UNL     1      -0.104  11.854  21.552  0.00  0.00    +0.000 A 
ATOM     20  C   UNL     1      -0.862  11.442  22.647  0.00  0.00    +0.000 A 
ATOM     21  C   UNL     1      -0.830  10.104  23.048  0.00  0.00    +0.000 A 
ATOM     22  C   UNL     1      -0.129   9.165  22.290  0.00  0.00    +0.000 A 
BRANCH  20  23
ATOM     23  O   UNL     1      -1.568  12.423  23.305  0.00  0.00    +0.000 OA
BRANCH  23  24
ATOM     24  C   UNL     1      -2.919  12.561  23.075  0.00  0.00    +0.000 A 
ATOM     25  C   UNL     1      -3.731  12.553  24.214  0.00  0.00    +0.000 A 
ATOM     26  C   UNL     1      -5.115  12.682  24.087  0.00  0.00    +0.000 A 
ATOM     27  C   UNL     1      -5.675  12.819  22.821  0.00  0.00    +0.000 A 
ATOM     28  F   UNL     1      -7.005  12.921  22.698  0.00  0.00    +0.000 F 
ATOM     29  C   UNL     1      -4.878  12.860  21.684  0.00  0.00    +0.000 A 
ATOM     30  C   UNL     1      -3.492  12.760  21.814  0.00  0.00    +0.000 A 
ENDBRANCH  23  24
ENDBRANCH  20  23
ENDBRANCH   3  17
TORSDOF 6
ENDMDL
MODEL 2
REMARK VINA RESULT:      -8.3      8.050     10.781
REMARK  Name = 
REMARK  6 active torsions:
REMARK  status: ('A' for Active; 'I' for Inactive)
REMARK    1  A    between atoms: N_1  and  C_2
REMARK    2  A    between atoms: C_4  and  C_5
REMARK    3  A    between atoms: C_7  and  C_8
REMARK    4  A    between atoms: C_11  and  O_12
REMARK    5  A    between atoms: O_12  and  C_13
REMARK    6  A    between atoms: C_26  and  O_27
REMARK                            x       y       z     vdW  Elec       q    Type
REMARK                         _______ _______ _______ _____ _____    ______ ____
ROOT
ATOM      1  C   UNL     1       8.738   9.958  18.101  0.00  0.00    +0.000 A 
ATOM      2  N   UNL     1       7.884   9.236  17.411  0.00  0.00    +0.000 NA
ATOM      3  C   UNL     1       7.892   8.035  18.087  0.00  0.00    +0.000 A 
ATOM      4  N   UNL     1       8.706   8.017  19.156  0.00  0.00    +0.000 NA
ATOM      5  O   UNL     1       9.266   9.289  19.166  0.00  0.00    +0.000 OA
ENDROOT
BRANCH   1   8
ATOM      6  C   UNL     1       8.785  13.684  17.532  0.00  0.00    +0.000 A 
ATOM      7  C   UNL     1       8.300  12.395  17.741  0.00  0.00    +0.000 A 
ATOM      8  C   UNL     1       9.188  11.320  17.890  0.00  0.00    +0.000 A 
ATOM      9  C   UNL     1      10.553  11.602  17.851  0.00  0.00    +0.000 A 
ATOM     10  N   UNL     1      11.073  12.844  17.690  0.00  0.00    +0.000 NA
ATOM     11  C   UNL     1      10.172  13.832  17.560  0.00  0.00    +0.000 A 
BRANCH   6  12
ATOM     12  N   UNL     1       7.913  14.782  17.537  0.00  0.00    +0.000 N 
ATOM     13  H   UNL     1       7.319  14.857  16.718  0.00  0.00    +0.000 HD
ATOM     14  H   UNL     1       8.407  15.647  17.752  0.00  0.00    +0.000 HD
ENDBRANCH   6  12
BRANCH  11  15
ATOM     15  O   UNL     1      10.735  15.063  17.423  0.00  0.00    +0.000 OA
ATOM     16  H   UNL     1       9.930  15.611  17.407  0.00  0.00    +0.000 HD
ENDBRANCH  11  15
ENDBRANCH   1   8
BRANCH   3  17
ATOM     17  C   UNL     1       7.100   6.891  17.656  0.00  0.00    +0.000 A 
ATOM     18  C   UNL     1       7.194   5.664  18.329  0.00  0.00    +0.000 A 
ATOM     19  C   UNL     1       6.393   4.583  17.948  0.00  0.00    +0.000 A 
ATOM     20  C   UNL     1       5.493   4.717  16.891  0.00  0.00    +0.000 A 
ATOM     21  C   UNL     1       5.449   5.910  16.166  0.00  0.00    +0.000 A 
ATOM     22  C   UNL     1       6.225   6.999  16.566  0.00  0.00    +0.000 A 
BRANCH  20  23
ATOM     23  O   UNL     1       4.726   3.613  16.599  0.00  0.00    +0.000 OA
BRANCH  23  24
ATOM     24  C   UNL     1       3.557   3.392  17.293  0.00  0.00    +0.000 A 
ATOM     25  C   UNL     1       3.433   2.131  17.885  0.00  0.00    +0.000 A 
ATOM     26  C   UNL     1       2.283   1.808  18.608  0.00  0.00    +0.000 A 
ATOM     27  C   UNL     1       1.267   2.749  18.732  0.00  0.00    +0.000 A 
ATOM     28  F   UNL     1       0.155   2.431  19.408  0.00  0.00    +0.000 F 
ATOM     29  C   UNL     1       1.391   4.016  18.177  0.00  0.00    +0.000 A 
ATOM     30  C   UNL     1       2.552   4.349  17.479  0.00  0.00    +0.000 A 
ENDBRANCH  23  24
ENDBRANCH  20  23
ENDBRANCH   3  17
TORSDOF 6
ENDMDL
MODEL 3
REMARK VINA RESULT:      -8.2      4.334     10.366
REMARK  Name = 
REMARK  6 active torsions:
REMARK  status: ('A' for Active; 'I' for Inactive)
REMARK    1  A    between atoms: N_1  and  C_2
REMARK    2  A    between atoms: C_4  and  C_5
REMARK    3  A    between atoms: C_7  and  C_8
REMARK    4  A    between atoms: C_11  and  O_12
REMARK    5  A    between atoms: O_12  and  C_13
REMARK    6  A    between atoms: C_26  and  O_27
REMARK                            x       y       z     vdW  Elec       q    Type
REMARK                         _______ _______ _______ _____ _____    ______ ____
ROOT
ATOM      1  C   UNL     1      -0.832  11.136  22.548  0.00  0.00    +0.000 A 
ATOM      2  N   UNL     1      -0.484  10.722  21.351  0.00  0.00    +0.000 NA
ATOM      3  C   UNL     1       0.415   9.715  21.631  0.00  0.00    +0.000 A 
ATOM      4  N   UNL     1       0.606   9.507  22.945  0.00  0.00    +0.000 NA
ATOM      5  O   UNL     1      -0.218  10.447  23.552  0.00  0.00    +0.000 OA
ENDROOT
BRANCH   1   8
ATOM      6  C   UNL     1      -3.819  12.996  23.899  0.00  0.00    +0.000 A 
ATOM      7  C   UNL     1      -2.977  11.942  23.551  0.00  0.00    +0.000 A 
ATOM      8  C   UNL     1      -1.742  12.195  22.938  0.00  0.00    +0.000 A 
ATOM      9  C   UNL     1      -1.390  13.527  22.725  0.00  0.00    +0.000 A 
ATOM     10  N   UNL     1      -2.155  14.588  23.082  0.00  0.00    +0.000 NA
ATOM     11  C   UNL     1      -3.323  14.281  23.671  0.00  0.00    +0.000 A 
BRANCH   6  12
ATOM     12  N   UNL     1      -4.980  12.762  24.649  0.00  0.00    +0.000 N 
ATOM     13  H   UNL     1      -5.383  13.588  25.079  0.00  0.00    +0.000 HD
ATOM     14  H   UNL     1      -4.848  11.995  25.307  0.00  0.00    +0.000 HD
ENDBRANCH   6  12
BRANCH  11  15
ATOM     15  O   UNL     1      -4.050  15.372  24.032  0.00  0.00    +0.000 OA
ATOM     16  H   UNL     1      -4.621  15.458  23.247  0.00  0.00    +0.000 HD
ENDBRANCH  11  15
ENDBRANCH   1   8
BRANCH   3  17
ATOM     17  C   UNL     1       1.102   8.968  20.587  0.00  0.00    +0.000 A 
ATOM     18  C   UNL     1       1.691   7.726  20.867  0.00  0.00    +0.000 A 
ATOM     19  C   UNL     1       2.304   6.986  19.851  0.00  0.00    +0.000 A 
ATOM     20  C   UNL     1       2.333   7.479  18.547  0.00  0.00    +0.000 A 
ATOM     21  C   UNL     1       1.819   8.749  18.275  0.00  0.00    +0.000 A 
ATOM     22  C   UNL     1       1.180   9.474  19.282  0.00  0.00    +0.000 A 
BRANCH  20  23
ATOM     23  O   UNL     1       2.933   6.675  17.605  0.00  0.00    +0.000 OA
BRANCH  23  24
ATOM     24  C   UNL     1       2.938   5.309  17.779  0.00  0.00    +0.000 A 
ATOM     25  C   UNL     1       4.179   4.742  18.086  0.00  0.00    +0.000 A 
ATOM     26  C   UNL     1       4.290   3.364  18.278  0.00  0.00    +0.000 A 
ATOM     27  C   UNL     1       3.158   2.564  18.161  0.00  0.00    +0.000 A 
ATOM     28  F   UNL     1       3.268   1.239  18.325  0.00  0.00    +0.000 F 
ATOM     29  C   UNL     1       1.913   3.118  17.889  0.00  0.00    +0.000 A 
ATOM     30  C   UNL     1       1.797   4.498  17.725  0.00  0.00    +0.000 A 
ENDBRANCH  23  24
ENDBRANCH  20  23
ENDBRANCH   3  17
TORSDOF 6
ENDMDL
MODEL 4
REMARK VINA RESULT:      -8.2      4.333     10.111
REMARK  Name = 
REMARK  6 active torsions:
REMARK  status: ('A' for Active; 'I' for Inactive)
REMARK    1  A    between atoms: N_1  and  C_2
REMARK    2  A    between atoms: C_4  and  C_5
REMARK    3  A    between atoms: C_7  and  C_8
REMARK    4  A    between atoms: C_11  and  O_12
REMARK    5  A    between atoms: O_12  and  C_13
REMARK    6  A    between atoms: C_26  and  O_27
REMARK                            x       y       z     vdW  Elec       q    Type
REMARK                         _______ _______ _______ _____ _____    ______ ____
ROOT
ATOM      1  C   UNL     1      -1.394  11.899  21.496  0.00  0.00    +0.000 A 
ATOM      2  N   UNL     1      -0.429  11.007  21.505  0.00  0.00    +0.000 NA
ATOM      3  C   UNL     1      -0.326  10.663  20.174  0.00  0.00    +0.000 A 
ATOM      4  N   UNL     1      -1.183  11.321  19.374  0.00  0.00    +0.000 NA
ATOM      5  O   UNL     1      -1.890  12.138  20.248  0.00  0.00    +0.000 OA
ENDROOT
BRANCH   1   8
ATOM      6  C   UNL     1      -3.718  12.969  24.263  0.00  0.00    +0.000 A 
ATOM      7  C   UNL     1      -3.180  12.223  23.217  0.00  0.00    +0.000 A 
ATOM      8  C   UNL     1      -1.992  12.632  22.594  0.00  0.00    +0.000 A 
ATOM      9  C   UNL     1      -1.372  13.780  23.083  0.00  0.00    +0.000 A 
ATOM     10  N   UNL     1      -1.834  14.516  24.123  0.00  0.00    +0.000 NA
ATOM     11  C   UNL     1      -2.971  14.070  24.682  0.00  0.00    +0.000 A 
BRANCH   6  12
ATOM     12  N   UNL     1      -4.816  12.486  24.990  0.00  0.00    +0.000 N 
ATOM     13  H   UNL     1      -5.722  12.703  24.588  0.00  0.00    +0.000 HD
ATOM     14  H   UNL     1      -4.747  12.737  25.976  0.00  0.00    +0.000 HD
ENDBRANCH   6  12
BRANCH  11  15
ATOM     15  O   UNL     1      -3.388  14.824  25.735  0.00  0.00    +0.000 OA
ATOM     16  H   UNL     1      -4.225  15.164  25.373  0.00  0.00    +0.000 HD
ENDBRANCH  11  15
ENDBRANCH   1   8
BRANCH   3  17
ATOM     17  C   UNL     1       0.615   9.659  19.697  0.00  0.00    +0.000 A 
ATOM     18  C   UNL     1       1.098   8.666  20.561  0.00  0.00    +0.000 A 
ATOM     19  C   UNL     1       1.960   7.671  20.087  0.00  0.00    +0.000 A 
ATOM     20  C   UNL     1       2.346   7.661  18.748  0.00  0.00    +0.000 A 
ATOM     21  C   UNL     1       1.933   8.690  17.899  0.00  0.00    +0.000 A 
ATOM     22  C   UNL     1       1.048   9.664  18.364  0.00  0.00    +0.000 A 
BRANCH  20  23
ATOM     23  O   UNL     1       3.175   6.633  18.360  0.00  0.00    +0.000 OA
BRANCH  23  24
ATOM     24  C   UNL     1       2.840   5.333  18.672  0.00  0.00    +0.000 A 
ATOM     25  C   UNL     1       1.883   4.739  17.844  0.00  0.00    +0.000 A 
ATOM     26  C   UNL     1       1.472   3.426  18.079  0.00  0.00    +0.000 A 
ATOM     27  C   UNL     1       2.022   2.718  19.142  0.00  0.00    +0.000 A 
ATOM     28  F   UNL     1       1.613   1.465  19.381  0.00  0.00    +0.000 F 
ATOM     29  C   UNL     1       2.997   3.285  19.954  0.00  0.00    +0.000 A 
ATOM     30  C   UNL     1       3.428   4.588  19.701  0.00  0.00    +0.000 A 
ENDBRANCH  23  24
ENDBRANCH  20  23
ENDBRANCH   3  17
TORSDOF 6
ENDMDL
MODEL 5
REMARK VINA RESULT:      -8.2      4.655     10.532
REMARK  Name = 
REMARK  6 active torsions:
REMARK  status: ('A' for Active; 'I' for Inactive)
REMARK    1  A    between atoms: N_1  and  C_2
REMARK    2  A    between atoms: C_4  and  C_5
REMARK    3  A    between atoms: C_7  and  C_8
REMARK    4  A    between atoms: C_11  and  O_12
REMARK    5  A    between atoms: O_12  and  C_13
REMARK    6  A    between atoms: C_26  and  O_27
REMARK                            x       y       z     vdW  Elec       q    Type
REMARK                         _______ _______ _______ _____ _____    ______ ____
ROOT
ATOM      1  C   UNL     1      -0.537  12.006  22.049  0.00  0.00    +0.000 A 
ATOM      2  N   UNL     1      -0.494  10.785  21.564  0.00  0.00    +0.000 NA
ATOM      3  C   UNL     1       0.715  10.767  20.903  0.00  0.00    +0.000 A 
ATOM      4  N   UNL     1       1.397  11.922  20.984  0.00  0.00    +0.000 NA
ATOM      5  O   UNL     1       0.570  12.742  21.742  0.00  0.00    +0.000 OA
ENDROOT
BRANCH   1   8
ATOM      6  C   UNL     1      -3.668  12.662  24.042  0.00  0.00    +0.000 A 
ATOM      7  C   UNL     1      -2.703  11.985  23.300  0.00  0.00    +0.000 A 
ATOM      8  C   UNL     1      -1.566  12.660  22.832  0.00  0.00    +0.000 A 
ATOM      9  C   UNL     1      -1.436  14.007  23.165  0.00  0.00    +0.000 A 
ATOM     10  N   UNL     1      -2.326  14.699  23.917  0.00  0.00    +0.000 NA
ATOM     11  C   UNL     1      -3.389  13.996  24.341  0.00  0.00    +0.000 A 
BRANCH   6  12
ATOM     12  N   UNL     1      -4.725  11.963  24.642  0.00  0.00    +0.000 N 
ATOM     13  H   UNL     1      -4.693  11.931  25.656  0.00  0.00    +0.000 HD
ATOM     14  H   UNL     1      -4.849  11.044  24.218  0.00  0.00    +0.000 HD
ENDBRANCH   6  12
BRANCH  11  15
ATOM     15  O   UNL     1      -4.246  14.721  25.110  0.00  0.00    +0.000 OA
ATOM     16  H   UNL     1      -5.095  14.414  24.745  0.00  0.00    +0.000 HD
ENDBRANCH  11  15
ENDBRANCH   1   8
BRANCH   3  17
ATOM     17  C   UNL     1       1.186   9.601  20.168  0.00  0.00    +0.000 A 
ATOM     18  C   UNL     1       1.409   9.670  18.785  0.00  0.00    +0.000 A 
ATOM     19  C   UNL     1       1.913   8.565  18.091  0.00  0.00    +0.000 A 
ATOM     20  C   UNL     1       2.199   7.383  18.773  0.00  0.00    +0.000 A 
ATOM     21  C   UNL     1       1.907   7.280  20.134  0.00  0.00    +0.000 A 
ATOM     22  C   UNL     1       1.434   8.392  20.833  0.00  0.00    +0.000 A 
BRANCH  20  23
ATOM     23  O   UNL     1       2.715   6.354  18.018  0.00  0.00    +0.000 OA
BRANCH  23  24
ATOM     24  C   UNL     1       4.052   6.040  18.119  0.00  0.00    +0.000 A 
ATOM     25  C   UNL     1       4.883   6.608  17.148  0.00  0.00    +0.000 A 
ATOM     26  C   UNL     1       6.255   6.347  17.162  0.00  0.00    +0.000 A 
ATOM     27  C   UNL     1       6.783   5.521  18.147  0.00  0.00    +0.000 A 
ATOM     28  F   UNL     1       8.096   5.255  18.148  0.00  0.00    +0.000 F 
ATOM     29  C   UNL     1       5.975   4.977  19.137  0.00  0.00    +0.000 A 
ATOM     30  C   UNL     1       4.609   5.260  19.140  0.00  0.00    +0.000 A 
ENDBRANCH  23  24
ENDBRANCH  20  23
ENDBRANCH   3  17
TORSDOF 6
ENDMDL
MODEL 6
REMARK VINA RESULT:      -8.2      4.291     10.371
REMARK  Name = 
REMARK  6 active torsions:
REMARK  status: ('A' for Active; 'I' for Inactive)
REMARK    1  A    between atoms: N_1  and  C_2
REMARK    2  A    between atoms: C_4  and  C_5
REMARK    3  A    between atoms: C_7  and  C_8
REMARK    4  A    between atoms: C_11  and  O_12
REMARK    5  A    between atoms: O_12  and  C_13
REMARK    6  A    between atoms: C_26  and  O_27
REMARK                            x       y       z     vdW  Elec       q    Type
REMARK                         _______ _______ _______ _____ _____    ______ ____
ROOT
ATOM      1  C   UNL     1      -0.954  11.047  22.386  0.00  0.00    +0.000 A 
ATOM      2  N   UNL     1      -0.607  10.567  21.213  0.00  0.00    +0.000 NA
ATOM      3  C   UNL     1       0.386   9.668  21.539  0.00  0.00    +0.000 A 
ATOM      4  N   UNL     1       0.635   9.587  22.857  0.00  0.00    +0.000 NA
ATOM      5  O   UNL     1      -0.251  10.499  23.417  0.00  0.00    +0.000 OA
ENDROOT
BRANCH   1   8
ATOM      6  C   UNL     1      -3.862  12.840  23.978  0.00  0.00    +0.000 A 
ATOM      7  C   UNL     1      -2.930  11.844  23.696  0.00  0.00    +0.000 A 
ATOM      8  C   UNL     1      -1.942  12.053  22.723  0.00  0.00    +0.000 A 
ATOM      9  C   UNL     1      -1.919  13.292  22.086  0.00  0.00    +0.000 A 
ATOM     10  N   UNL     1      -2.778  14.307  22.353  0.00  0.00    +0.000 NA
ATOM     11  C   UNL     1      -3.695  14.048  23.299  0.00  0.00    +0.000 A 
BRANCH   6  12
ATOM     12  N   UNL     1      -4.752  12.700  25.052  0.00  0.00    +0.000 N 
ATOM     13  H   UNL     1      -5.722  12.895  24.830  0.00  0.00    +0.000 HD
ATOM     14  H   UNL     1      -4.422  13.204  25.875  0.00  0.00    +0.000 HD
ENDBRANCH   6  12
BRANCH  11  15
ATOM     15  O   UNL     1      -4.523  15.098  23.552  0.00  0.00    +0.000 OA
ATOM     16  H   UNL     1      -5.105  15.041  22.773  0.00  0.00    +0.000 HD
ENDBRANCH  11  15
ENDBRANCH   1   8
BRANCH   3  17
ATOM     17  C   UNL     1       1.106   8.900  20.532  0.00  0.00    +0.000 A 
ATOM     18  C   UNL     1       1.645   7.643  20.844  0.00  0.00    +0.000 A 
ATOM     19  C   UNL     1       2.289   6.884  19.862  0.00  0.00    +0.000 A 
ATOM     20  C   UNL     1       2.399   7.372  18.561  0.00  0.00    +0.000 A 
ATOM     21  C   UNL     1       1.934   8.654  18.261  0.00  0.00    +0.000 A 
ATOM     22  C   UNL     1       1.264   9.400  19.232  0.00  0.00    +0.000 A 
BRANCH  20  23
ATOM     23  O   UNL     1       3.024   6.550  17.652  0.00  0.00    +0.000 OA
BRANCH  23  24
ATOM     24  C   UNL     1       3.154   5.206  17.926  0.00  0.00    +0.000 A 
ATOM     25  C   UNL     1       2.035   4.418  17.636  0.00  0.00    +0.000 A 
ATOM     26  C   UNL     1       2.065   3.044  17.883  0.00  0.00    +0.000 A 
ATOM     27  C   UNL     1       3.213   2.470  18.417  0.00  0.00    +0.000 A 
ATOM     28  F   UNL     1       3.234   1.155  18.673  0.00  0.00    +0.000 F 
ATOM     29  C   UNL     1       4.342   3.236  18.680  0.00  0.00    +0.000 A 
ATOM     30  C   UNL     1       4.322   4.604  18.408  0.00  0.00    +0.000 A 
ENDBRANCH  23  24
ENDBRANCH  20  23
ENDBRANCH   3  17
TORSDOF 6
ENDMDL
MODEL 7
REMARK VINA RESULT:      -8.1      4.341     10.194
REMARK  Name = 
REMARK  6 active torsions:
REMARK  status: ('A' for Active; 'I' for Inactive)
REMARK    1  A    between atoms: N_1  and  C_2
REMARK    2  A    between atoms: C_4  and  C_5
REMARK    3  A    between atoms: C_7  and  C_8
REMARK    4  A    between atoms: C_11  and  O_12
REMARK    5  A    between atoms: O_12  and  C_13
REMARK    6  A    between atoms: C_26  and  O_27
REMARK                            x       y       z     vdW  Elec       q    Type
REMARK                         _______ _______ _______ _____ _____    ______ ____
ROOT
ATOM      1  C   UNL     1      -0.876  12.073  21.923  0.00  0.00    +0.000 A 
ATOM      2  N   UNL     1      -0.801  10.925  21.289  0.00  0.00    +0.000 NA
ATOM      3  C   UNL     1       0.524  10.875  20.913  0.00  0.00    +0.000 A 
ATOM      4  N   UNL     1       1.241  11.941  21.306  0.00  0.00    +0.000 NA
ATOM      5  O   UNL     1       0.316  12.734  21.974  0.00  0.00    +0.000 OA
ENDROOT
BRANCH   1   8
ATOM      6  C   UNL     1      -3.987  12.699  23.955  0.00  0.00    +0.000 A 
ATOM      7  C   UNL     1      -2.904  12.034  23.387  0.00  0.00    +0.000 A 
ATOM      8  C   UNL     1      -2.014  12.719  22.546  0.00  0.00    +0.000 A 
ATOM      9  C   UNL     1      -2.244  14.077  22.336  0.00  0.00    +0.000 A 
ATOM     10  N   UNL     1      -3.260  14.778  22.898  0.00  0.00    +0.000 NA
ATOM     11  C   UNL     1      -4.073  14.068  23.698  0.00  0.00    +0.000 A 
BRANCH   6  12
ATOM     12  N   UNL     1      -4.789  12.064  24.915  0.00  0.00    +0.000 N 
ATOM     13  H   UNL     1      -4.278  11.636  25.680  0.00  0.00    +0.000 HD
ATOM     14  H   UNL     1      -5.457  11.430  24.478  0.00  0.00    +0.000 HD
ENDBRANCH   6  12
BRANCH  11  15
ATOM     15  O   UNL     1      -5.065  14.812  24.258  0.00  0.00    +0.000 OA
ATOM     16  H   UNL     1      -5.125  14.379  25.129  0.00  0.00    +0.000 HD
ENDBRANCH  11  15
ENDBRANCH   1   8
BRANCH   3  17
ATOM     17  C   UNL     1       1.076   9.771  20.141  0.00  0.00    +0.000 A 
ATOM     18  C   UNL     1       1.280   9.898  18.758  0.00  0.00    +0.000 A 
ATOM     19  C   UNL     1       1.860   8.856  18.028  0.00  0.00    +0.000 A 
ATOM     20  C   UNL     1       2.242   7.679  18.672  0.00  0.00    +0.000 A 
ATOM     21  C   UNL     1       1.972   7.514  20.032  0.00  0.00    +0.000 A 
ATOM     22  C   UNL     1       1.422   8.565  20.767  0.00  0.00    +0.000 A 
BRANCH  20  23
ATOM     23  O   UNL     1       2.829   6.716  17.883  0.00  0.00    +0.000 OA
BRANCH  23  24
ATOM     24  C   UNL     1       2.748   5.391  18.253  0.00  0.00    +0.000 A 
ATOM     25  C   UNL     1       1.601   4.713  17.826  0.00  0.00    +0.000 A 
ATOM     26  C   UNL     1       1.423   3.367  18.153  0.00  0.00    +0.000 A 
ATOM     27  C   UNL     1       2.393   2.712  18.904  0.00  0.00    +0.000 A 
ATOM     28  F   UNL     1       2.212   1.427  19.235  0.00  0.00    +0.000 F 
ATOM     29  C   UNL     1       3.551   3.365  19.307  0.00  0.00    +0.000 A 
ATOM     30  C   UNL     1       3.742   4.702  18.956  0.00  0.00    +0.000 A 
ENDBRANCH  23  24
ENDBRANCH  20  23
ENDBRANCH   3  17
TORSDOF 6
ENDMDL
MODEL 8
REMARK VINA RESULT:      -8.1      2.101      2.578
REMARK  Name = 
REMARK  6 active torsions:
REMARK  status: ('A' for Active; 'I' for Inactive)
REMARK    1  A    between atoms: N_1  and  C_2
REMARK    2  A    between atoms: C_4  and  C_5
REMARK    3  A    between atoms: C_7  and  C_8
REMARK    4  A    between atoms: C_11  and  O_12
REMARK    5  A    between atoms: O_12  and  C_13
REMARK    6  A    between atoms: C_26  and  O_27
REMARK                            x       y       z     vdW  Elec       q    Type
REMARK                         _______ _______ _______ _____ _____    ______ ____
ROOT
ATOM      1  C   UNL     1       2.933   7.459  18.000  0.00  0.00    +0.000 A 
ATOM      2  N   UNL     1       2.353   7.566  19.174  0.00  0.00    +0.000 NA
ATOM      3  C   UNL     1       1.699   8.775  19.076  0.00  0.00    +0.000 A 
ATOM      4  N   UNL     1       1.857   9.386  17.890  0.00  0.00    +0.000 NA
ATOM      5  O   UNL     1       2.674   8.516  17.177  0.00  0.00    +0.000 OA
ENDROOT
BRANCH   1   8
ATOM      6  C   UNL     1       5.805   5.640  16.374  0.00  0.00    +0.000 A 
ATOM      7  C   UNL     1       5.023   6.681  16.867  0.00  0.00    +0.000 A 
ATOM      8  C   UNL     1       3.789   6.413  17.477  0.00  0.00    +0.000 A 
ATOM      9  C   UNL     1       3.406   5.078  17.592  0.00  0.00    +0.000 A 
ATOM     10  N   UNL     1       4.149   4.028  17.165  0.00  0.00    +0.000 NA
ATOM     11  C   UNL     1       5.323   4.349  16.596  0.00  0.00    +0.000 A 
BRANCH   6  12
ATOM     12  N   UNL     1       7.104   5.885  15.904  0.00  0.00    +0.000 N 
ATOM     13  H   UNL     1       7.268   5.608  14.942  0.00  0.00    +0.000 HD
ATOM     14  H   UNL     1       7.805   5.523  16.549  0.00  0.00    +0.000 HD
ENDBRANCH   6  12
BRANCH  11  15
ATOM     15  O   UNL     1       6.047   3.267  16.201  0.00  0.00    +0.000 OA
ATOM     16  H   UNL     1       6.938   3.561  16.462  0.00  0.00    +0.000 HD
ENDBRANCH  11  15
ENDBRANCH   1   8
BRANCH   3  17
ATOM     17  C   UNL     1       0.928   9.337  20.177  0.00  0.00    +0.000 A 
ATOM     18  C   UNL     1       1.119   8.879  21.489  0.00  0.00    +0.000 A 
ATOM     19  C   UNL     1       0.416   9.458  22.551  0.00  0.00    +0.000 A 
ATOM     20  C   UNL     1      -0.482  10.497  22.312  0.00  0.00    +0.000 A 
ATOM     21  C   UNL     1      -0.736  10.906  21.001  0.00  0.00    +0.000 A 
ATOM     22  C   UNL     1      -0.012  10.351  19.944  0.00  0.00    +0.000 A 
BRANCH  20  23
ATOM     23  O   UNL     1      -1.111  11.026  23.416  0.00  0.00    +0.000 OA
BRANCH  23  24
ATOM     24  C   UNL     1      -1.746  12.245  23.320  0.00  0.00    +0.000 A 
ATOM     25  C   UNL     1      -3.142  12.207  23.390  0.00  0.00    +0.000 A 
ATOM     26  C   UNL     1      -3.878  13.390  23.298  0.00  0.00    +0.000 A 
ATOM     27  C   UNL     1      -3.211  14.600  23.137  0.00  0.00    +0.000 A 
ATOM     28  F   UNL     1      -3.919  15.732  23.028  0.00  0.00    +0.000 F 
ATOM     29  C   UNL     1      -1.824  14.654  23.098  0.00  0.00    +0.000 A 
ATOM     30  C   UNL     1      -1.087  13.476  23.218  0.00  0.00    +0.000 A 
ENDBRANCH  23  24
ENDBRANCH  20  23
ENDBRANCH   3  17
TORSDOF 6
ENDMDL
MODEL 9
REMARK VINA RESULT:      -8.1      0.583      1.332
REMARK  Name = 
REMARK  6 active torsions:
REMARK  status: ('A' for Active; 'I' for Inactive)
REMARK    1  A    between atoms: N_1  and  C_2
REMARK    2  A    between atoms: C_4  and  C_5
REMARK    3  A    between atoms: C_7  and  C_8
REMARK    4  A    between atoms: C_11  and  O_12
REMARK    5  A    between atoms: O_12  and  C_13
REMARK    6  A    between atoms: C_26  and  O_27
REMARK                            x       y       z     vdW  Elec       q    Type
REMARK                         _______ _______ _______ _____ _____    ______ ____
ROOT
ATOM      1  C   UNL     1       2.177   6.986  19.885  0.00  0.00    +0.000 A 
ATOM      2  N   UNL     1       1.547   7.524  20.905  0.00  0.00    +0.000 NA
ATOM      3  C   UNL     1       1.174   8.756  20.411  0.00  0.00    +0.000 A 
ATOM      4  N   UNL     1       1.546   8.967  19.137  0.00  0.00    +0.000 NA
ATOM      5  O   UNL     1       2.210   7.797  18.789  0.00  0.00    +0.000 OA
ENDROOT
BRANCH   1   8
ATOM      6  C   UNL     1       2.813   3.272  19.809  0.00  0.00    +0.000 A 
ATOM      7  C   UNL     1       2.138   4.485  19.921  0.00  0.00    +0.000 A 
ATOM      8  C   UNL     1       2.829   5.697  19.770  0.00  0.00    +0.000 A 
ATOM      9  C   UNL     1       4.190   5.629  19.477  0.00  0.00    +0.000 A 
ATOM     10  N   UNL     1       4.882   4.474  19.318  0.00  0.00    +0.000 NA
ATOM     11  C   UNL     1       4.165   3.349  19.468  0.00  0.00    +0.000 A 
BRANCH   6  12
ATOM     12  N   UNL     1       2.106   2.061  19.805  0.00  0.00    +0.000 N 
ATOM     13  H   UNL     1       2.684   1.230  19.863  0.00  0.00    +0.000 HD
ATOM     14  H   UNL     1       1.435   2.027  19.038  0.00  0.00    +0.000 HD
ENDBRANCH   6  12
BRANCH  11  15
ATOM     15  O   UNL     1       4.891   2.214  19.280  0.00  0.00    +0.000 OA
ATOM     16  H   UNL     1       5.482   2.266  20.052  0.00  0.00    +0.000 HD
ENDBRANCH  11  15
ENDBRANCH   1   8
BRANCH   3  17
ATOM     17  C   UNL     1       0.459   9.736  21.216  0.00  0.00    +0.000 A 
ATOM     18  C   UNL     1       0.456  11.092  20.854  0.00  0.00    +0.000 A 
ATOM     19  C   UNL     1      -0.274  12.023  21.598  0.00  0.00    +0.000 A 
ATOM     20  C   UNL     1      -1.008  11.610  22.709  0.00  0.00    +0.000 A 
ATOM     21  C   UNL     1      -0.948  10.277  23.123  0.00  0.00    +0.000 A 
ATOM     22  C   UNL     1      -0.244   9.342  22.362  0.00  0.00    +0.000 A 
BRANCH  20  23
ATOM     23  O   UNL     1      -1.718  12.587  23.369  0.00  0.00    +0.000 OA
BRANCH  23  24
ATOM     24  C   UNL     1      -3.084  12.663  23.206  0.00  0.00    +0.000 A 
ATOM     25  C   UNL     1      -3.840  12.573  24.379  0.00  0.00    +0.000 A 
ATOM     26  C   UNL     1      -5.234  12.636  24.319  0.00  0.00    +0.000 A 
ATOM     27  C   UNL     1      -5.859  12.787  23.087  0.00  0.00    +0.000 A 
ATOM     28  F   UNL     1      -7.197  12.826  23.028  0.00  0.00    +0.000 F 
ATOM     29  C   UNL     1      -5.119  12.909  21.917  0.00  0.00    +0.000 A 
ATOM     30  C   UNL     1      -3.726  12.875  21.980  0.00  0.00    +0.000 A 
ENDBRANCH  23  24
ENDBRANCH  20  23
ENDBRANCH   3  17
TORSDOF 6
ENDMDL
