MODEL 1
REMARK VINA RESULT:      -6.8      0.000      0.000
REMARK  Name = 
REMARK  18 active torsions:
REMARK  status: ('A' for Active; 'I' for Inactive)
REMARK    1  A    between atoms: C_1  and  C_2
REMARK    2  A    between atoms: C_2  and  C_3
REMARK    3  A    between atoms: C_3  and  C_4
REMARK    4  A    between atoms: C_4  and  C_5
REMARK    5  A    between atoms: C_5  and  C_6
REMARK    6  A    between atoms: C_6  and  C_7
REMARK    7  A    between atoms: C_7  and  C_8
REMARK    8  A    between atoms: C_8  and  C_9
REMARK    9  A    between atoms: C_9  and  C_10
REMARK   10  A    between atoms: C_9  and  C_25
REMARK   11  A    between atoms: N_12  and  C_13
REMARK   12  A    between atoms: N_18  and  C_19
REMARK   13  A    between atoms: C_19  and  C_20
REMARK   14  A    between atoms: C_20  and  O_21
REMARK   15  A    between atoms: O_21  and  C_22
REMARK   16  A    between atoms: C_25  and  C_26
REMARK   17  A    between atoms: C_25  and  C_27
REMARK   18  A    between atoms: N_29  and  O_30
REMARK                            x       y       z     vdW  Elec       q    Type
REMARK                         _______ _______ _______ _____ _____    ______ ____
ROOT
ATOM      1  C   UNL     1       4.703   5.723  17.348  0.00  0.00    +0.000 C 
ENDROOT
BRANCH   1   2
ATOM      2  C   UNL     1       3.946   7.023  17.638  0.00  0.00    +0.000 C 
ATOM      3  O   UNL     1       4.184   8.061  17.017  0.00  0.00    +0.000 OA
ATOM      4  N   UNL     1       3.001   6.958  18.634  0.00  0.00    +0.000 N 
ATOM      5  H   UNL     1       2.978   6.179  19.282  0.00  0.00    +0.000 HD
BRANCH   4   6
ATOM      6  C   UNL     1       2.187   8.124  19.006  0.00  0.00    +0.000 C 
ATOM      7  C   UNL     1       1.027   8.320  18.016  0.00  0.00    +0.000 C 
ATOM      8  C   UNL     1       0.626   9.776  17.885  0.00  0.00    +0.000 C 
ATOM      9  C   UNL     1       0.034  10.400  19.154  0.00  0.00    +0.000 C 
ATOM     10  C   UNL     1       0.976  10.368  20.355  0.00  0.00    +0.000 C 
ATOM     11  N   UNL     1       1.003   9.059  21.009  0.00  0.00    +0.000 N 
ATOM     12  C   UNL     1       1.614   7.946  20.437  0.00  0.00    +0.000 C 
ATOM     13  O   UNL     1       1.703   6.853  21.003  0.00  0.00    +0.000 OA
BRANCH  11  14
ATOM     14  C   UNL     1       0.469   8.966  22.380  0.00  0.00    +0.000 C 
BRANCH  14  15
ATOM     15  C   UNL     1      -0.785   9.810  22.661  0.00  0.00    +0.000 C 
BRANCH  15  16
ATOM     16  O   UNL     1      -0.469  11.028  23.337  0.00  0.00    +0.000 OA
ATOM     17  C   UNL     1      -1.210  12.116  22.790  0.00  0.00    +0.000 C 
ENDBRANCH  15  16
ENDBRANCH  14  15
ENDBRANCH  11  14
ENDBRANCH   4   6
ENDBRANCH   1   2
BRANCH   1  18
ATOM     18  C   UNL     1       6.173   5.849  17.852  0.00  0.00    +0.000 C 
ATOM     19  C   UNL     1       6.425   5.141  19.189  0.00  0.00    +0.000 C 
BRANCH  18  20
ATOM     20  C   UNL     1       7.155   5.278  16.829  0.00  0.00    +0.000 C 
ATOM     21  O   UNL     1       7.980   4.405  17.091  0.00  0.00    +0.000 OA
ATOM     22  N   UNL     1       7.051   5.823  15.569  0.00  0.00    +0.000 N 
ATOM     23  H   UNL     1       6.199   6.292  15.255  0.00  0.00    +0.000 HD
BRANCH  22  24
ATOM     24  O   UNL     1       7.866   5.240  14.571  0.00  0.00    +0.000 OA
ATOM     25  H   UNL     1       7.854   5.921  13.864  0.00  0.00    +0.000 HD
ENDBRANCH  22  24
ENDBRANCH  18  20
ENDBRANCH   1  18
BRANCH   1  26
ATOM     26  C   UNL     1       3.988   4.530  18.033  0.00  0.00    +0.000 C 
BRANCH  26  27
ATOM     27  C   UNL     1       4.022   3.242  17.218  0.00  0.00    +0.000 C 
BRANCH  27  28
ATOM     28  C   UNL     1       2.779   2.385  17.440  0.00  0.00    +0.000 C 
BRANCH  28  29
ATOM     29  C   UNL     1       1.622   3.285  17.868  0.00  0.00    +0.000 C 
BRANCH  29  30
ATOM     30  C   UNL     1       0.733   2.606  18.900  0.00  0.00    +0.000 C 
BRANCH  30  31
ATOM     31  C   UNL     1       0.638   3.457  20.162  0.00  0.00    +0.000 C 
BRANCH  31  33
ATOM     32  C   UNL     1       2.528   3.493  21.814  0.00  0.00    +0.000 C 
ATOM     33  C   UNL     1       1.288   2.750  21.346  0.00  0.00    +0.000 C 
ENDBRANCH  31  33
ENDBRANCH  30  31
ENDBRANCH  29  30
ENDBRANCH  28  29
ENDBRANCH  27  28
ENDBRANCH  26  27
ENDBRANCH   1  26
TORSDOF 15
ENDMDL
MODEL 2
REMARK VINA RESULT:      -6.8      2.744      5.040
REMARK  Name = 
REMARK  18 active torsions:
REMARK  status: ('A' for Active; 'I' for Inactive)
REMARK    1  A    between atoms: C_1  and  C_2
REMARK    2  A    between atoms: C_2  and  C_3
REMARK    3  A    between atoms: C_3  and  C_4
REMARK    4  A    between atoms: C_4  and  C_5
REMARK    5  A    between atoms: C_5  and  C_6
REMARK    6  A    between atoms: C_6  and  C_7
REMARK    7  A    between atoms: C_7  and  C_8
REMARK    8  A    between atoms: C_8  and  C_9
REMARK    9  A    between atoms: C_9  and  C_10
REMARK   10  A    between atoms: C_9  and  C_25
REMARK   11  A    between atoms: N_12  and  C_13
REMARK   12  A    between atoms: N_18  and  C_19
REMARK   13  A    between atoms: C_19  and  C_20
REMARK   14  A    between atoms: C_20  and  O_21
REMARK   15  A    between atoms: O_21  and  C_22
REMARK   16  A    between atoms: C_25  and  C_26
REMARK   17  A    between atoms: C_25  and  C_27
REMARK   18  A    between atoms: N_29  and  O_30
REMARK                            x       y       z     vdW  Elec       q    Type
REMARK                         _______ _______ _______ _____ _____    ______ ____
ROOT
ATOM      1  C   UNL     1       3.149   5.038  19.908  0.00  0.00    +0.000 C 
ENDROOT
BRANCH   1   2
ATOM      2  C   UNL     1       1.995   5.926  20.387  0.00  0.00    +0.000 C 
ATOM      3  O   UNL     1       0.922   5.446  20.758  0.00  0.00    +0.000 OA
ATOM      4  N   UNL     1       2.231   7.281  20.363  0.00  0.00    +0.000 N 
ATOM      5  H   UNL     1       3.013   7.665  19.846  0.00  0.00    +0.000 HD
BRANCH   4   6
ATOM      6  C   UNL     1       1.220   8.249  20.810  0.00  0.00    +0.000 C 
ATOM      7  C   UNL     1       1.674   8.961  22.095  0.00  0.00    +0.000 C 
ATOM      8  C   UNL     1       0.503   9.378  22.962  0.00  0.00    +0.000 C 
ATOM      9  C   UNL     1      -0.410  10.444  22.347  0.00  0.00    +0.000 C 
ATOM     10  C   UNL     1      -1.045  10.025  21.023  0.00  0.00    +0.000 C 
ATOM     11  N   UNL     1      -0.122  10.160  19.895  0.00  0.00    +0.000 N 
ATOM     12  C   UNL     1       0.961   9.306  19.704  0.00  0.00    +0.000 C 
ATOM     13  O   UNL     1       1.709   9.365  18.723  0.00  0.00    +0.000 OA
BRANCH  11  14
ATOM     14  C   UNL     1      -0.443  11.163  18.864  0.00  0.00    +0.000 C 
BRANCH  14  15
ATOM     15  C   UNL     1      -1.547  10.764  17.870  0.00  0.00    +0.000 C 
BRANCH  15  16
ATOM     16  O   UNL     1      -2.687  11.618  17.968  0.00  0.00    +0.000 OA
ATOM     17  C   UNL     1      -3.665  11.270  16.991  0.00  0.00    +0.000 C 
ENDBRANCH  15  16
ENDBRANCH  14  15
ENDBRANCH  11  14
ENDBRANCH   4   6
ENDBRANCH   1   2
BRANCH   1  18
ATOM     18  C   UNL     1       2.577   3.783  19.181  0.00  0.00    +0.000 C 
ATOM     19  C   UNL     1       2.447   3.962  17.664  0.00  0.00    +0.000 C 
BRANCH  18  20
ATOM     20  C   UNL     1       3.454   2.557  19.433  0.00  0.00    +0.000 C 
ATOM     21  O   UNL     1       3.910   2.261  20.537  0.00  0.00    +0.000 OA
ATOM     22  N   UNL     1       3.705   1.792  18.317  0.00  0.00    +0.000 N 
ATOM     23  H   UNL     1       3.102   1.830  17.494  0.00  0.00    +0.000 HD
BRANCH  22  24
ATOM     24  O   UNL     1       4.419   0.591  18.534  0.00  0.00    +0.000 OA
ATOM     25  H   UNL     1       5.100   0.865  19.186  0.00  0.00    +0.000 HD
ENDBRANCH  22  24
ENDBRANCH  18  20
ENDBRANCH   1  18
BRANCH   1  26
ATOM     26  C   UNL     1       4.080   5.842  18.966  0.00  0.00    +0.000 C 
BRANCH  26  27
ATOM     27  C   UNL     1       5.537   5.395  19.011  0.00  0.00    +0.000 C 
BRANCH  27  28
ATOM     28  C   UNL     1       6.307   5.808  17.761  0.00  0.00    +0.000 C 
BRANCH  28  29
ATOM     29  C   UNL     1       5.449   6.768  16.940  0.00  0.00    +0.000 C 
BRANCH  29  30
ATOM     30  C   UNL     1       5.296   6.296  15.501  0.00  0.00    +0.000 C 
BRANCH  30  31
ATOM     31  C   UNL     1       5.516   4.789  15.410  0.00  0.00    +0.000 C 
BRANCH  31  33
ATOM     32  C   UNL     1       5.873   3.631  13.211  0.00  0.00    +0.000 C 
ATOM     33  C   UNL     1       6.520   4.450  14.314  0.00  0.00    +0.000 C 
ENDBRANCH  31  33
ENDBRANCH  30  31
ENDBRANCH  29  30
ENDBRANCH  28  29
ENDBRANCH  27  28
ENDBRANCH  26  27
ENDBRANCH   1  26
TORSDOF 15
ENDMDL
MODEL 3
REMARK VINA RESULT:      -6.6      2.611      4.932
REMARK  Name = 
REMARK  18 active torsions:
REMARK  status: ('A' for Active; 'I' for Inactive)
REMARK    1  A    between atoms: C_1  and  C_2
REMARK    2  A    between atoms: C_2  and  C_3
REMARK    3  A    between atoms: C_3  and  C_4
REMARK    4  A    between atoms: C_4  and  C_5
REMARK    5  A    between atoms: C_5  and  C_6
REMARK    6  A    between atoms: C_6  and  C_7
REMARK    7  A    between atoms: C_7  and  C_8
REMARK    8  A    between atoms: C_8  and  C_9
REMARK    9  A    between atoms: C_9  and  C_10
REMARK   10  A    between atoms: C_9  and  C_25
REMARK   11  A    between atoms: N_12  and  C_13
REMARK   12  A    between atoms: N_18  and  C_19
REMARK   13  A    between atoms: C_19  and  C_20
REMARK   14  A    between atoms: C_20  and  O_21
REMARK   15  A    between atoms: O_21  and  C_22
REMARK   16  A    between atoms: C_25  and  C_26
REMARK   17  A    between atoms: C_25  and  C_27
REMARK   18  A    between atoms: N_29  and  O_30
REMARK                            x       y       z     vdW  Elec       q    Type
REMARK                         _______ _______ _______ _____ _____    ______ ____
ROOT
ATOM      1  C   UNL     1       2.883   4.968  19.360  0.00  0.00    +0.000 C 
ENDROOT
BRANCH   1   2
ATOM      2  C   UNL     1       1.934   5.930  20.083  0.00  0.00    +0.000 C 
ATOM      3  O   UNL     1       1.128   5.530  20.925  0.00  0.00    +0.000 OA
ATOM      4  N   UNL     1       2.033   7.254  19.724  0.00  0.00    +0.000 N 
ATOM      5  H   UNL     1       2.524   7.531  18.882  0.00  0.00    +0.000 HD
BRANCH   4   6
ATOM      6  C   UNL     1       1.197   8.288  20.349  0.00  0.00    +0.000 C 
ATOM      7  C   UNL     1       1.845   8.808  21.643  0.00  0.00    +0.000 C 
ATOM      8  C   UNL     1       0.814   9.276  22.651  0.00  0.00    +0.000 C 
ATOM      9  C   UNL     1      -0.001  10.501  22.222  0.00  0.00    +0.000 C 
ATOM     10  C   UNL     1      -0.791  10.296  20.932  0.00  0.00    +0.000 C 
ATOM     11  N   UNL     1       0.044  10.430  19.738  0.00  0.00    +0.000 N 
ATOM     12  C   UNL     1       0.988   9.475  19.370  0.00  0.00    +0.000 C 
ATOM     13  O   UNL     1       1.653   9.540  18.333  0.00  0.00    +0.000 OA
BRANCH  11  14
ATOM     14  C   UNL     1      -0.227  11.563  18.835  0.00  0.00    +0.000 C 
BRANCH  14  15
ATOM     15  C   UNL     1      -1.469  11.414  17.939  0.00  0.00    +0.000 C 
BRANCH  15  16
ATOM     16  O   UNL     1      -1.747  10.046  17.636  0.00  0.00    +0.000 OA
ATOM     17  C   UNL     1      -2.890   9.938  16.792  0.00  0.00    +0.000 C 
ENDBRANCH  15  16
ENDBRANCH  14  15
ENDBRANCH  11  14
ENDBRANCH   4   6
ENDBRANCH   1   2
BRANCH   1  18
ATOM     18  C   UNL     1       2.479   3.497  19.677  0.00  0.00    +0.000 C 
ATOM     19  C   UNL     1       1.294   2.993  18.845  0.00  0.00    +0.000 C 
BRANCH  18  20
ATOM     20  C   UNL     1       3.652   2.544  19.444  0.00  0.00    +0.000 C 
ATOM     21  O   UNL     1       4.759   2.689  19.959  0.00  0.00    +0.000 OA
ATOM     22  N   UNL     1       3.378   1.493  18.598  0.00  0.00    +0.000 N 
ATOM     23  H   UNL     1       2.421   1.181  18.423  0.00  0.00    +0.000 HD
BRANCH  22  24
ATOM     24  O   UNL     1       4.404   0.533  18.448  0.00  0.00    +0.000 OA
ATOM     25  H   UNL     1       4.705   0.400  19.373  0.00  0.00    +0.000 HD
ENDBRANCH  22  24
ENDBRANCH  18  20
ENDBRANCH   1  18
BRANCH   1  26
ATOM     26  C   UNL     1       2.841   5.232  17.833  0.00  0.00    +0.000 C 
BRANCH  26  27
ATOM     27  C   UNL     1       4.178   5.669  17.246  0.00  0.00    +0.000 C 
BRANCH  27  28
ATOM     28  C   UNL     1       5.015   4.486  16.770  0.00  0.00    +0.000 C 
BRANCH  28  29
ATOM     29  C   UNL     1       6.373   4.522  17.468  0.00  0.00    +0.000 C 
BRANCH  29  30
ATOM     30  C   UNL     1       6.453   5.652  18.485  0.00  0.00    +0.000 C 
BRANCH  30  31
ATOM     31  C   UNL     1       7.899   5.878  18.916  0.00  0.00    +0.000 C 
BRANCH  31  33
ATOM     32  C   UNL     1       7.625   7.911  17.469  0.00  0.00    +0.000 C 
ATOM     33  C   UNL     1       8.314   7.327  18.691  0.00  0.00    +0.000 C 
ENDBRANCH  31  33
ENDBRANCH  30  31
ENDBRANCH  29  30
ENDBRANCH  28  29
ENDBRANCH  27  28
ENDBRANCH  26  27
ENDBRANCH   1  26
TORSDOF 15
ENDMDL
MODEL 4
REMARK VINA RESULT:      -6.5      2.699      5.049
REMARK  Name = 
REMARK  18 active torsions:
REMARK  status: ('A' for Active; 'I' for Inactive)
REMARK    1  A    between atoms: C_1  and  C_2
REMARK    2  A    between atoms: C_2  and  C_3
REMARK    3  A    between atoms: C_3  and  C_4
REMARK    4  A    between atoms: C_4  and  C_5
REMARK    5  A    between atoms: C_5  and  C_6
REMARK    6  A    between atoms: C_6  and  C_7
REMARK    7  A    between atoms: C_7  and  C_8
REMARK    8  A    between atoms: C_8  and  C_9
REMARK    9  A    between atoms: C_9  and  C_10
REMARK   10  A    between atoms: C_9  and  C_25
REMARK   11  A    between atoms: N_12  and  C_13
REMARK   12  A    between atoms: N_18  and  C_19
REMARK   13  A    between atoms: C_19  and  C_20
REMARK   14  A    between atoms: C_20  and  O_21
REMARK   15  A    between atoms: O_21  and  C_22
REMARK   16  A    between atoms: C_25  and  C_26
REMARK   17  A    between atoms: C_25  and  C_27
REMARK   18  A    between atoms: N_29  and  O_30
REMARK                            x       y       z     vdW  Elec       q    Type
REMARK                         _______ _______ _______ _____ _____    ______ ____
ROOT
ATOM      1  C   UNL     1       3.065   5.769  19.190  0.00  0.00    +0.000 C 
ENDROOT
BRANCH   1   2
ATOM      2  C   UNL     1       2.055   6.574  20.015  0.00  0.00    +0.000 C 
ATOM      3  O   UNL     1       1.374   6.046  20.896  0.00  0.00    +0.000 OA
ATOM      4  N   UNL     1       1.954   7.910  19.702  0.00  0.00    +0.000 N 
ATOM      5  H   UNL     1       2.339   8.274  18.839  0.00  0.00    +0.000 HD
BRANCH   4   6
ATOM      6  C   UNL     1       1.039   8.805  20.424  0.00  0.00    +0.000 C 
ATOM      7  C   UNL     1       1.585   9.134  21.824  0.00  0.00    +0.000 C 
ATOM      8  C   UNL     1       0.477   9.403  22.822  0.00  0.00    +0.000 C 
ATOM      9  C   UNL     1      -0.361  10.654  22.536  0.00  0.00    +0.000 C 
ATOM     10  C   UNL     1      -1.063  10.631  21.181  0.00  0.00    +0.000 C 
ATOM     11  N   UNL     1      -0.164  10.979  20.080  0.00  0.00    +0.000 N 
ATOM     12  C   UNL     1       0.840  10.124  19.631  0.00  0.00    +0.000 C 
ATOM     13  O   UNL     1       1.563  10.374  18.662  0.00  0.00    +0.000 OA
BRANCH  11  14
ATOM     14  C   UNL     1      -0.427  12.231  19.349  0.00  0.00    +0.000 C 
BRANCH  14  15
ATOM     15  C   UNL     1      -0.871  13.423  20.214  0.00  0.00    +0.000 C 
BRANCH  15  16
ATOM     16  O   UNL     1       0.241  14.188  20.680  0.00  0.00    +0.000 OA
ATOM     17  C   UNL     1       0.224  14.290  22.101  0.00  0.00    +0.000 C 
ENDBRANCH  15  16
ENDBRANCH  14  15
ENDBRANCH  11  14
ENDBRANCH   4   6
ENDBRANCH   1   2
BRANCH   1  18
ATOM     18  C   UNL     1       2.538   4.315  18.992  0.00  0.00    +0.000 C 
ATOM     19  C   UNL     1       1.660   4.147  17.746  0.00  0.00    +0.000 C 
BRANCH  18  20
ATOM     20  C   UNL     1       3.695   3.323  18.885  0.00  0.00    +0.000 C 
ATOM     21  O   UNL     1       4.307   3.099  17.842  0.00  0.00    +0.000 OA
ATOM     22  N   UNL     1       4.010   2.680  20.062  0.00  0.00    +0.000 N 
ATOM     23  H   UNL     1       3.749   3.066  20.970  0.00  0.00    +0.000 HD
BRANCH  22  24
ATOM     24  O   UNL     1       5.146   1.840  20.025  0.00  0.00    +0.000 OA
ATOM     25  H   UNL     1       5.420   1.895  19.084  0.00  0.00    +0.000 HD
ENDBRANCH  22  24
ENDBRANCH  18  20
ENDBRANCH   1  18
BRANCH   1  26
ATOM     26  C   UNL     1       3.301   6.459  17.822  0.00  0.00    +0.000 C 
BRANCH  26  27
ATOM     27  C   UNL     1       4.771   6.708  17.504  0.00  0.00    +0.000 C 
BRANCH  27  28
ATOM     28  C   UNL     1       5.093   6.463  16.033  0.00  0.00    +0.000 C 
BRANCH  28  29
ATOM     29  C   UNL     1       6.083   5.305  15.926  0.00  0.00    +0.000 C 
BRANCH  29  30
ATOM     30  C   UNL     1       6.461   5.020  14.479  0.00  0.00    +0.000 C 
BRANCH  30  31
ATOM     31  C   UNL     1       5.817   3.720  14.008  0.00  0.00    +0.000 C 
BRANCH  31  33
ATOM     32  C   UNL     1       4.723   3.254  11.797  0.00  0.00    +0.000 C 
ATOM     33  C   UNL     1       6.037   3.514  12.513  0.00  0.00    +0.000 C 
ENDBRANCH  31  33
ENDBRANCH  30  31
ENDBRANCH  29  30
ENDBRANCH  28  29
ENDBRANCH  27  28
ENDBRANCH  26  27
ENDBRANCH   1  26
TORSDOF 15
ENDMDL
MODEL 5
REMARK VINA RESULT:      -6.5      2.876      5.270
REMARK  Name = 
REMARK  18 active torsions:
REMARK  status: ('A' for Active; 'I' for Inactive)
REMARK    1  A    between atoms: C_1  and  C_2
REMARK    2  A    between atoms: C_2  and  C_3
REMARK    3  A    between atoms: C_3  and  C_4
REMARK    4  A    between atoms: C_4  and  C_5
REMARK    5  A    between atoms: C_5  and  C_6
REMARK    6  A    between atoms: C_6  and  C_7
REMARK    7  A    between atoms: C_7  and  C_8
REMARK    8  A    between atoms: C_8  and  C_9
REMARK    9  A    between atoms: C_9  and  C_10
REMARK   10  A    between atoms: C_9  and  C_25
REMARK   11  A    between atoms: N_12  and  C_13
REMARK   12  A    between atoms: N_18  and  C_19
REMARK   13  A    between atoms: C_19  and  C_20
REMARK   14  A    between atoms: C_20  and  O_21
REMARK   15  A    between atoms: O_21  and  C_22
REMARK   16  A    between atoms: C_25  and  C_26
REMARK   17  A    between atoms: C_25  and  C_27
REMARK   18  A    between atoms: N_29  and  O_30
REMARK                            x       y       z     vdW  Elec       q    Type
REMARK                         _______ _______ _______ _____ _____    ______ ____
ROOT
ATOM      1  C   UNL     1       3.051   5.167  19.429  0.00  0.00    +0.000 C 
ENDROOT
BRANCH   1   2
ATOM      2  C   UNL     1       2.025   6.066  20.127  0.00  0.00    +0.000 C 
ATOM      3  O   UNL     1       1.171   5.602  20.886  0.00  0.00    +0.000 OA
ATOM      4  N   UNL     1       2.112   7.408  19.843  0.00  0.00    +0.000 N 
ATOM      5  H   UNL     1       2.655   7.741  19.055  0.00  0.00    +0.000 HD
BRANCH   4   6
ATOM      6  C   UNL     1       1.203   8.388  20.455  0.00  0.00    +0.000 C 
ATOM      7  C   UNL     1       1.742   8.860  21.816  0.00  0.00    +0.000 C 
ATOM      8  C   UNL     1       0.629   9.250  22.768  0.00  0.00    +0.000 C 
ATOM      9  C   UNL     1      -0.190  10.472  22.340  0.00  0.00    +0.000 C 
ATOM     10  C   UNL     1      -0.882  10.310  20.989  0.00  0.00    +0.000 C 
ATOM     11  N   UNL     1       0.031  10.525  19.865  0.00  0.00    +0.000 N 
ATOM     12  C   UNL     1       1.027   9.615  19.521  0.00  0.00    +0.000 C 
ATOM     13  O   UNL     1       1.761   9.749  18.538  0.00  0.00    +0.000 OA
BRANCH  11  14
ATOM     14  C   UNL     1      -0.211  11.693  19.000  0.00  0.00    +0.000 C 
BRANCH  14  15
ATOM     15  C   UNL     1      -1.662  11.876  18.523  0.00  0.00    +0.000 C 
BRANCH  15  16
ATOM     16  O   UNL     1      -2.045  10.873  17.580  0.00  0.00    +0.000 OA
ATOM     17  C   UNL     1      -3.265  11.226  16.935  0.00  0.00    +0.000 C 
ENDBRANCH  15  16
ENDBRANCH  14  15
ENDBRANCH  11  14
ENDBRANCH   4   6
ENDBRANCH   1   2
BRANCH   1  18
ATOM     18  C   UNL     1       2.397   3.795  19.083  0.00  0.00    +0.000 C 
ATOM     19  C   UNL     1       1.673   3.787  17.731  0.00  0.00    +0.000 C 
BRANCH  18  20
ATOM     20  C   UNL     1       3.441   2.680  19.060  0.00  0.00    +0.000 C 
ATOM     21  O   UNL     1       3.613   1.927  18.102  0.00  0.00    +0.000 OA
ATOM     22  N   UNL     1       4.190   2.571  20.210  0.00  0.00    +0.000 N 
ATOM     23  H   UNL     1       4.288   3.351  20.862  0.00  0.00    +0.000 HD
BRANCH  22  24
ATOM     24  O   UNL     1       5.239   1.624  20.181  0.00  0.00    +0.000 OA
ATOM     25  H   UNL     1       5.094   1.122  21.012  0.00  0.00    +0.000 HD
ENDBRANCH  22  24
ENDBRANCH  18  20
ENDBRANCH   1  18
BRANCH   1  26
ATOM     26  C   UNL     1       3.581   5.863  18.149  0.00  0.00    +0.000 C 
BRANCH  26  27
ATOM     27  C   UNL     1       5.004   5.465  17.776  0.00  0.00    +0.000 C 
BRANCH  27  28
ATOM     28  C   UNL     1       5.070   4.745  16.432  0.00  0.00    +0.000 C 
BRANCH  28  29
ATOM     29  C   UNL     1       5.505   5.737  15.356  0.00  0.00    +0.000 C 
BRANCH  29  30
ATOM     30  C   UNL     1       6.525   5.125  14.407  0.00  0.00    +0.000 C 
BRANCH  30  31
ATOM     31  C   UNL     1       6.155   3.680  14.088  0.00  0.00    +0.000 C 
BRANCH  31  33
ATOM     32  C   UNL     1       7.210   4.199  11.870  0.00  0.00    +0.000 C 
ATOM     33  C   UNL     1       6.094   3.454  12.581  0.00  0.00    +0.000 C 
ENDBRANCH  31  33
ENDBRANCH  30  31
ENDBRANCH  29  30
ENDBRANCH  28  29
ENDBRANCH  27  28
ENDBRANCH  26  27
ENDBRANCH   1  26
TORSDOF 15
ENDMDL
MODEL 6
REMARK VINA RESULT:      -6.5      0.938      1.592
REMARK  Name = 
REMARK  18 active torsions:
REMARK  status: ('A' for Active; 'I' for Inactive)
REMARK    1  A    between atoms: C_1  and  C_2
REMARK    2  A    between atoms: C_2  and  C_3
REMARK    3  A    between atoms: C_3  and  C_4
REMARK    4  A    between atoms: C_4  and  C_5
REMARK    5  A    between atoms: C_5  and  C_6
REMARK    6  A    between atoms: C_6  and  C_7
REMARK    7  A    between atoms: C_7  and  C_8
REMARK    8  A    between atoms: C_8  and  C_9
REMARK    9  A    between atoms: C_9  and  C_10
REMARK   10  A    between atoms: C_9  and  C_25
REMARK   11  A    between atoms: N_12  and  C_13
REMARK   12  A    between atoms: N_18  and  C_19
REMARK   13  A    between atoms: C_19  and  C_20
REMARK   14  A    between atoms: C_20  and  O_21
REMARK   15  A    between atoms: O_21  and  C_22
REMARK   16  A    between atoms: C_25  and  C_26
REMARK   17  A    between atoms: C_25  and  C_27
REMARK   18  A    between atoms: N_29  and  O_30
REMARK                            x       y       z     vdW  Elec       q    Type
REMARK                         _______ _______ _______ _____ _____    ______ ____
ROOT
ATOM      1  C   UNL     1       4.861   5.302  17.987  0.00  0.00    +0.000 C 
ENDROOT
BRANCH   1   2
ATOM      2  C   UNL     1       4.066   6.612  17.976  0.00  0.00    +0.000 C 
ATOM      3  O   UNL     1       4.231   7.460  17.097  0.00  0.00    +0.000 OA
ATOM      4  N   UNL     1       3.172   6.780  19.008  0.00  0.00    +0.000 N 
ATOM      5  H   UNL     1       3.213   6.194  19.834  0.00  0.00    +0.000 HD
BRANCH   4   6
ATOM      6  C   UNL     1       2.330   7.979  19.113  0.00  0.00    +0.000 C 
ATOM      7  C   UNL     1       1.327   8.048  17.950  0.00  0.00    +0.000 C 
ATOM      8  C   UNL     1       0.969   9.476  17.587  0.00  0.00    +0.000 C 
ATOM      9  C   UNL     1       0.210  10.248  18.671  0.00  0.00    +0.000 C 
ATOM     10  C   UNL     1       0.969  10.367  19.991  0.00  0.00    +0.000 C 
ATOM     11  N   UNL     1       0.883   9.148  20.796  0.00  0.00    +0.000 N 
ATOM     12  C   UNL     1       1.555   7.976  20.458  0.00  0.00    +0.000 C 
ATOM     13  O   UNL     1       1.547   6.961  21.160  0.00  0.00    +0.000 OA
BRANCH  11  14
ATOM     14  C   UNL     1       0.157   9.221  22.076  0.00  0.00    +0.000 C 
BRANCH  14  15
ATOM     15  C   UNL     1      -0.933  10.304  22.159  0.00  0.00    +0.000 C 
BRANCH  15  16
ATOM     16  O   UNL     1      -0.817  11.087  23.348  0.00  0.00    +0.000 OA
ATOM     17  C   UNL     1      -1.739  12.174  23.328  0.00  0.00    +0.000 C 
ENDBRANCH  15  16
ENDBRANCH  14  15
ENDBRANCH  11  14
ENDBRANCH   4   6
ENDBRANCH   1   2
BRANCH   1  18
ATOM     18  C   UNL     1       6.367   5.602  17.717  0.00  0.00    +0.000 C 
ATOM     19  C   UNL     1       7.251   5.464  18.963  0.00  0.00    +0.000 C 
BRANCH  18  20
ATOM     20  C   UNL     1       6.927   4.671  16.642  0.00  0.00    +0.000 C 
ATOM     21  O   UNL     1       8.062   4.199  16.674  0.00  0.00    +0.000 OA
ATOM     22  N   UNL     1       6.057   4.396  15.611  0.00  0.00    +0.000 N 
ATOM     23  H   UNL     1       5.047   4.506  15.718  0.00  0.00    +0.000 HD
BRANCH  22  24
ATOM     24  O   UNL     1       6.502   3.451  14.658  0.00  0.00    +0.000 OA
ATOM     25  H   UNL     1       6.743   4.019  13.895  0.00  0.00    +0.000 HD
ENDBRANCH  22  24
ENDBRANCH  18  20
ENDBRANCH   1  18
BRANCH   1  26
ATOM     26  C   UNL     1       4.679   4.583  19.348  0.00  0.00    +0.000 C 
BRANCH  26  27
ATOM     27  C   UNL     1       4.478   3.077  19.227  0.00  0.00    +0.000 C 
BRANCH  27  28
ATOM     28  C   UNL     1       4.014   2.448  20.537  0.00  0.00    +0.000 C 
BRANCH  28  29
ATOM     29  C   UNL     1       2.956   3.347  21.174  0.00  0.00    +0.000 C 
BRANCH  29  30
ATOM     30  C   UNL     1       1.559   2.760  21.030  0.00  0.00    +0.000 C 
BRANCH  30  31
ATOM     31  C   UNL     1       0.744   3.569  20.025  0.00  0.00    +0.000 C 
BRANCH  31  33
ATOM     32  C   UNL     1       1.380   4.031  17.641  0.00  0.00    +0.000 C 
ATOM     33  C   UNL     1       0.878   2.986  18.622  0.00  0.00    +0.000 C 
ENDBRANCH  31  33
ENDBRANCH  30  31
ENDBRANCH  29  30
ENDBRANCH  28  29
ENDBRANCH  27  28
ENDBRANCH  26  27
ENDBRANCH   1  26
TORSDOF 15
ENDMDL
MODEL 7
REMARK VINA RESULT:      -6.4      2.612      4.821
REMARK  Name = 
REMARK  18 active torsions:
REMARK  status: ('A' for Active; 'I' for Inactive)
REMARK    1  A    between atoms: C_1  and  C_2
REMARK    2  A    between atoms: C_2  and  C_3
REMARK    3  A    between atoms: C_3  and  C_4
REMARK    4  A    between atoms: C_4  and  C_5
REMARK    5  A    between atoms: C_5  and  C_6
REMARK    6  A    between atoms: C_6  and  C_7
REMARK    7  A    between atoms: C_7  and  C_8
REMARK    8  A    between atoms: C_8  and  C_9
REMARK    9  A    between atoms: C_9  and  C_10
REMARK   10  A    between atoms: C_9  and  C_25
REMARK   11  A    between atoms: N_12  and  C_13
REMARK   12  A    between atoms: N_18  and  C_19
REMARK   13  A    between atoms: C_19  and  C_20
REMARK   14  A    between atoms: C_20  and  O_21
REMARK   15  A    between atoms: O_21  and  C_22
REMARK   16  A    between atoms: C_25  and  C_26
REMARK   17  A    between atoms: C_25  and  C_27
REMARK   18  A    between atoms: N_29  and  O_30
REMARK                            x       y       z     vdW  Elec       q    Type
REMARK                         _______ _______ _______ _____ _____    ______ ____
ROOT
ATOM      1  C   UNL     1       3.098   5.538  19.112  0.00  0.00    +0.000 C 
ENDROOT
BRANCH   1   2
ATOM      2  C   UNL     1       2.124   6.336  19.985  0.00  0.00    +0.000 C 
ATOM      3  O   UNL     1       1.469   5.798  20.880  0.00  0.00    +0.000 OA
ATOM      4  N   UNL     1       2.021   7.677  19.697  0.00  0.00    +0.000 N 
ATOM      5  H   UNL     1       2.379   8.053  18.828  0.00  0.00    +0.000 HD
BRANCH   4   6
ATOM      6  C   UNL     1       1.138   8.566  20.465  0.00  0.00    +0.000 C 
ATOM      7  C   UNL     1       1.789   8.965  21.800  0.00  0.00    +0.000 C 
ATOM      8  C   UNL     1       0.760   9.233  22.881  0.00  0.00    +0.000 C 
ATOM      9  C   UNL     1      -0.145  10.443  22.627  0.00  0.00    +0.000 C 
ATOM     10  C   UNL     1      -0.959  10.346  21.338  0.00  0.00    +0.000 C 
ATOM     11  N   UNL     1      -0.170  10.683  20.153  0.00  0.00    +0.000 N 
ATOM     12  C   UNL     1       0.823   9.848  19.648  0.00  0.00    +0.000 C 
ATOM     13  O   UNL     1       1.451  10.086  18.612  0.00  0.00    +0.000 OA
BRANCH  11  14
ATOM     14  C   UNL     1      -0.542  11.898  19.405  0.00  0.00    +0.000 C 
BRANCH  14  15
ATOM     15  C   UNL     1      -1.648  11.716  18.352  0.00  0.00    +0.000 C 
BRANCH  15  16
ATOM     16  O   UNL     1      -2.952  11.790  18.930  0.00  0.00    +0.000 OA
ATOM     17  C   UNL     1      -2.999  12.791  19.943  0.00  0.00    +0.000 C 
ENDBRANCH  15  16
ENDBRANCH  14  15
ENDBRANCH  11  14
ENDBRANCH   4   6
ENDBRANCH   1   2
BRANCH   1  18
ATOM     18  C   UNL     1       2.548   4.095  18.898  0.00  0.00    +0.000 C 
ATOM     19  C   UNL     1       1.828   3.908  17.557  0.00  0.00    +0.000 C 
BRANCH  18  20
ATOM     20  C   UNL     1       3.673   3.063  18.972  0.00  0.00    +0.000 C 
ATOM     21  O   UNL     1       4.766   3.283  19.493  0.00  0.00    +0.000 OA
ATOM     22  N   UNL     1       3.374   1.847  18.401  0.00  0.00    +0.000 N 
ATOM     23  H   UNL     1       2.409   1.543  18.259  0.00  0.00    +0.000 HD
BRANCH  22  24
ATOM     24  O   UNL     1       4.349   0.834  18.550  0.00  0.00    +0.000 OA
ATOM     25  H   UNL     1       4.052   0.373  19.364  0.00  0.00    +0.000 HD
ENDBRANCH  22  24
ENDBRANCH  18  20
ENDBRANCH   1  18
BRANCH   1  26
ATOM     26  C   UNL     1       3.302   6.256  17.753  0.00  0.00    +0.000 C 
BRANCH  26  27
ATOM     27  C   UNL     1       4.639   6.978  17.633  0.00  0.00    +0.000 C 
BRANCH  27  28
ATOM     28  C   UNL     1       5.816   6.082  18.005  0.00  0.00    +0.000 C 
BRANCH  28  29
ATOM     29  C   UNL     1       6.748   5.957  16.802  0.00  0.00    +0.000 C 
BRANCH  29  30
ATOM     30  C   UNL     1       7.095   4.504  16.507  0.00  0.00    +0.000 C 
BRANCH  30  31
ATOM     31  C   UNL     1       5.892   3.781  15.911  0.00  0.00    +0.000 C 
BRANCH  31  33
ATOM     32  C   UNL     1       5.998   3.736  13.403  0.00  0.00    +0.000 C 
ATOM     33  C   UNL     1       5.438   4.453  14.619  0.00  0.00    +0.000 C 
ENDBRANCH  31  33
ENDBRANCH  30  31
ENDBRANCH  29  30
ENDBRANCH  28  29
ENDBRANCH  27  28
ENDBRANCH  26  27
ENDBRANCH   1  26
TORSDOF 15
ENDMDL
MODEL 8
REMARK VINA RESULT:      -6.4      2.773      4.952
REMARK  Name = 
REMARK  18 active torsions:
REMARK  status: ('A' for Active; 'I' for Inactive)
REMARK    1  A    between atoms: C_1  and  C_2
REMARK    2  A    between atoms: C_2  and  C_3
REMARK    3  A    between atoms: C_3  and  C_4
REMARK    4  A    between atoms: C_4  and  C_5
REMARK    5  A    between atoms: C_5  and  C_6
REMARK    6  A    between atoms: C_6  and  C_7
REMARK    7  A    between atoms: C_7  and  C_8
REMARK    8  A    between atoms: C_8  and  C_9
REMARK    9  A    between atoms: C_9  and  C_10
REMARK   10  A    between atoms: C_9  and  C_25
REMARK   11  A    between atoms: N_12  and  C_13
REMARK   12  A    between atoms: N_18  and  C_19
REMARK   13  A    between atoms: C_19  and  C_20
REMARK   14  A    between atoms: C_20  and  O_21
REMARK   15  A    between atoms: O_21  and  C_22
REMARK   16  A    between atoms: C_25  and  C_26
REMARK   17  A    between atoms: C_25  and  C_27
REMARK   18  A    between atoms: N_29  and  O_30
REMARK                            x       y       z     vdW  Elec       q    Type
REMARK                         _______ _______ _______ _____ _____    ______ ____
ROOT
ATOM      1  C   UNL     1       2.903   5.952  19.596  0.00  0.00    +0.000 C 
ENDROOT
BRANCH   1   2
ATOM      2  C   UNL     1       2.385   7.388  19.468  0.00  0.00    +0.000 C 
ATOM      3  O   UNL     1       2.637   8.079  18.479  0.00  0.00    +0.000 OA
ATOM      4  N   UNL     1       1.638   7.854  20.524  0.00  0.00    +0.000 N 
ATOM      5  H   UNL     1       1.635   7.370  21.414  0.00  0.00    +0.000 HD
BRANCH   4   6
ATOM      6  C   UNL     1       1.064   9.206  20.527  0.00  0.00    +0.000 C 
ATOM      7  C   UNL     1       0.296   9.479  19.223  0.00  0.00    +0.000 C 
ATOM      8  C   UNL     1       0.312  10.947  18.846  0.00  0.00    +0.000 C 
ATOM      9  C   UNL     1      -0.430  11.872  19.818  0.00  0.00    +0.000 C 
ATOM     10  C   UNL     1       0.117  11.836  21.243  0.00  0.00    +0.000 C 
ATOM     11  N   UNL     1      -0.353  10.670  21.991  0.00  0.00    +0.000 N 
ATOM     12  C   UNL     1       0.100   9.379  21.733  0.00  0.00    +0.000 C 
ATOM     13  O   UNL     1      -0.235   8.394  22.397  0.00  0.00    +0.000 OA
BRANCH  11  14
ATOM     14  C   UNL     1      -1.242  10.906  23.143  0.00  0.00    +0.000 C 
BRANCH  14  15
ATOM     15  C   UNL     1      -2.227  12.078  22.991  0.00  0.00    +0.000 C 
BRANCH  15  16
ATOM     16  O   UNL     1      -3.465  11.824  23.654  0.00  0.00    +0.000 OA
ATOM     17  C   UNL     1      -3.932  12.995  24.319  0.00  0.00    +0.000 C 
ENDBRANCH  15  16
ENDBRANCH  14  15
ENDBRANCH  11  14
ENDBRANCH   4   6
ENDBRANCH   1   2
BRANCH   1  18
ATOM     18  C   UNL     1       1.761   4.950  19.246  0.00  0.00    +0.000 C 
ATOM     19  C   UNL     1       1.726   4.557  17.764  0.00  0.00    +0.000 C 
BRANCH  18  20
ATOM     20  C   UNL     1       1.886   3.667  20.067  0.00  0.00    +0.000 C 
ATOM     21  O   UNL     1       1.934   2.543  19.570  0.00  0.00    +0.000 OA
ATOM     22  N   UNL     1       1.939   3.861  21.429  0.00  0.00    +0.000 N 
ATOM     23  H   UNL     1       2.216   4.757  21.833  0.00  0.00    +0.000 HD
BRANCH  22  24
ATOM     24  O   UNL     1       2.167   2.706  22.212  0.00  0.00    +0.000 OA
ATOM     25  H   UNL     1       1.290   2.556  22.627  0.00  0.00    +0.000 HD
ENDBRANCH  22  24
ENDBRANCH  18  20
ENDBRANCH   1  18
BRANCH   1  26
ATOM     26  C   UNL     1       4.123   5.743  18.663  0.00  0.00    +0.000 C 
BRANCH  26  27
ATOM     27  C   UNL     1       5.198   4.834  19.248  0.00  0.00    +0.000 C 
BRANCH  27  28
ATOM     28  C   UNL     1       6.589   5.453  19.158  0.00  0.00    +0.000 C 
BRANCH  28  29
ATOM     29  C   UNL     1       7.268   4.973  17.877  0.00  0.00    +0.000 C 
BRANCH  29  30
ATOM     30  C   UNL     1       7.165   6.007  16.765  0.00  0.00    +0.000 C 
BRANCH  30  31
ATOM     31  C   UNL     1       6.226   5.515  15.668  0.00  0.00    +0.000 C 
BRANCH  31  33
ATOM     32  C   UNL     1       6.052   3.889  13.764  0.00  0.00    +0.000 C 
ATOM     33  C   UNL     1       6.991   4.734  14.606  0.00  0.00    +0.000 C 
ENDBRANCH  31  33
ENDBRANCH  30  31
ENDBRANCH  29  30
ENDBRANCH  28  29
ENDBRANCH  27  28
ENDBRANCH  26  27
ENDBRANCH   1  26
TORSDOF 15
ENDMDL
MODEL 9
REMARK VINA RESULT:      -6.4      2.621      4.986
REMARK  Name = 
REMARK  18 active torsions:
REMARK  status: ('A' for Active; 'I' for Inactive)
REMARK    1  A    between atoms: C_1  and  C_2
REMARK    2  A    between atoms: C_2  and  C_3
REMARK    3  A    between atoms: C_3  and  C_4
REMARK    4  A    between atoms: C_4  and  C_5
REMARK    5  A    between atoms: C_5  and  C_6
REMARK    6  A    between atoms: C_6  and  C_7
REMARK    7  A    between atoms: C_7  and  C_8
REMARK    8  A    between atoms: C_8  and  C_9
REMARK    9  A    between atoms: C_9  and  C_10
REMARK   10  A    between atoms: C_9  and  C_25
REMARK   11  A    between atoms: N_12  and  C_13
REMARK   12  A    between atoms: N_18  and  C_19
REMARK   13  A    between atoms: C_19  and  C_20
REMARK   14  A    between atoms: C_20  and  O_21
REMARK   15  A    between atoms: O_21  and  C_22
REMARK   16  A    between atoms: C_25  and  C_26
REMARK   17  A    between atoms: C_25  and  C_27
REMARK   18  A    between atoms: N_29  and  O_30
REMARK                            x       y       z     vdW  Elec       q    Type
REMARK                         _______ _______ _______ _____ _____    ______ ____
ROOT
ATOM      1  C   UNL     1       3.066   5.536  19.273  0.00  0.00    +0.000 C 
ENDROOT
BRANCH   1   2
ATOM      2  C   UNL     1       2.055   6.394  20.041  0.00  0.00    +0.000 C 
ATOM      3  O   UNL     1       1.317   5.909  20.900  0.00  0.00    +0.000 OA
ATOM      4  N   UNL     1       2.019   7.727  19.702  0.00  0.00    +0.000 N 
ATOM      5  H   UNL     1       2.454   8.060  18.850  0.00  0.00    +0.000 HD
BRANCH   4   6
ATOM      6  C   UNL     1       1.110   8.669  20.369  0.00  0.00    +0.000 C 
ATOM      7  C   UNL     1       1.628   9.029  21.771  0.00  0.00    +0.000 C 
ATOM      8  C   UNL     1       0.501   9.361  22.729  0.00  0.00    +0.000 C 
ATOM      9  C   UNL     1      -0.294  10.624  22.380  0.00  0.00    +0.000 C 
ATOM     10  C   UNL     1      -0.961  10.574  21.008  0.00  0.00    +0.000 C 
ATOM     11  N   UNL     1      -0.023  10.861  19.921  0.00  0.00    +0.000 N 
ATOM     12  C   UNL     1       0.968   9.966  19.528  0.00  0.00    +0.000 C 
ATOM     13  O   UNL     1       1.723  10.164  18.572  0.00  0.00    +0.000 OA
BRANCH  11  14
ATOM     14  C   UNL     1      -0.233  12.096  19.143  0.00  0.00    +0.000 C 
BRANCH  14  15
ATOM     15  C   UNL     1       0.414  13.364  19.725  0.00  0.00    +0.000 C 
BRANCH  15  16
ATOM     16  O   UNL     1       0.684  14.337  18.715  0.00  0.00    +0.000 OA
ATOM     17  C   UNL     1       1.840  15.102  19.047  0.00  0.00    +0.000 C 
ENDBRANCH  15  16
ENDBRANCH  14  15
ENDBRANCH  11  14
ENDBRANCH   4   6
ENDBRANCH   1   2
BRANCH   1  18
ATOM     18  C   UNL     1       2.457   4.127  19.001  0.00  0.00    +0.000 C 
ATOM     19  C   UNL     1       1.584   4.071  17.742  0.00  0.00    +0.000 C 
BRANCH  18  20
ATOM     20  C   UNL     1       3.556   3.074  18.854  0.00  0.00    +0.000 C 
ATOM     21  O   UNL     1       4.008   2.708  17.771  0.00  0.00    +0.000 OA
ATOM     22  N   UNL     1       4.011   2.551  20.044  0.00  0.00    +0.000 N 
ATOM     23  H   UNL     1       3.891   3.047  20.929  0.00  0.00    +0.000 HD
BRANCH  22  24
ATOM     24  O   UNL     1       5.103   1.658  19.952  0.00  0.00    +0.000 OA
ATOM     25  H   UNL     1       5.670   1.939  20.702  0.00  0.00    +0.000 HD
ENDBRANCH  22  24
ENDBRANCH  18  20
ENDBRANCH   1  18
BRANCH   1  26
ATOM     26  C   UNL     1       3.452   6.234  17.944  0.00  0.00    +0.000 C 
BRANCH  26  27
ATOM     27  C   UNL     1       4.944   6.514  17.806  0.00  0.00    +0.000 C 
BRANCH  27  28
ATOM     28  C   UNL     1       5.785   5.637  18.729  0.00  0.00    +0.000 C 
BRANCH  28  29
ATOM     29  C   UNL     1       7.047   5.201  17.989  0.00  0.00    +0.000 C 
BRANCH  29  30
ATOM     30  C   UNL     1       7.047   5.681  16.544  0.00  0.00    +0.000 C 
BRANCH  30  31
ATOM     31  C   UNL     1       7.124   4.493  15.590  0.00  0.00    +0.000 C 
BRANCH  31  33
ATOM     32  C   UNL     1       5.825   3.901  13.526  0.00  0.00    +0.000 C 
ATOM     33  C   UNL     1       5.750   4.162  15.020  0.00  0.00    +0.000 C 
ENDBRANCH  31  33
ENDBRANCH  30  31
ENDBRANCH  29  30
ENDBRANCH  28  29
ENDBRANCH  27  28
ENDBRANCH  26  27
ENDBRANCH   1  26
TORSDOF 15
ENDMDL
