MODEL 1
REMARK VINA RESULT:      -8.0      0.000      0.000
REMARK  Name = 
REMARK  4 active torsions:
REMARK  status: ('A' for Active; 'I' for Inactive)
REMARK    1  A    between atoms: N_2  and  C_4
REMARK    2  A    between atoms: C_7  and  S_8
REMARK    3  A    between atoms: S_8  and  N_11
REMARK    4  A    between atoms: C_15  and  C_16
REMARK                            x       y       z     vdW  Elec       q    Type
REMARK                         _______ _______ _______ _____ _____    ______ ____
ROOT
ATOM      1  S   UNL     1       6.657   5.171  18.540  0.00  0.00    +0.000 S 
ATOM      2  O   UNL     1       7.172   6.139  19.482  0.00  0.00    +0.000 OA
ATOM      3  O   UNL     1       7.426   4.018  18.132  0.00  0.00    +0.000 OA
ENDROOT
BRANCH   1   4
ATOM      4  N   UNL     1       6.135   6.062  17.198  0.00  0.00    +0.000 N 
ATOM      5  C   UNL     1       6.492   5.434  15.980  0.00  0.00    +0.000 A 
ATOM      6  N   UNL     1       7.588   5.782  15.354  0.00  0.00    +0.000 NA
ATOM      7  N   UNL     1       7.691   5.166  14.122  0.00  0.00    +0.000 NA
ATOM      8  C   UNL     1       6.624   4.441  13.832  0.00  0.00    +0.000 A 
ATOM      9  S   UNL     1       5.459   4.392  15.108  0.00  0.00    +0.000 S 
ATOM     10  H   UNL     1       6.653   6.940  17.264  0.00  0.00    +0.000 HD
BRANCH   8  11
ATOM     11  C   UNL     1       6.356   3.750  12.536  0.00  0.00    +0.000 C 
ATOM     12  F   UNL     1       6.744   2.447  12.541  0.00  0.00    +0.000 F 
ATOM     13  F   UNL     1       5.038   3.760  12.204  0.00  0.00    +0.000 F 
ATOM     14  F   UNL     1       7.018   4.343  11.504  0.00  0.00    +0.000 F 
ENDBRANCH   8  11
ENDBRANCH   1   4
BRANCH   1  18
ATOM     15  C   UNL     1       2.724   3.592  20.229  0.00  0.00    +0.000 A 
ATOM     16  C   UNL     1       3.731   2.701  19.843  0.00  0.00    +0.000 A 
ATOM     17  C   UNL     1       4.929   3.196  19.324  0.00  0.00    +0.000 A 
ATOM     18  C   UNL     1       5.107   4.577  19.181  0.00  0.00    +0.000 A 
ATOM     19  C   UNL     1       4.113   5.474  19.589  0.00  0.00    +0.000 A 
ATOM     20  C   UNL     1       2.910   4.979  20.109  0.00  0.00    +0.000 A 
BRANCH  15  22
ATOM     21  O   UNL     1       1.423   2.763  21.961  0.00  0.00    +0.000 OA
ATOM     22  N   UNL     1       1.460   3.065  20.763  0.00  0.00    +0.000 N 
ATOM     23  O   UNL     1       0.508   2.951  19.978  0.00  0.00    +0.000 OA
ENDBRANCH  15  22
ENDBRANCH   1  18
TORSDOF 4
ENDMDL
MODEL 2
REMARK VINA RESULT:      -8.0      0.164      1.050
REMARK  Name = 
REMARK  4 active torsions:
REMARK  status: ('A' for Active; 'I' for Inactive)
REMARK    1  A    between atoms: N_2  and  C_4
REMARK    2  A    between atoms: C_7  and  S_8
REMARK    3  A    between atoms: S_8  and  N_11
REMARK    4  A    between atoms: C_15  and  C_16
REMARK                            x       y       z     vdW  Elec       q    Type
REMARK                         _______ _______ _______ _____ _____    ______ ____
ROOT
ATOM      1  S   UNL     1       6.739   5.208  18.506  0.00  0.00    +0.000 S 
ATOM      2  O   UNL     1       7.276   6.195  19.417  0.00  0.00    +0.000 OA
ATOM      3  O   UNL     1       7.504   4.054  18.093  0.00  0.00    +0.000 OA
ENDROOT
BRANCH   1   4
ATOM      4  N   UNL     1       6.171   6.074  17.166  0.00  0.00    +0.000 N 
ATOM      5  C   UNL     1       6.495   5.429  15.948  0.00  0.00    +0.000 A 
ATOM      6  N   UNL     1       7.569   5.775  15.284  0.00  0.00    +0.000 NA
ATOM      7  N   UNL     1       7.639   5.140  14.059  0.00  0.00    +0.000 NA
ATOM      8  C   UNL     1       6.569   4.403  13.813  0.00  0.00    +0.000 A 
ATOM      9  S   UNL     1       5.444   4.366  15.125  0.00  0.00    +0.000 S 
ATOM     10  H   UNL     1       6.684   6.956  17.203  0.00  0.00    +0.000 HD
BRANCH   8  11
ATOM     11  C   UNL     1       6.267   3.689  12.537  0.00  0.00    +0.000 C 
ATOM     12  F   UNL     1       6.606   2.373  12.574  0.00  0.00    +0.000 F 
ATOM     13  F   UNL     1       4.949   3.741  12.212  0.00  0.00    +0.000 F 
ATOM     14  F   UNL     1       6.945   4.230  11.486  0.00  0.00    +0.000 F 
ENDBRANCH   8  11
ENDBRANCH   1   4
BRANCH   1  18
ATOM     15  C   UNL     1       2.786   3.736  20.245  0.00  0.00    +0.000 A 
ATOM     16  C   UNL     1       2.998   5.103  20.039  0.00  0.00    +0.000 A 
ATOM     17  C   UNL     1       4.213   5.542  19.510  0.00  0.00    +0.000 A 
ATOM     18  C   UNL     1       5.214   4.613  19.203  0.00  0.00    +0.000 A 
ATOM     19  C   UNL     1       4.999   3.241  19.383  0.00  0.00    +0.000 A 
ATOM     20  C   UNL     1       3.781   2.800  19.914  0.00  0.00    +0.000 A 
BRANCH  15  22
ATOM     21  O   UNL     1       1.536   2.742  21.927  0.00  0.00    +0.000 OA
ATOM     22  N   UNL     1       1.510   3.280  20.814  0.00  0.00    +0.000 N 
ATOM     23  O   UNL     1       0.485   3.458  20.142  0.00  0.00    +0.000 OA
ENDBRANCH  15  22
ENDBRANCH   1  18
TORSDOF 4
ENDMDL
MODEL 3
REMARK VINA RESULT:      -8.0      0.080      1.471
REMARK  Name = 
REMARK  4 active torsions:
REMARK  status: ('A' for Active; 'I' for Inactive)
REMARK    1  A    between atoms: N_2  and  C_4
REMARK    2  A    between atoms: C_7  and  S_8
REMARK    3  A    between atoms: S_8  and  N_11
REMARK    4  A    between atoms: C_15  and  C_16
REMARK                            x       y       z     vdW  Elec       q    Type
REMARK                         _______ _______ _______ _____ _____    ______ ____
ROOT
ATOM      1  S   UNL     1       6.712   5.168  18.538  0.00  0.00    +0.000 S 
ATOM      2  O   UNL     1       7.218   6.152  19.470  0.00  0.00    +0.000 OA
ATOM      3  O   UNL     1       7.505   4.037  18.115  0.00  0.00    +0.000 OA
ENDROOT
BRANCH   1   4
ATOM      4  N   UNL     1       6.137   6.043  17.206  0.00  0.00    +0.000 N 
ATOM      5  C   UNL     1       6.474   5.416  15.982  0.00  0.00    +0.000 A 
ATOM      6  N   UNL     1       7.546   5.784  15.326  0.00  0.00    +0.000 NA
ATOM      7  N   UNL     1       7.629   5.164  14.094  0.00  0.00    +0.000 NA
ATOM      8  C   UNL     1       6.569   4.417  13.835  0.00  0.00    +0.000 A 
ATOM      9  S   UNL     1       5.440   4.350  15.142  0.00  0.00    +0.000 S 
ATOM     10  H   UNL     1       6.639   6.931  17.256  0.00  0.00    +0.000 HD
BRANCH   8  11
ATOM     11  C   UNL     1       6.282   3.715  12.549  0.00  0.00    +0.000 C 
ATOM     12  F   UNL     1       6.922   4.273  11.488  0.00  0.00    +0.000 F 
ATOM     13  F   UNL     1       6.647   2.406  12.578  0.00  0.00    +0.000 F 
ATOM     14  F   UNL     1       4.953   3.737  12.250  0.00  0.00    +0.000 F 
ENDBRANCH   8  11
ENDBRANCH   1   4
BRANCH   1  18
ATOM     15  C   UNL     1       2.775   3.585  20.216  0.00  0.00    +0.000 A 
ATOM     16  C   UNL     1       2.972   4.962  20.065  0.00  0.00    +0.000 A 
ATOM     17  C   UNL     1       4.182   5.434  19.554  0.00  0.00    +0.000 A 
ATOM     18  C   UNL     1       5.193   4.529  19.210  0.00  0.00    +0.000 A 
ATOM     19  C   UNL     1       4.993   3.149  19.335  0.00  0.00    +0.000 A 
ATOM     20  C   UNL     1       3.779   2.673  19.848  0.00  0.00    +0.000 A 
BRANCH  15  22
ATOM     21  O   UNL     1       0.518   3.089  20.020  0.00  0.00    +0.000 OA
ATOM     22  N   UNL     1       1.504   3.093  20.766  0.00  0.00    +0.000 N 
ATOM     23  O   UNL     1       1.497   2.716  21.946  0.00  0.00    +0.000 OA
ENDBRANCH  15  22
ENDBRANCH   1  18
TORSDOF 4
ENDMDL
MODEL 4
REMARK VINA RESULT:      -7.7      0.755      1.349
REMARK  Name = 
REMARK  4 active torsions:
REMARK  status: ('A' for Active; 'I' for Inactive)
REMARK    1  A    between atoms: N_2  and  C_4
REMARK    2  A    between atoms: C_7  and  S_8
REMARK    3  A    between atoms: S_8  and  N_11
REMARK    4  A    between atoms: C_15  and  C_16
REMARK                            x       y       z     vdW  Elec       q    Type
REMARK                         _______ _______ _______ _____ _____    ______ ____
ROOT
ATOM      1  S   UNL     1       6.420   5.060  18.273  0.00  0.00    +0.000 S 
ATOM      2  O   UNL     1       6.771   6.001  19.314  0.00  0.00    +0.000 OA
ATOM      3  O   UNL     1       7.290   3.966  17.906  0.00  0.00    +0.000 OA
ENDROOT
BRANCH   1   4
ATOM      4  N   UNL     1       6.013   5.995  16.921  0.00  0.00    +0.000 N 
ATOM      5  C   UNL     1       6.473   5.407  15.718  0.00  0.00    +0.000 A 
ATOM      6  N   UNL     1       7.618   5.774  15.199  0.00  0.00    +0.000 NA
ATOM      7  N   UNL     1       7.826   5.198  13.961  0.00  0.00    +0.000 NA
ATOM      8  C   UNL     1       6.788   4.484  13.557  0.00  0.00    +0.000 A 
ATOM      9  S   UNL     1       5.519   4.395  14.728  0.00  0.00    +0.000 S 
ATOM     10  H   UNL     1       6.522   6.870  17.060  0.00  0.00    +0.000 HD
BRANCH   8  11
ATOM     11  C   UNL     1       6.632   3.836  12.221  0.00  0.00    +0.000 C 
ATOM     12  F   UNL     1       7.212   2.608  12.159  0.00  0.00    +0.000 F 
ATOM     13  F   UNL     1       5.329   3.667  11.875  0.00  0.00    +0.000 F 
ATOM     14  F   UNL     1       7.201   4.579  11.233  0.00  0.00    +0.000 F 
ENDBRANCH   8  11
ENDBRANCH   1   4
BRANCH   1  18
ATOM     15  C   UNL     1       2.335   3.347  19.365  0.00  0.00    +0.000 A 
ATOM     16  C   UNL     1       2.835   4.461  20.048  0.00  0.00    +0.000 A 
ATOM     17  C   UNL     1       4.089   4.974  19.707  0.00  0.00    +0.000 A 
ATOM     18  C   UNL     1       4.839   4.362  18.696  0.00  0.00    +0.000 A 
ATOM     19  C   UNL     1       4.332   3.264  17.991  0.00  0.00    +0.000 A 
ATOM     20  C   UNL     1       3.076   2.747  18.332  0.00  0.00    +0.000 A 
BRANCH  15  22
ATOM     21  O   UNL     1       0.357   2.249  18.851  0.00  0.00    +0.000 OA
ATOM     22  N   UNL     1       1.021   2.803  19.735  0.00  0.00    +0.000 N 
ATOM     23  O   UNL     1       0.654   2.938  20.911  0.00  0.00    +0.000 OA
ENDBRANCH  15  22
ENDBRANCH   1  18
TORSDOF 4
ENDMDL
MODEL 5
REMARK VINA RESULT:      -7.7      0.613      1.178
REMARK  Name = 
REMARK  4 active torsions:
REMARK  status: ('A' for Active; 'I' for Inactive)
REMARK    1  A    between atoms: N_2  and  C_4
REMARK    2  A    between atoms: C_7  and  S_8
REMARK    3  A    between atoms: S_8  and  N_11
REMARK    4  A    between atoms: C_15  and  C_16
REMARK                            x       y       z     vdW  Elec       q    Type
REMARK                         _______ _______ _______ _____ _____    ______ ____
ROOT
ATOM      1  S   UNL     1       6.459   5.114  18.376  0.00  0.00    +0.000 S 
ATOM      2  O   UNL     1       6.855   6.053  19.403  0.00  0.00    +0.000 OA
ATOM      3  O   UNL     1       7.286   3.988  18.010  0.00  0.00    +0.000 OA
ENDROOT
BRANCH   1   4
ATOM      4  N   UNL     1       6.066   6.049  17.020  0.00  0.00    +0.000 N 
ATOM      5  C   UNL     1       6.464   5.420  15.815  0.00  0.00    +0.000 A 
ATOM      6  N   UNL     1       7.612   5.720  15.262  0.00  0.00    +0.000 NA
ATOM      7  N   UNL     1       7.758   5.116  14.029  0.00  0.00    +0.000 NA
ATOM      8  C   UNL     1       6.676   4.451  13.663  0.00  0.00    +0.000 A 
ATOM      9  S   UNL     1       5.434   4.445  14.866  0.00  0.00    +0.000 S 
ATOM     10  H   UNL     1       6.622   6.898  17.132  0.00  0.00    +0.000 HD
BRANCH   8  11
ATOM     11  C   UNL     1       6.453   3.792  12.341  0.00  0.00    +0.000 C 
ATOM     12  F   UNL     1       5.136   3.678  12.023  0.00  0.00    +0.000 F 
ATOM     13  F   UNL     1       7.041   4.467  11.319  0.00  0.00    +0.000 F 
ATOM     14  F   UNL     1       6.965   2.531  12.315  0.00  0.00    +0.000 F 
ENDBRANCH   8  11
ENDBRANCH   1   4
BRANCH   1  18
ATOM     15  C   UNL     1       2.393   3.399  19.538  0.00  0.00    +0.000 A 
ATOM     16  C   UNL     1       3.215   2.712  18.638  0.00  0.00    +0.000 A 
ATOM     17  C   UNL     1       4.455   3.249  18.287  0.00  0.00    +0.000 A 
ATOM     18  C   UNL     1       4.860   4.475  18.827  0.00  0.00    +0.000 A 
ATOM     19  C   UNL     1       4.054   5.155  19.747  0.00  0.00    +0.000 A 
ATOM     20  C   UNL     1       2.809   4.618  20.100  0.00  0.00    +0.000 A 
BRANCH  15  22
ATOM     21  O   UNL     1       0.384   2.384  18.980  0.00  0.00    +0.000 OA
ATOM     22  N   UNL     1       1.083   2.836  19.894  0.00  0.00    +0.000 N 
ATOM     23  O   UNL     1       0.756   2.854  21.089  0.00  0.00    +0.000 OA
ENDBRANCH  15  22
ENDBRANCH   1  18
TORSDOF 4
ENDMDL
MODEL 6
REMARK VINA RESULT:      -7.6      1.721      1.928
REMARK  Name = 
REMARK  4 active torsions:
REMARK  status: ('A' for Active; 'I' for Inactive)
REMARK    1  A    between atoms: N_2  and  C_4
REMARK    2  A    between atoms: C_7  and  S_8
REMARK    3  A    between atoms: S_8  and  N_11
REMARK    4  A    between atoms: C_15  and  C_16
REMARK                            x       y       z     vdW  Elec       q    Type
REMARK                         _______ _______ _______ _____ _____    ______ ____
ROOT
ATOM      1  S   UNL     1       7.101   6.271  17.642  0.00  0.00    +0.000 S 
ATOM      2  O   UNL     1       6.916   7.189  16.541  0.00  0.00    +0.000 OA
ATOM      3  O   UNL     1       7.858   6.631  18.819  0.00  0.00    +0.000 OA
ENDROOT
BRANCH   1   4
ATOM      4  N   UNL     1       7.683   4.836  16.957  0.00  0.00    +0.000 N 
ATOM      5  C   UNL     1       6.938   4.461  15.812  0.00  0.00    +0.000 A 
ATOM      6  N   UNL     1       5.951   3.607  15.918  0.00  0.00    +0.000 NA
ATOM      7  N   UNL     1       5.443   3.259  14.681  0.00  0.00    +0.000 NA
ATOM      8  C   UNL     1       6.124   3.802  13.686  0.00  0.00    +0.000 A 
ATOM      9  S   UNL     1       7.384   4.861  14.214  0.00  0.00    +0.000 S 
ATOM     10  H   UNL     1       7.526   4.132  17.680  0.00  0.00    +0.000 HD
BRANCH   8  11
ATOM     11  C   UNL     1       5.920   3.533  12.232  0.00  0.00    +0.000 C 
ATOM     12  F   UNL     1       6.049   2.218  11.914  0.00  0.00    +0.000 F 
ATOM     13  F   UNL     1       4.690   3.917  11.800  0.00  0.00    +0.000 F 
ATOM     14  F   UNL     1       6.824   4.203  11.465  0.00  0.00    +0.000 F 
ENDBRANCH   8  11
ENDBRANCH   1   4
BRANCH   1  18
ATOM     15  C   UNL     1       2.985   4.963  19.116  0.00  0.00    +0.000 A 
ATOM     16  C   UNL     1       4.141   4.391  19.659  0.00  0.00    +0.000 A 
ATOM     17  C   UNL     1       5.395   4.796  19.197  0.00  0.00    +0.000 A 
ATOM     18  C   UNL     1       5.485   5.760  18.187  0.00  0.00    +0.000 A 
ATOM     19  C   UNL     1       4.333   6.356  17.658  0.00  0.00    +0.000 A 
ATOM     20  C   UNL     1       3.075   5.949  18.119  0.00  0.00    +0.000 A 
BRANCH  15  22
ATOM     21  O   UNL     1       1.249   5.012  20.653  0.00  0.00    +0.000 OA
ATOM     22  N   UNL     1       1.668   4.524  19.597  0.00  0.00    +0.000 N 
ATOM     23  O   UNL     1       1.058   3.686  18.917  0.00  0.00    +0.000 OA
ENDBRANCH  15  22
ENDBRANCH   1  18
TORSDOF 4
ENDMDL
MODEL 7
REMARK VINA RESULT:      -7.6      1.696      2.291
REMARK  Name = 
REMARK  4 active torsions:
REMARK  status: ('A' for Active; 'I' for Inactive)
REMARK    1  A    between atoms: N_2  and  C_4
REMARK    2  A    between atoms: C_7  and  S_8
REMARK    3  A    between atoms: S_8  and  N_11
REMARK    4  A    between atoms: C_15  and  C_16
REMARK                            x       y       z     vdW  Elec       q    Type
REMARK                         _______ _______ _______ _____ _____    ______ ____
ROOT
ATOM      1  S   UNL     1       7.028   6.263  17.605  0.00  0.00    +0.000 S 
ATOM      2  O   UNL     1       6.765   7.143  16.488  0.00  0.00    +0.000 OA
ATOM      3  O   UNL     1       7.821   6.682  18.738  0.00  0.00    +0.000 OA
ENDROOT
BRANCH   1   4
ATOM      4  N   UNL     1       7.632   4.830  16.935  0.00  0.00    +0.000 N 
ATOM      5  C   UNL     1       6.930   4.463  15.761  0.00  0.00    +0.000 A 
ATOM      6  N   UNL     1       5.938   3.612  15.824  0.00  0.00    +0.000 NA
ATOM      7  N   UNL     1       5.475   3.272  14.567  0.00  0.00    +0.000 NA
ATOM      8  C   UNL     1       6.195   3.818  13.602  0.00  0.00    +0.000 A 
ATOM      9  S   UNL     1       7.437   4.871  14.183  0.00  0.00    +0.000 S 
ATOM     10  H   UNL     1       7.446   4.123  17.648  0.00  0.00    +0.000 HD
BRANCH   8  11
ATOM     11  C   UNL     1       6.046   3.558  12.139  0.00  0.00    +0.000 C 
ATOM     12  F   UNL     1       6.853   4.342  11.378  0.00  0.00    +0.000 F 
ATOM     13  F   UNL     1       6.333   2.271  11.809  0.00  0.00    +0.000 F 
ATOM     14  F   UNL     1       4.774   3.790  11.714  0.00  0.00    +0.000 F 
ENDBRANCH   8  11
ENDBRANCH   1   4
BRANCH   1  18
ATOM     15  C   UNL     1       2.966   4.859  19.137  0.00  0.00    +0.000 A 
ATOM     16  C   UNL     1       3.046   5.924  18.233  0.00  0.00    +0.000 A 
ATOM     17  C   UNL     1       4.296   6.348  17.775  0.00  0.00    +0.000 A 
ATOM     18  C   UNL     1       5.456   5.713  18.232  0.00  0.00    +0.000 A 
ATOM     19  C   UNL     1       5.380   4.629  19.117  0.00  0.00    +0.000 A 
ATOM     20  C   UNL     1       4.128   4.205  19.578  0.00  0.00    +0.000 A 
BRANCH  15  22
ATOM     21  O   UNL     1       1.092   3.495  19.032  0.00  0.00    +0.000 OA
ATOM     22  N   UNL     1       1.649   4.426  19.627  0.00  0.00    +0.000 N 
ATOM     23  O   UNL     1       1.174   5.024  20.602  0.00  0.00    +0.000 OA
ENDBRANCH  15  22
ENDBRANCH   1  18
TORSDOF 4
ENDMDL
MODEL 8
REMARK VINA RESULT:      -7.5      1.689      2.119
REMARK  Name = 
REMARK  4 active torsions:
REMARK  status: ('A' for Active; 'I' for Inactive)
REMARK    1  A    between atoms: N_2  and  C_4
REMARK    2  A    between atoms: C_7  and  S_8
REMARK    3  A    between atoms: S_8  and  N_11
REMARK    4  A    between atoms: C_15  and  C_16
REMARK                            x       y       z     vdW  Elec       q    Type
REMARK                         _______ _______ _______ _____ _____    ______ ____
ROOT
ATOM      1  S   UNL     1       7.009   6.293  17.638  0.00  0.00    +0.000 S 
ATOM      2  O   UNL     1       6.793   7.182  16.517  0.00  0.00    +0.000 OA
ATOM      3  O   UNL     1       7.775   6.695  18.795  0.00  0.00    +0.000 OA
ENDROOT
BRANCH   1   4
ATOM      4  N   UNL     1       7.609   4.853  16.978  0.00  0.00    +0.000 N 
ATOM      5  C   UNL     1       6.931   4.499  15.787  0.00  0.00    +0.000 A 
ATOM      6  N   UNL     1       5.925   3.662  15.823  0.00  0.00    +0.000 NA
ATOM      7  N   UNL     1       5.489   3.331  14.555  0.00  0.00    +0.000 NA
ATOM      8  C   UNL     1       6.241   3.869  13.609  0.00  0.00    +0.000 A 
ATOM      9  S   UNL     1       7.482   4.903  14.223  0.00  0.00    +0.000 S 
ATOM     10  H   UNL     1       7.396   4.148  17.685  0.00  0.00    +0.000 HD
BRANCH   8  11
ATOM     11  C   UNL     1       6.124   3.614  12.142  0.00  0.00    +0.000 C 
ATOM     12  F   UNL     1       4.871   3.838  11.665  0.00  0.00    +0.000 F 
ATOM     13  F   UNL     1       6.963   4.394  11.411  0.00  0.00    +0.000 F 
ATOM     14  F   UNL     1       6.428   2.324  11.830  0.00  0.00    +0.000 F 
ENDBRANCH   8  11
ENDBRANCH   1   4
BRANCH   1  18
ATOM     15  C   UNL     1       2.940   4.937  19.194  0.00  0.00    +0.000 A 
ATOM     16  C   UNL     1       4.107   4.307  19.638  0.00  0.00    +0.000 A 
ATOM     17  C   UNL     1       5.347   4.729  19.151  0.00  0.00    +0.000 A 
ATOM     18  C   UNL     1       5.410   5.767  18.215  0.00  0.00    +0.000 A 
ATOM     19  C   UNL     1       4.247   6.419  17.787  0.00  0.00    +0.000 A 
ATOM     20  C   UNL     1       3.003   5.997  18.273  0.00  0.00    +0.000 A 
BRANCH  15  22
ATOM     21  O   UNL     1       1.077   3.558  19.097  0.00  0.00    +0.000 OA
ATOM     22  N   UNL     1       1.637   4.482  19.699  0.00  0.00    +0.000 N 
ATOM     23  O   UNL     1       1.175   5.055  20.696  0.00  0.00    +0.000 OA
ENDBRANCH  15  22
ENDBRANCH   1  18
TORSDOF 4
ENDMDL
MODEL 9
REMARK VINA RESULT:      -7.5      1.077      1.722
REMARK  Name = 
REMARK  4 active torsions:
REMARK  status: ('A' for Active; 'I' for Inactive)
REMARK    1  A    between atoms: N_2  and  C_4
REMARK    2  A    between atoms: C_7  and  S_8
REMARK    3  A    between atoms: S_8  and  N_11
REMARK    4  A    between atoms: C_15  and  C_16
REMARK                            x       y       z     vdW  Elec       q    Type
REMARK                         _______ _______ _______ _____ _____    ______ ____
ROOT
ATOM      1  S   UNL     1       7.010   5.598  17.706  0.00  0.00    +0.000 S 
ATOM      2  O   UNL     1       7.499   6.686  18.525  0.00  0.00    +0.000 OA
ATOM      3  O   UNL     1       7.796   4.411  17.462  0.00  0.00    +0.000 OA
ENDROOT
BRANCH   1   4
ATOM      4  N   UNL     1       6.502   6.303  16.253  0.00  0.00    +0.000 N 
ATOM      5  C   UNL     1       6.685   5.430  15.154  0.00  0.00    +0.000 A 
ATOM      6  N   UNL     1       7.766   5.512  14.418  0.00  0.00    +0.000 NA
ATOM      7  N   UNL     1       7.698   4.682  13.316  0.00  0.00    +0.000 NA
ATOM      8  C   UNL     1       6.531   4.068  13.220  0.00  0.00    +0.000 A 
ATOM      9  S   UNL     1       5.469   4.400  14.543  0.00  0.00    +0.000 S 
ATOM     10  H   UNL     1       7.127   7.101  16.131  0.00  0.00    +0.000 HD
BRANCH   8  11
ATOM     11  C   UNL     1       6.083   3.204  12.088  0.00  0.00    +0.000 C 
ATOM     12  F   UNL     1       5.132   3.795  11.316  0.00  0.00    +0.000 F 
ATOM     13  F   UNL     1       7.103   2.868  11.255  0.00  0.00    +0.000 F 
ATOM     14  F   UNL     1       5.545   2.034  12.530  0.00  0.00    +0.000 F 
ENDBRANCH   8  11
ENDBRANCH   1   4
BRANCH   1  18
ATOM     15  C   UNL     1       2.985   4.277  19.402  0.00  0.00    +0.000 A 
ATOM     16  C   UNL     1       3.097   5.498  18.730  0.00  0.00    +0.000 A 
ATOM     17  C   UNL     1       4.335   5.894  18.218  0.00  0.00    +0.000 A 
ATOM     18  C   UNL     1       5.455   5.073  18.395  0.00  0.00    +0.000 A 
ATOM     19  C   UNL     1       5.343   3.837  19.044  0.00  0.00    +0.000 A 
ATOM     20  C   UNL     1       4.103   3.439  19.558  0.00  0.00    +0.000 A 
BRANCH  15  22
ATOM     21  O   UNL     1       1.081   4.681  20.664  0.00  0.00    +0.000 OA
ATOM     22  N   UNL     1       1.683   3.871  19.950  0.00  0.00    +0.000 N 
ATOM     23  O   UNL     1       1.268   2.738  19.666  0.00  0.00    +0.000 OA
ENDBRANCH  15  22
ENDBRANCH   1  18
TORSDOF 4
ENDMDL
