MODEL 1
REMARK VINA RESULT:      -8.5      0.000      0.000
REMARK  Name = 
REMARK  5 active torsions:
REMARK  status: ('A' for Active; 'I' for Inactive)
REMARK    1  A    between atoms: C_2  and  C_3
REMARK    2  A    between atoms: C_5  and  S_6
REMARK    3  A    between atoms: S_6  and  N_9
REMARK    4  A    between atoms: C_19  and  O_20
REMARK    5  A    between atoms: O_20  and  C_21
REMARK                            x       y       z     vdW  Elec       q    Type
REMARK                         _______ _______ _______ _____ _____    ______ ____
ROOT
ATOM      1  C   UNL     1       2.185   5.094  20.443  0.00  0.00    +0.000 A 
ATOM      2  C   UNL     1       1.603   6.224  21.036  0.00  0.00    +0.000 A 
ATOM      3  C   UNL     1       1.596   7.451  20.371  0.00  0.00    +0.000 A 
ATOM      4  C   UNL     1       2.208   7.580  19.124  0.00  0.00    +0.000 A 
ATOM      5  C   UNL     1       2.758   6.448  18.515  0.00  0.00    +0.000 A 
ATOM      6  C   UNL     1       2.716   5.192  19.145  0.00  0.00    +0.000 A 
ENDROOT
BRANCH   3   7
ATOM      7  S   UNL     1       0.888   8.870  21.186  0.00  0.00    +0.000 S 
ATOM      8  O   UNL     1      -0.508   8.582  21.447  0.00  0.00    +0.000 OA
ATOM      9  O   UNL     1       1.789   9.236  22.256  0.00  0.00    +0.000 OA
BRANCH   7  10
ATOM     10  N   UNL     1       0.992  10.090  20.032  0.00  0.00    +0.000 N 
ATOM     11  C   UNL     1      -0.218  10.559  19.500  0.00  0.00    +0.000 A 
ATOM     12  C   UNL     1      -1.029  11.467  20.164  0.00  0.00    +0.000 A 
ATOM     13  C   UNL     1      -2.212  11.871  19.536  0.00  0.00    +0.000 A 
ATOM     14  C   UNL     1      -2.528  11.329  18.298  0.00  0.00    +0.000 A 
ATOM     15  F   UNL     1      -3.650  11.694  17.666  0.00  0.00    +0.000 F 
ATOM     16  C   UNL     1      -1.664  10.411  17.728  0.00  0.00    +0.000 A 
ATOM     17  N   UNL     1      -0.505  10.008  18.306  0.00  0.00    +0.000 NA
ATOM     18  H   UNL     1       1.641   9.827  19.293  0.00  0.00    +0.000 HD
ENDBRANCH   7  10
ENDBRANCH   3   7
BRANCH   1  20
ATOM     19  N   UNL     1       2.207   2.983  21.949  0.00  0.00    +0.000 NA
ATOM     20  C   UNL     1       2.209   3.901  21.239  0.00  0.00    +0.000 C 
ENDBRANCH   1  20
BRANCH   6  21
ATOM     21  O   UNL     1       3.317   4.187  18.413  0.00  0.00    +0.000 OA
BRANCH  21  22
ATOM     22  C   UNL     1       4.600   4.321  17.939  0.00  0.00    +0.000 A 
ATOM     23  C   UNL     1       5.700   4.711  18.712  0.00  0.00    +0.000 A 
ATOM     24  C   UNL     1       6.934   4.950  18.099  0.00  0.00    +0.000 A 
ATOM     25  C   UNL     1       7.092   4.713  16.735  0.00  0.00    +0.000 A 
ATOM     26  C   UNL     1       6.023   4.217  15.999  0.00  0.00    +0.000 A 
ATOM     27  F   UNL     1       6.189   3.941  14.699  0.00  0.00    +0.000 F 
ATOM     28  C   UNL     1       4.779   4.018  16.588  0.00  0.00    +0.000 A 
ENDBRANCH  21  22
ENDBRANCH   6  21
TORSDOF 5
ENDMDL
MODEL 2
REMARK VINA RESULT:      -8.5      1.049      1.396
REMARK  Name = 
REMARK  5 active torsions:
REMARK  status: ('A' for Active; 'I' for Inactive)
REMARK    1  A    between atoms: C_2  and  C_3
REMARK    2  A    between atoms: C_5  and  S_6
REMARK    3  A    between atoms: S_6  and  N_9
REMARK    4  A    between atoms: C_19  and  O_20
REMARK    5  A    between atoms: O_20  and  C_21
REMARK                            x       y       z     vdW  Elec       q    Type
REMARK                         _______ _______ _______ _____ _____    ______ ____
ROOT
ATOM      1  C   UNL     1       2.212   5.289  20.443  0.00  0.00    +0.000 A 
ATOM      2  C   UNL     1       1.600   6.418  21.009  0.00  0.00    +0.000 A 
ATOM      3  C   UNL     1       1.590   7.636  20.327  0.00  0.00    +0.000 A 
ATOM      4  C   UNL     1       2.226   7.758  19.091  0.00  0.00    +0.000 A 
ATOM      5  C   UNL     1       2.805   6.626  18.509  0.00  0.00    +0.000 A 
ATOM      6  C   UNL     1       2.769   5.378  19.155  0.00  0.00    +0.000 A 
ENDROOT
BRANCH   3   7
ATOM      7  S   UNL     1       0.844   9.056  21.107  0.00  0.00    +0.000 S 
ATOM      8  O   UNL     1      -0.549   8.743  21.359  0.00  0.00    +0.000 OA
ATOM      9  O   UNL     1       1.725   9.460  22.179  0.00  0.00    +0.000 OA
BRANCH   7  10
ATOM     10  N   UNL     1       0.934  10.255  19.931  0.00  0.00    +0.000 N 
ATOM     11  C   UNL     1      -0.281  10.708  19.397  0.00  0.00    +0.000 A 
ATOM     12  C   UNL     1      -1.093  11.623  20.050  0.00  0.00    +0.000 A 
ATOM     13  C   UNL     1      -2.282  12.010  19.421  0.00  0.00    +0.000 A 
ATOM     14  C   UNL     1      -2.602  11.445  18.195  0.00  0.00    +0.000 A 
ATOM     15  F   UNL     1      -3.729  11.792  17.563  0.00  0.00    +0.000 F 
ATOM     16  C   UNL     1      -1.736  10.521  17.636  0.00  0.00    +0.000 A 
ATOM     17  N   UNL     1      -0.572  10.135  18.215  0.00  0.00    +0.000 NA
ATOM     18  H   UNL     1       1.581   9.983  19.194  0.00  0.00    +0.000 HD
ENDBRANCH   7  10
ENDBRANCH   3   7
BRANCH   1  20
ATOM     19  N   UNL     1       2.198   3.118  21.862  0.00  0.00    +0.000 NA
ATOM     20  C   UNL     1       2.237   4.107  21.255  0.00  0.00    +0.000 C 
ENDBRANCH   1  20
BRANCH   6  21
ATOM     21  O   UNL     1       3.400   4.373  18.450  0.00  0.00    +0.000 OA
BRANCH  21  22
ATOM     22  C   UNL     1       4.682   4.530  17.979  0.00  0.00    +0.000 A 
ATOM     23  C   UNL     1       5.084   4.278  16.662  0.00  0.00    +0.000 A 
ATOM     24  C   UNL     1       6.439   4.335  16.323  0.00  0.00    +0.000 A 
ATOM     25  C   UNL     1       7.379   4.730  17.273  0.00  0.00    +0.000 A 
ATOM     26  C   UNL     1       6.954   5.088  18.547  0.00  0.00    +0.000 A 
ATOM     27  F   UNL     1       7.851   5.516  19.445  0.00  0.00    +0.000 F 
ATOM     28  C   UNL     1       5.615   4.992  18.909  0.00  0.00    +0.000 A 
ENDBRANCH  21  22
ENDBRANCH   6  21
TORSDOF 5
ENDMDL
MODEL 3
REMARK VINA RESULT:      -8.2      2.351      8.222
REMARK  Name = 
REMARK  5 active torsions:
REMARK  status: ('A' for Active; 'I' for Inactive)
REMARK    1  A    between atoms: C_2  and  C_3
REMARK    2  A    between atoms: C_5  and  S_6
REMARK    3  A    between atoms: S_6  and  N_9
REMARK    4  A    between atoms: C_19  and  O_20
REMARK    5  A    between atoms: O_20  and  C_21
REMARK                            x       y       z     vdW  Elec       q    Type
REMARK                         _______ _______ _______ _____ _____    ______ ____
ROOT
ATOM      1  C   UNL     1       1.104   8.873  20.368  0.00  0.00    +0.000 A 
ATOM      2  C   UNL     1       1.720   7.612  20.338  0.00  0.00    +0.000 A 
ATOM      3  C   UNL     1       2.307   7.138  19.164  0.00  0.00    +0.000 A 
ATOM      4  C   UNL     1       2.250   7.893  17.992  0.00  0.00    +0.000 A 
ATOM      5  C   UNL     1       1.668   9.164  18.028  0.00  0.00    +0.000 A 
ATOM      6  C   UNL     1       1.129   9.682  19.219  0.00  0.00    +0.000 A 
ENDROOT
BRANCH   3   7
ATOM      7  S   UNL     1       3.034   5.510  19.159  0.00  0.00    +0.000 S 
ATOM      8  O   UNL     1       2.896   4.958  20.493  0.00  0.00    +0.000 OA
ATOM      9  O   UNL     1       2.509   4.815  18.005  0.00  0.00    +0.000 OA
BRANCH   7  10
ATOM     10  N   UNL     1       4.662   5.796  18.847  0.00  0.00    +0.000 N 
ATOM     11  C   UNL     1       5.114   5.520  17.549  0.00  0.00    +0.000 A 
ATOM     12  C   UNL     1       4.916   6.388  16.485  0.00  0.00    +0.000 A 
ATOM     13  C   UNL     1       5.415   6.013  15.233  0.00  0.00    +0.000 A 
ATOM     14  C   UNL     1       6.058   4.790  15.109  0.00  0.00    +0.000 A 
ATOM     15  F   UNL     1       6.550   4.399  13.928  0.00  0.00    +0.000 F 
ATOM     16  C   UNL     1       6.184   3.983  16.228  0.00  0.00    +0.000 A 
ATOM     17  N   UNL     1       5.722   4.323  17.456  0.00  0.00    +0.000 NA
ATOM     18  H   UNL     1       5.244   5.336  19.544  0.00  0.00    +0.000 HD
ENDBRANCH   7  10
ENDBRANCH   3   7
BRANCH   1  20
ATOM     19  N   UNL     1      -0.108   9.575  22.551  0.00  0.00    +0.000 NA
ATOM     20  C   UNL     1       0.464   9.236  21.600  0.00  0.00    +0.000 C 
ENDBRANCH   1  20
BRANCH   6  21
ATOM     21  O   UNL     1       0.581  10.940  19.075  0.00  0.00    +0.000 OA
BRANCH  21  22
ATOM     22  C   UNL     1      -0.757  11.110  18.811  0.00  0.00    +0.000 A 
ATOM     23  C   UNL     1      -1.573  12.077  19.410  0.00  0.00    +0.000 A 
ATOM     24  C   UNL     1      -2.950  12.071  19.174  0.00  0.00    +0.000 A 
ATOM     25  C   UNL     1      -3.499  11.161  18.273  0.00  0.00    +0.000 A 
ATOM     26  C   UNL     1      -2.664  10.280  17.597  0.00  0.00    +0.000 A 
ATOM     27  F   UNL     1      -3.185   9.440  16.693  0.00  0.00    +0.000 F 
ATOM     28  C   UNL     1      -1.298  10.246  17.857  0.00  0.00    +0.000 A 
ENDBRANCH  21  22
ENDBRANCH   6  21
TORSDOF 5
ENDMDL
MODEL 4
REMARK VINA RESULT:      -8.1      1.417      1.823
REMARK  Name = 
REMARK  5 active torsions:
REMARK  status: ('A' for Active; 'I' for Inactive)
REMARK    1  A    between atoms: C_2  and  C_3
REMARK    2  A    between atoms: C_5  and  S_6
REMARK    3  A    between atoms: S_6  and  N_9
REMARK    4  A    between atoms: C_19  and  O_20
REMARK    5  A    between atoms: O_20  and  C_21
REMARK                            x       y       z     vdW  Elec       q    Type
REMARK                         _______ _______ _______ _____ _____    ______ ____
ROOT
ATOM      1  C   UNL     1       2.199   6.376  19.828  0.00  0.00    +0.000 A 
ATOM      2  C   UNL     1       1.599   7.552  20.303  0.00  0.00    +0.000 A 
ATOM      3  C   UNL     1       1.625   8.720  19.540  0.00  0.00    +0.000 A 
ATOM      4  C   UNL     1       2.287   8.745  18.312  0.00  0.00    +0.000 A 
ATOM      5  C   UNL     1       2.855   7.566  17.820  0.00  0.00    +0.000 A 
ATOM      6  C   UNL     1       2.782   6.366  18.549  0.00  0.00    +0.000 A 
ENDROOT
BRANCH   3   7
ATOM      7  S   UNL     1       0.893  10.204  20.206  0.00  0.00    +0.000 S 
ATOM      8  O   UNL     1       1.289  10.307  21.598  0.00  0.00    +0.000 OA
ATOM      9  O   UNL     1       1.169  11.269  19.269  0.00  0.00    +0.000 OA
BRANCH   7  10
ATOM     10  N   UNL     1      -0.761   9.909  20.125  0.00  0.00    +0.000 N 
ATOM     11  C   UNL     1      -1.408  10.272  18.935  0.00  0.00    +0.000 A 
ATOM     12  C   UNL     1      -1.368   9.489  17.791  0.00  0.00    +0.000 A 
ATOM     13  C   UNL     1      -2.056   9.946  16.661  0.00  0.00    +0.000 A 
ATOM     14  C   UNL     1      -2.720  11.162  16.730  0.00  0.00    +0.000 A 
ATOM     15  F   UNL     1      -3.390  11.629  15.671  0.00  0.00    +0.000 F 
ATOM     16  C   UNL     1      -2.680  11.880  17.913  0.00  0.00    +0.000 A 
ATOM     17  N   UNL     1      -2.033  11.460  19.027  0.00  0.00    +0.000 NA
ATOM     18  H   UNL     1      -1.233  10.305  20.935  0.00  0.00    +0.000 HD
ENDBRANCH   7  10
ENDBRANCH   3   7
BRANCH   1  20
ATOM     19  N   UNL     1       2.151   4.295  21.375  0.00  0.00    +0.000 NA
ATOM     20  C   UNL     1       2.184   5.252  20.719  0.00  0.00    +0.000 C 
ENDBRANCH   1  20
BRANCH   6  21
ATOM     21  O   UNL     1       3.406   5.304  17.927  0.00  0.00    +0.000 OA
BRANCH  21  22
ATOM     22  C   UNL     1       4.771   5.149  17.980  0.00  0.00    +0.000 A 
ATOM     23  C   UNL     1       5.551   5.337  19.126  0.00  0.00    +0.000 A 
ATOM     24  C   UNL     1       6.946   5.290  19.036  0.00  0.00    +0.000 A 
ATOM     25  C   UNL     1       7.555   4.965  17.825  0.00  0.00    +0.000 A 
ATOM     26  C   UNL     1       6.766   4.668  16.721  0.00  0.00    +0.000 A 
ATOM     27  F   UNL     1       7.351   4.308  15.571  0.00  0.00    +0.000 F 
ATOM     28  C   UNL     1       5.380   4.756  16.786  0.00  0.00    +0.000 A 
ENDBRANCH  21  22
ENDBRANCH   6  21
TORSDOF 5
ENDMDL
MODEL 5
REMARK VINA RESULT:      -8.1      2.379      8.532
REMARK  Name = 
REMARK  5 active torsions:
REMARK  status: ('A' for Active; 'I' for Inactive)
REMARK    1  A    between atoms: C_2  and  C_3
REMARK    2  A    between atoms: C_5  and  S_6
REMARK    3  A    between atoms: S_6  and  N_9
REMARK    4  A    between atoms: C_19  and  O_20
REMARK    5  A    between atoms: O_20  and  C_21
REMARK                            x       y       z     vdW  Elec       q    Type
REMARK                         _______ _______ _______ _____ _____    ______ ____
ROOT
ATOM      1  C   UNL     1       1.140   8.697  20.317  0.00  0.00    +0.000 A 
ATOM      2  C   UNL     1       1.809   7.466  20.240  0.00  0.00    +0.000 A 
ATOM      3  C   UNL     1       2.469   7.090  19.069  0.00  0.00    +0.000 A 
ATOM      4  C   UNL     1       2.434   7.915  17.944  0.00  0.00    +0.000 A 
ATOM      5  C   UNL     1       1.798   9.158  18.030  0.00  0.00    +0.000 A 
ATOM      6  C   UNL     1       1.184   9.578  19.222  0.00  0.00    +0.000 A 
ENDROOT
BRANCH   3   7
ATOM      7  S   UNL     1       3.264   5.495  19.000  0.00  0.00    +0.000 S 
ATOM      8  O   UNL     1       3.210   4.915  20.327  0.00  0.00    +0.000 OA
ATOM      9  O   UNL     1       2.716   4.800  17.857  0.00  0.00    +0.000 OA
BRANCH   7  10
ATOM     10  N   UNL     1       4.862   5.857  18.621  0.00  0.00    +0.000 N 
ATOM     11  C   UNL     1       5.304   5.498  17.340  0.00  0.00    +0.000 A 
ATOM     12  C   UNL     1       5.027   6.254  16.211  0.00  0.00    +0.000 A 
ATOM     13  C   UNL     1       5.524   5.804  14.983  0.00  0.00    +0.000 A 
ATOM     14  C   UNL     1       6.243   4.619  14.948  0.00  0.00    +0.000 A 
ATOM     15  F   UNL     1       6.735   4.158  13.793  0.00  0.00    +0.000 F 
ATOM     16  C   UNL     1       6.445   3.923  16.128  0.00  0.00    +0.000 A 
ATOM     17  N   UNL     1       5.988   4.339  17.335  0.00  0.00    +0.000 NA
ATOM     18  H   UNL     1       5.488   5.498  19.340  0.00  0.00    +0.000 HD
ENDBRANCH   7  10
ENDBRANCH   3   7
BRANCH   1  20
ATOM     19  N   UNL     1      -0.150   9.246  22.499  0.00  0.00    +0.000 NA
ATOM     20  C   UNL     1       0.430   8.956  21.537  0.00  0.00    +0.000 C 
ENDBRANCH   1  20
BRANCH   6  21
ATOM     21  O   UNL     1       0.591  10.821  19.130  0.00  0.00    +0.000 OA
BRANCH  21  22
ATOM     22  C   UNL     1      -0.751  10.952  18.863  0.00  0.00    +0.000 A 
ATOM     23  C   UNL     1      -1.439  10.250  17.867  0.00  0.00    +0.000 A 
ATOM     24  C   UNL     1      -2.772  10.562  17.587  0.00  0.00    +0.000 A 
ATOM     25  C   UNL     1      -3.443  11.508  18.360  0.00  0.00    +0.000 A 
ATOM     26  C   UNL     1      -2.783  12.117  19.420  0.00  0.00    +0.000 A 
ATOM     27  F   UNL     1      -3.443  12.989  20.194  0.00  0.00    +0.000 F 
ATOM     28  C   UNL     1      -1.444  11.848  19.679  0.00  0.00    +0.000 A 
ENDBRANCH  21  22
ENDBRANCH   6  21
TORSDOF 5
ENDMDL
MODEL 6
REMARK VINA RESULT:      -8.0      1.975      2.310
REMARK  Name = 
REMARK  5 active torsions:
REMARK  status: ('A' for Active; 'I' for Inactive)
REMARK    1  A    between atoms: C_2  and  C_3
REMARK    2  A    between atoms: C_5  and  S_6
REMARK    3  A    between atoms: S_6  and  N_9
REMARK    4  A    between atoms: C_19  and  O_20
REMARK    5  A    between atoms: O_20  and  C_21
REMARK                            x       y       z     vdW  Elec       q    Type
REMARK                         _______ _______ _______ _____ _____    ______ ____
ROOT
ATOM      1  C   UNL     1       2.248   6.878  19.529  0.00  0.00    +0.000 A 
ATOM      2  C   UNL     1       1.425   7.941  19.931  0.00  0.00    +0.000 A 
ATOM      3  C   UNL     1       1.355   9.109  19.170  0.00  0.00    +0.000 A 
ATOM      4  C   UNL     1       2.135   9.252  18.022  0.00  0.00    +0.000 A 
ATOM      5  C   UNL     1       2.928   8.180  17.601  0.00  0.00    +0.000 A 
ATOM      6  C   UNL     1       2.962   6.974  18.322  0.00  0.00    +0.000 A 
ENDROOT
BRANCH   3   7
ATOM      7  S   UNL     1       0.335  10.454  19.746  0.00  0.00    +0.000 S 
ATOM      8  O   UNL     1      -0.721   9.891  20.566  0.00  0.00    +0.000 OA
ATOM      9  O   UNL     1       1.225  11.468  20.265  0.00  0.00    +0.000 OA
BRANCH   7  10
ATOM     10  N   UNL     1      -0.339  11.081  18.338  0.00  0.00    +0.000 N 
ATOM     11  C   UNL     1      -1.738  11.057  18.243  0.00  0.00    +0.000 A 
ATOM     12  C   UNL     1      -2.548  11.996  18.865  0.00  0.00    +0.000 A 
ATOM     13  C   UNL     1      -3.932  11.880  18.698  0.00  0.00    +0.000 A 
ATOM     14  C   UNL     1      -4.427  10.826  17.944  0.00  0.00    +0.000 A 
ATOM     15  F   UNL     1      -5.744  10.684  17.759  0.00  0.00    +0.000 F 
ATOM     16  C   UNL     1      -3.536   9.927  17.383  0.00  0.00    +0.000 A 
ATOM     17  N   UNL     1      -2.190  10.019  17.517  0.00  0.00    +0.000 NA
ATOM     18  H   UNL     1       0.092  10.658  17.518  0.00  0.00    +0.000 HD
ENDBRANCH   7  10
ENDBRANCH   3   7
BRANCH   1  20
ATOM     19  N   UNL     1       2.383   4.797  21.072  0.00  0.00    +0.000 NA
ATOM     20  C   UNL     1       2.309   5.753  20.418  0.00  0.00    +0.000 C 
ENDBRANCH   1  20
BRANCH   6  21
ATOM     21  O   UNL     1       3.806   6.028  17.776  0.00  0.00    +0.000 OA
BRANCH  21  22
ATOM     22  C   UNL     1       5.143   5.998  18.096  0.00  0.00    +0.000 A 
ATOM     23  C   UNL     1       5.704   5.208  19.106  0.00  0.00    +0.000 A 
ATOM     24  C   UNL     1       7.053   5.358  19.440  0.00  0.00    +0.000 A 
ATOM     25  C   UNL     1       7.860   6.226  18.707  0.00  0.00    +0.000 A 
ATOM     26  C   UNL     1       7.318   6.921  17.633  0.00  0.00    +0.000 A 
ATOM     27  F   UNL     1       8.105   7.717  16.898  0.00  0.00    +0.000 F 
ATOM     28  C   UNL     1       5.967   6.814  17.320  0.00  0.00    +0.000 A 
ENDBRANCH  21  22
ENDBRANCH   6  21
TORSDOF 5
ENDMDL
MODEL 7
REMARK VINA RESULT:      -8.0      1.006      1.168
REMARK  Name = 
REMARK  5 active torsions:
REMARK  status: ('A' for Active; 'I' for Inactive)
REMARK    1  A    between atoms: C_2  and  C_3
REMARK    2  A    between atoms: C_5  and  S_6
REMARK    3  A    between atoms: S_6  and  N_9
REMARK    4  A    between atoms: C_19  and  O_20
REMARK    5  A    between atoms: O_20  and  C_21
REMARK                            x       y       z     vdW  Elec       q    Type
REMARK                         _______ _______ _______ _____ _____    ______ ____
ROOT
ATOM      1  C   UNL     1       2.225   5.666  19.905  0.00  0.00    +0.000 A 
ATOM      2  C   UNL     1       1.667   6.628  20.761  0.00  0.00    +0.000 A 
ATOM      3  C   UNL     1       1.538   7.955  20.349  0.00  0.00    +0.000 A 
ATOM      4  C   UNL     1       2.002   8.352  19.094  0.00  0.00    +0.000 A 
ATOM      5  C   UNL     1       2.526   7.389  18.226  0.00  0.00    +0.000 A 
ATOM      6  C   UNL     1       2.605   6.037  18.603  0.00  0.00    +0.000 A 
ENDROOT
BRANCH   3   7
ATOM      7  S   UNL     1       0.869   9.152  21.489  0.00  0.00    +0.000 S 
ATOM      8  O   UNL     1      -0.500   8.772  21.779  0.00  0.00    +0.000 OA
ATOM      9  O   UNL     1       1.839   9.316  22.548  0.00  0.00    +0.000 OA
BRANCH   7  10
ATOM     10  N   UNL     1       0.868  10.587  20.612  0.00  0.00    +0.000 N 
ATOM     11  C   UNL     1      -0.357  11.264  20.513  0.00  0.00    +0.000 A 
ATOM     12  C   UNL     1      -0.856  12.065  21.529  0.00  0.00    +0.000 A 
ATOM     13  C   UNL     1      -2.085  12.699  21.319  0.00  0.00    +0.000 A 
ATOM     14  C   UNL     1      -2.754  12.479  20.124  0.00  0.00    +0.000 A 
ATOM     15  F   UNL     1      -3.931  13.070  19.888  0.00  0.00    +0.000 F 
ATOM     16  C   UNL     1      -2.183  11.643  19.181  0.00  0.00    +0.000 A 
ATOM     17  N   UNL     1      -0.988  11.023  19.349  0.00  0.00    +0.000 NA
ATOM     18  H   UNL     1       1.283  10.444  19.693  0.00  0.00    +0.000 HD
ENDBRANCH   7  10
ENDBRANCH   3   7
BRANCH   1  20
ATOM     19  N   UNL     1       2.536   3.257  20.815  0.00  0.00    +0.000 NA
ATOM     20  C   UNL     1       2.384   4.349  20.450  0.00  0.00    +0.000 C 
ENDBRANCH   1  20
BRANCH   6  21
ATOM     21  O   UNL     1       3.160   5.225  17.635  0.00  0.00    +0.000 OA
BRANCH  21  22
ATOM     22  C   UNL     1       4.519   5.035  17.559  0.00  0.00    +0.000 A 
ATOM     23  C   UNL     1       5.426   5.331  18.583  0.00  0.00    +0.000 A 
ATOM     24  C   UNL     1       6.800   5.231  18.349  0.00  0.00    +0.000 A 
ATOM     25  C   UNL     1       7.266   4.748  17.127  0.00  0.00    +0.000 A 
ATOM     26  C   UNL     1       6.354   4.349  16.158  0.00  0.00    +0.000 A 
ATOM     27  F   UNL     1       6.801   3.839  15.003  0.00  0.00    +0.000 F 
ATOM     28  C   UNL     1       4.985   4.487  16.362  0.00  0.00    +0.000 A 
ENDBRANCH  21  22
ENDBRANCH   6  21
TORSDOF 5
ENDMDL
MODEL 8
REMARK VINA RESULT:      -8.0      1.347      1.777
REMARK  Name = 
REMARK  5 active torsions:
REMARK  status: ('A' for Active; 'I' for Inactive)
REMARK    1  A    between atoms: C_2  and  C_3
REMARK    2  A    between atoms: C_5  and  S_6
REMARK    3  A    between atoms: S_6  and  N_9
REMARK    4  A    between atoms: C_19  and  O_20
REMARK    5  A    between atoms: O_20  and  C_21
REMARK                            x       y       z     vdW  Elec       q    Type
REMARK                         _______ _______ _______ _____ _____    ______ ____
ROOT
ATOM      1  C   UNL     1       2.196   5.091  20.489  0.00  0.00    +0.000 A 
ATOM      2  C   UNL     1       1.599   6.214  21.081  0.00  0.00    +0.000 A 
ATOM      3  C   UNL     1       1.605   7.447  20.427  0.00  0.00    +0.000 A 
ATOM      4  C   UNL     1       2.244   7.589  19.195  0.00  0.00    +0.000 A 
ATOM      5  C   UNL     1       2.809   6.463  18.587  0.00  0.00    +0.000 A 
ATOM      6  C   UNL     1       2.756   5.202  19.205  0.00  0.00    +0.000 A 
ENDROOT
BRANCH   3   7
ATOM      7  S   UNL     1       0.878   8.858  21.239  0.00  0.00    +0.000 S 
ATOM      8  O   UNL     1      -0.499   8.530  21.552  0.00  0.00    +0.000 OA
ATOM      9  O   UNL     1       1.800   9.274  22.272  0.00  0.00    +0.000 OA
BRANCH   7  10
ATOM     10  N   UNL     1       0.903  10.059  20.061  0.00  0.00    +0.000 N 
ATOM     11  C   UNL     1      -0.018  11.106  20.209  0.00  0.00    +0.000 A 
ATOM     12  C   UNL     1       0.186  12.169  21.076  0.00  0.00    +0.000 A 
ATOM     13  C   UNL     1      -0.798  13.162  21.138  0.00  0.00    +0.000 A 
ATOM     14  C   UNL     1      -1.933  13.026  20.353  0.00  0.00    +0.000 A 
ATOM     15  F   UNL     1      -2.893  13.957  20.384  0.00  0.00    +0.000 F 
ATOM     16  C   UNL     1      -2.054  11.915  19.536  0.00  0.00    +0.000 A 
ATOM     17  N   UNL     1      -1.114  10.942  19.445  0.00  0.00    +0.000 NA
ATOM     18  H   UNL     1       0.845   9.647  19.132  0.00  0.00    +0.000 HD
ENDBRANCH   7  10
ENDBRANCH   3   7
BRANCH   1  20
ATOM     19  N   UNL     1       2.271   2.890  21.860  0.00  0.00    +0.000 NA
ATOM     20  C   UNL     1       2.204   3.890  21.275  0.00  0.00    +0.000 C 
ENDBRANCH   1  20
BRANCH   6  21
ATOM     21  O   UNL     1       3.374   4.205  18.477  0.00  0.00    +0.000 OA
BRANCH  21  22
ATOM     22  C   UNL     1       4.586   4.417  17.864  0.00  0.00    +0.000 A 
ATOM     23  C   UNL     1       4.813   4.313  16.487  0.00  0.00    +0.000 A 
ATOM     24  C   UNL     1       6.113   4.412  15.985  0.00  0.00    +0.000 A 
ATOM     25  C   UNL     1       7.172   4.704  16.843  0.00  0.00    +0.000 A 
ATOM     26  C   UNL     1       6.918   4.917  18.192  0.00  0.00    +0.000 A 
ATOM     27  F   UNL     1       7.928   5.247  19.009  0.00  0.00    +0.000 F 
ATOM     28  C   UNL     1       5.636   4.777  18.711  0.00  0.00    +0.000 A 
ENDBRANCH  21  22
ENDBRANCH   6  21
TORSDOF 5
ENDMDL
MODEL 9
REMARK VINA RESULT:      -7.9      3.564      4.656
REMARK  Name = 
REMARK  5 active torsions:
REMARK  status: ('A' for Active; 'I' for Inactive)
REMARK    1  A    between atoms: C_2  and  C_3
REMARK    2  A    between atoms: C_5  and  S_6
REMARK    3  A    between atoms: S_6  and  N_9
REMARK    4  A    between atoms: C_19  and  O_20
REMARK    5  A    between atoms: O_20  and  C_21
REMARK                            x       y       z     vdW  Elec       q    Type
REMARK                         _______ _______ _______ _____ _____    ______ ____
ROOT
ATOM      1  C   UNL     1       1.883   8.589  18.859  0.00  0.00    +0.000 A 
ATOM      2  C   UNL     1       1.064   9.723  18.749  0.00  0.00    +0.000 A 
ATOM      3  C   UNL     1       0.193  10.071  19.783  0.00  0.00    +0.000 A 
ATOM      4  C   UNL     1       0.094   9.270  20.922  0.00  0.00    +0.000 A 
ATOM      5  C   UNL     1       0.935   8.160  21.048  0.00  0.00    +0.000 A 
ATOM      6  C   UNL     1       1.861   7.832  20.043  0.00  0.00    +0.000 A 
ENDROOT
BRANCH   3   7
ATOM      7  S   UNL     1      -0.865  11.492  19.580  0.00  0.00    +0.000 S 
ATOM      8  O   UNL     1      -0.934  12.180  20.854  0.00  0.00    +0.000 OA
ATOM      9  O   UNL     1      -0.428  12.177  18.384  0.00  0.00    +0.000 OA
BRANCH   7  10
ATOM     10  N   UNL     1      -2.370  10.828  19.230  0.00  0.00    +0.000 N 
ATOM     11  C   UNL     1      -2.687  10.663  17.874  0.00  0.00    +0.000 A 
ATOM     12  C   UNL     1      -2.214   9.602  17.116  0.00  0.00    +0.000 A 
ATOM     13  C   UNL     1      -2.599   9.534  15.773  0.00  0.00    +0.000 A 
ATOM     14  C   UNL     1      -3.410  10.535  15.259  0.00  0.00    +0.000 A 
ATOM     15  F   UNL     1      -3.800  10.502  13.980  0.00  0.00    +0.000 F 
ATOM     16  C   UNL     1      -3.810  11.566  16.092  0.00  0.00    +0.000 A 
ATOM     17  N   UNL     1      -3.463  11.655  17.400  0.00  0.00    +0.000 NA
ATOM     18  H   UNL     1      -3.105  11.334  19.720  0.00  0.00    +0.000 HD
ENDBRANCH   7  10
ENDBRANCH   3   7
BRANCH   1  20
ATOM     19  N   UNL     1       3.391   7.987  16.836  0.00  0.00    +0.000 NA
ATOM     20  C   UNL     1       2.686   8.275  17.712  0.00  0.00    +0.000 C 
ENDBRANCH   1  20
BRANCH   6  21
ATOM     21  O   UNL     1       2.599   6.700  20.321  0.00  0.00    +0.000 OA
BRANCH  21  22
ATOM     22  C   UNL     1       2.143   5.450  19.976  0.00  0.00    +0.000 A 
ATOM     23  C   UNL     1       2.016   4.980  18.664  0.00  0.00    +0.000 A 
ATOM     24  C   UNL     1       1.410   3.745  18.420  0.00  0.00    +0.000 A 
ATOM     25  C   UNL     1       1.016   2.940  19.487  0.00  0.00    +0.000 A 
ATOM     26  C   UNL     1       1.251   3.366  20.789  0.00  0.00    +0.000 A 
ATOM     27  F   UNL     1       0.917   2.571  21.814  0.00  0.00    +0.000 F 
ATOM     28  C   UNL     1       1.811   4.613  21.043  0.00  0.00    +0.000 A 
ENDBRANCH  21  22
ENDBRANCH   6  21
TORSDOF 5
ENDMDL
