MODEL 1
REMARK VINA RESULT:      -7.5      0.000      0.000
REMARK  Name = 
REMARK  5 active torsions:
REMARK  status: ('A' for Active; 'I' for Inactive)
REMARK    1  A    between atoms: C_1  and  N_2
REMARK    2  A    between atoms: C_6  and  C_7
REMARK    3  A    between atoms: C_25  and  C_26
REMARK    4  A    between atoms: C_26  and  C_27
REMARK    5  A    between atoms: C_27  and  O_29
REMARK                            x       y       z     vdW  Elec       q    Type
REMARK                         _______ _______ _______ _____ _____    ______ ____
ROOT
ATOM      1  C   UNL     1      -4.073  13.332  22.181  0.00  0.00    +0.000 C 
ATOM      2  N   UNL     1      -3.978  13.460  20.744  0.00  0.00    +0.000 N 
ATOM      3  C   UNL     1      -2.672  13.585  20.119  0.00  0.00    +0.000 C 
ATOM      4  C   UNL     1      -2.186  12.271  19.587  0.00  0.00    +0.000 A 
ATOM      5  C   UNL     1      -1.132  11.577  20.202  0.00  0.00    +0.000 A 
ATOM      6  C   UNL     1      -0.761  10.315  19.733  0.00  0.00    +0.000 A 
ATOM      7  C   UNL     1      -1.436   9.775  18.632  0.00  0.00    +0.000 A 
ATOM      8  C   UNL     1      -2.426  10.491  17.975  0.00  0.00    +0.000 A 
ATOM      9  C   UNL     1      -2.844  11.719  18.478  0.00  0.00    +0.000 A 
ATOM     10  N   UNL     1      -4.005  12.314  17.963  0.00  0.00    +0.000 N 
ATOM     11  C   UNL     1      -5.186  12.321  18.869  0.00  0.00    +0.000 C 
ATOM     12  C   UNL     1      -5.147  13.375  19.999  0.00  0.00    +0.000 C 
ATOM     13  O   UNL     1      -6.202  13.867  20.414  0.00  0.00    +0.000 OA
ATOM     14  H   UNL     1      -4.271  11.866  17.080  0.00  0.00    +0.000 HD
ENDROOT
BRANCH   6  15
ATOM     15  C   UNL     1       0.222   9.505  20.514  0.00  0.00    +0.000 C 
ATOM     16  O   UNL     1       0.061   9.436  21.731  0.00  0.00    +0.000 OA
ATOM     17  N   UNL     1       1.208   8.802  19.842  0.00  0.00    +0.000 N 
ATOM     18  C   UNL     1       1.996   7.781  20.567  0.00  0.00    +0.000 C 
ATOM     19  C   UNL     1       2.199   6.514  19.692  0.00  0.00    +0.000 C 
ATOM     20  N   UNL     1       2.790   6.966  18.427  0.00  0.00    +0.000 N 
ATOM     21  C   UNL     1       3.670   6.182  17.715  0.00  0.00    +0.000 A 
ATOM     22  C   UNL     1       4.635   6.847  16.940  0.00  0.00    +0.000 A 
ATOM     23  C   UNL     1       5.527   6.126  16.169  0.00  0.00    +0.000 A 
ATOM     24  C   UNL     1       5.448   4.749  16.180  0.00  0.00    +0.000 A 
ATOM     25  C   UNL     1       4.492   4.155  16.990  0.00  0.00    +0.000 A 
ATOM     26  N   UNL     1       3.615   4.844  17.768  0.00  0.00    +0.000 NA
ATOM     27  C   UNL     1       1.958   7.896  17.661  0.00  0.00    +0.000 C 
ATOM     28  C   UNL     1       1.761   9.152  18.522  0.00  0.00    +0.000 C 
ENDBRANCH   6  15
BRANCH  11  29
ATOM     29  C   UNL     1      -5.472  10.989  19.590  0.00  0.00    +0.000 C 
BRANCH  29  30
ATOM     30  C   UNL     1      -6.861  10.467  19.388  0.00  0.00    +0.000 C 
ATOM     31  O   UNL     1      -7.147   9.339  19.002  0.00  0.00    +0.000 OA
BRANCH  30  32
ATOM     32  O   UNL     1      -7.806  11.383  19.699  0.00  0.00    +0.000 OA
ATOM     33  H   UNL     1      -8.391  11.127  20.441  0.00  0.00    +0.000 HD
ENDBRANCH  30  32
ENDBRANCH  29  30
ENDBRANCH  11  29
TORSDOF 4
ENDMDL
MODEL 2
REMARK VINA RESULT:      -7.4      3.736      9.860
REMARK  Name = 
REMARK  5 active torsions:
REMARK  status: ('A' for Active; 'I' for Inactive)
REMARK    1  A    between atoms: C_1  and  N_2
REMARK    2  A    between atoms: C_6  and  C_7
REMARK    3  A    between atoms: C_25  and  C_26
REMARK    4  A    between atoms: C_26  and  C_27
REMARK    5  A    between atoms: C_27  and  O_29
REMARK                            x       y       z     vdW  Elec       q    Type
REMARK                         _______ _______ _______ _____ _____    ______ ____
ROOT
ATOM      1  C   UNL     1       4.652   4.492  16.059  0.00  0.00    +0.000 C 
ATOM      2  N   UNL     1       4.725   4.289  17.489  0.00  0.00    +0.000 N 
ATOM      3  C   UNL     1       5.078   5.401  18.355  0.00  0.00    +0.000 C 
ATOM      4  C   UNL     1       3.863   6.041  18.956  0.00  0.00    +0.000 A 
ATOM      5  C   UNL     1       3.426   7.311  18.548  0.00  0.00    +0.000 A 
ATOM      6  C   UNL     1       2.242   7.840  19.066  0.00  0.00    +0.000 A 
ATOM      7  C   UNL     1       1.523   7.099  20.011  0.00  0.00    +0.000 A 
ATOM      8  C   UNL     1       1.992   5.877  20.472  0.00  0.00    +0.000 A 
ATOM      9  C   UNL     1       3.135   5.315  19.912  0.00  0.00    +0.000 A 
ATOM     10  N   UNL     1       3.458   3.981  20.200  0.00  0.00    +0.000 N 
ATOM     11  C   UNL     1       3.273   3.014  19.084  0.00  0.00    +0.000 C 
ATOM     12  C   UNL     1       4.369   3.045  17.994  0.00  0.00    +0.000 C 
ATOM     13  O   UNL     1       4.660   2.007  17.388  0.00  0.00    +0.000 OA
ATOM     14  H   UNL     1       2.922   3.654  21.011  0.00  0.00    +0.000 HD
ENDROOT
BRANCH   6  15
ATOM     15  C   UNL     1       1.685   9.097  18.480  0.00  0.00    +0.000 C 
ATOM     16  O   UNL     1       1.810   9.262  17.269  0.00  0.00    +0.000 OA
ATOM     17  N   UNL     1       0.985   9.973  19.294  0.00  0.00    +0.000 N 
ATOM     18  C   UNL     1       0.192  11.060  18.678  0.00  0.00    +0.000 C 
ATOM     19  C   UNL     1      -1.177  11.218  19.393  0.00  0.00    +0.000 C 
ATOM     20  N   UNL     1      -0.891  11.396  20.820  0.00  0.00    +0.000 N 
ATOM     21  C   UNL     1      -1.688  12.172  21.632  0.00  0.00    +0.000 A 
ATOM     22  C   UNL     1      -1.068  12.800  22.725  0.00  0.00    +0.000 A 
ATOM     23  C   UNL     1      -1.814  13.563  23.604  0.00  0.00    +0.000 A 
ATOM     24  C   UNL     1      -3.169  13.693  23.382  0.00  0.00    +0.000 A 
ATOM     25  C   UNL     1      -3.712  13.071  22.268  0.00  0.00    +0.000 A 
ATOM     26  N   UNL     1      -2.995  12.329  21.382  0.00  0.00    +0.000 NA
ATOM     27  C   UNL     1      -0.198  10.269  21.450  0.00  0.00    +0.000 C 
ATOM     28  C   UNL     1       1.159  10.115  20.750  0.00  0.00    +0.000 C 
ENDBRANCH   6  15
BRANCH  11  29
ATOM     29  C   UNL     1       1.949   3.149  18.307  0.00  0.00    +0.000 C 
BRANCH  29  30
ATOM     30  C   UNL     1       0.756   2.597  19.025  0.00  0.00    +0.000 C 
ATOM     31  O   UNL     1       0.390   2.923  20.148  0.00  0.00    +0.000 OA
BRANCH  30  32
ATOM     32  O   UNL     1       0.088   1.683  18.286  0.00  0.00    +0.000 OA
ATOM     33  H   UNL     1      -0.794   1.444  18.636  0.00  0.00    +0.000 HD
ENDBRANCH  30  32
ENDBRANCH  29  30
ENDBRANCH  11  29
TORSDOF 4
ENDMDL
MODEL 3
REMARK VINA RESULT:      -7.1      3.635     10.043
REMARK  Name = 
REMARK  5 active torsions:
REMARK  status: ('A' for Active; 'I' for Inactive)
REMARK    1  A    between atoms: C_1  and  N_2
REMARK    2  A    between atoms: C_6  and  C_7
REMARK    3  A    between atoms: C_25  and  C_26
REMARK    4  A    between atoms: C_26  and  C_27
REMARK    5  A    between atoms: C_27  and  O_29
REMARK                            x       y       z     vdW  Elec       q    Type
REMARK                         _______ _______ _______ _____ _____    ______ ____
ROOT
ATOM      1  C   UNL     1       5.185   5.770  15.185  0.00  0.00    +0.000 C 
ATOM      2  N   UNL     1       5.392   5.513  16.594  0.00  0.00    +0.000 N 
ATOM      3  C   UNL     1       5.475   6.629  17.521  0.00  0.00    +0.000 C 
ATOM      4  C   UNL     1       4.167   6.871  18.213  0.00  0.00    +0.000 A 
ATOM      5  C   UNL     1       3.376   7.991  17.912  0.00  0.00    +0.000 A 
ATOM      6  C   UNL     1       2.123   8.140  18.512  0.00  0.00    +0.000 A 
ATOM      7  C   UNL     1       1.691   7.176  19.430  0.00  0.00    +0.000 A 
ATOM      8  C   UNL     1       2.502   6.108  19.785  0.00  0.00    +0.000 A 
ATOM      9  C   UNL     1       3.721   5.919  19.142  0.00  0.00    +0.000 A 
ATOM     10  N   UNL     1       4.415   4.713  19.324  0.00  0.00    +0.000 N 
ATOM     11  C   UNL     1       4.439   3.798  18.150  0.00  0.00    +0.000 C 
ATOM     12  C   UNL     1       5.421   4.193  17.023  0.00  0.00    +0.000 C 
ATOM     13  O   UNL     1       5.951   3.314  16.336  0.00  0.00    +0.000 OA
ATOM     14  H   UNL     1       4.036   4.205  20.129  0.00  0.00    +0.000 HD
ENDROOT
BRANCH   6  15
ATOM     15  C   UNL     1       1.211   9.225  18.038  0.00  0.00    +0.000 C 
ATOM     16  O   UNL     1       0.924   9.242  16.843  0.00  0.00    +0.000 OA
ATOM     17  N   UNL     1       0.662  10.101  18.960  0.00  0.00    +0.000 N 
ATOM     18  C   UNL     1      -0.453  10.983  18.549  0.00  0.00    +0.000 C 
ATOM     19  C   UNL     1      -1.539  11.053  19.657  0.00  0.00    +0.000 C 
ATOM     20  N   UNL     1      -0.857  11.454  20.892  0.00  0.00    +0.000 N 
ATOM     21  C   UNL     1      -1.482  12.220  21.852  0.00  0.00    +0.000 A 
ATOM     22  C   UNL     1      -0.667  13.063  22.626  0.00  0.00    +0.000 A 
ATOM     23  C   UNL     1      -1.219  13.831  23.635  0.00  0.00    +0.000 A 
ATOM     24  C   UNL     1      -2.577  13.751  23.858  0.00  0.00    +0.000 A 
ATOM     25  C   UNL     1      -3.328  12.922  23.038  0.00  0.00    +0.000 A 
ATOM     26  N   UNL     1      -2.808  12.169  22.032  0.00  0.00    +0.000 NA
ATOM     27  C   UNL     1       0.175  10.522  21.352  0.00  0.00    +0.000 C 
ATOM     28  C   UNL     1       1.253  10.456  20.261  0.00  0.00    +0.000 C 
ENDBRANCH   6  15
BRANCH  11  29
ATOM     29  C   UNL     1       3.087   3.604  17.437  0.00  0.00    +0.000 C 
BRANCH  29  30
ATOM     30  C   UNL     1       2.249   2.496  17.998  0.00  0.00    +0.000 C 
ATOM     31  O   UNL     1       1.045   2.559  18.217  0.00  0.00    +0.000 OA
BRANCH  30  32
ATOM     32  O   UNL     1       2.968   1.376  18.235  0.00  0.00    +0.000 OA
ATOM     33  H   UNL     1       3.716   1.236  17.619  0.00  0.00    +0.000 HD
ENDBRANCH  30  32
ENDBRANCH  29  30
ENDBRANCH  11  29
TORSDOF 4
ENDMDL
MODEL 4
REMARK VINA RESULT:      -7.0      1.422      2.077
REMARK  Name = 
REMARK  5 active torsions:
REMARK  status: ('A' for Active; 'I' for Inactive)
REMARK    1  A    between atoms: C_1  and  N_2
REMARK    2  A    between atoms: C_6  and  C_7
REMARK    3  A    between atoms: C_25  and  C_26
REMARK    4  A    between atoms: C_26  and  C_27
REMARK    5  A    between atoms: C_27  and  O_29
REMARK                            x       y       z     vdW  Elec       q    Type
REMARK                         _______ _______ _______ _____ _____    ______ ____
ROOT
ATOM      1  C   UNL     1      -5.589  12.723  23.856  0.00  0.00    +0.000 C 
ATOM      2  N   UNL     1      -5.226  13.507  22.696  0.00  0.00    +0.000 N 
ATOM      3  C   UNL     1      -3.890  14.071  22.602  0.00  0.00    +0.000 C 
ATOM      4  C   UNL     1      -2.990  13.221  21.756  0.00  0.00    +0.000 A 
ATOM      5  C   UNL     1      -1.953  12.464  22.323  0.00  0.00    +0.000 A 
ATOM      6  C   UNL     1      -1.188  11.616  21.518  0.00  0.00    +0.000 A 
ATOM      7  C   UNL     1      -1.456  11.560  20.145  0.00  0.00    +0.000 A 
ATOM      8  C   UNL     1      -2.431  12.363  19.570  0.00  0.00    +0.000 A 
ATOM      9  C   UNL     1      -3.238  13.159  20.377  0.00  0.00    +0.000 A 
ATOM     10  N   UNL     1      -4.374  13.770  19.824  0.00  0.00    +0.000 N 
ATOM     11  C   UNL     1      -5.684  13.209  20.252  0.00  0.00    +0.000 C 
ATOM     12  C   UNL     1      -6.150  13.623  21.667  0.00  0.00    +0.000 C 
ATOM     13  O   UNL     1      -7.358  13.731  21.907  0.00  0.00    +0.000 OA
ATOM     14  H   UNL     1      -4.325  13.747  18.800  0.00  0.00    +0.000 HD
ENDROOT
BRANCH   6  15
ATOM     15  C   UNL     1      -0.224  10.672  22.159  0.00  0.00    +0.000 C 
ATOM     16  O   UNL     1      -0.270  10.558  23.383  0.00  0.00    +0.000 OA
ATOM     17  N   UNL     1       0.610   9.907  21.361  0.00  0.00    +0.000 N 
ATOM     18  C   UNL     1       1.352   8.775  21.959  0.00  0.00    +0.000 C 
ATOM     19  C   UNL     1       1.331   7.541  21.017  0.00  0.00    +0.000 C 
ATOM     20  N   UNL     1       1.837   7.992  19.717  0.00  0.00    +0.000 N 
ATOM     21  C   UNL     1       2.554   7.159  18.886  0.00  0.00    +0.000 A 
ATOM     22  C   UNL     1       3.502   7.761  18.042  0.00  0.00    +0.000 A 
ATOM     23  C   UNL     1       4.231   6.992  17.154  0.00  0.00    +0.000 A 
ATOM     24  C   UNL     1       4.007   5.632  17.119  0.00  0.00    +0.000 A 
ATOM     25  C   UNL     1       3.078   5.099  18.000  0.00  0.00    +0.000 A 
ATOM     26  N   UNL     1       2.361   5.834  18.892  0.00  0.00    +0.000 NA
ATOM     27  C   UNL     1       1.037   9.040  19.080  0.00  0.00    +0.000 C 
ATOM     28  C   UNL     1       1.063  10.265  20.005  0.00  0.00    +0.000 C 
ENDBRANCH   6  15
BRANCH  11  29
ATOM     29  C   UNL     1      -5.776  11.671  20.248  0.00  0.00    +0.000 C 
BRANCH  29  30
ATOM     30  C   UNL     1      -6.670  11.112  19.183  0.00  0.00    +0.000 C 
ATOM     31  O   UNL     1      -7.231  11.766  18.312  0.00  0.00    +0.000 OA
BRANCH  30  32
ATOM     32  O   UNL     1      -6.791   9.768  19.267  0.00  0.00    +0.000 OA
ATOM     33  H   UNL     1      -7.714   9.445  19.313  0.00  0.00    +0.000 HD
ENDBRANCH  30  32
ENDBRANCH  29  30
ENDBRANCH  11  29
TORSDOF 4
ENDMDL
MODEL 5
REMARK VINA RESULT:      -7.0      4.418     10.074
REMARK  Name = 
REMARK  5 active torsions:
REMARK  status: ('A' for Active; 'I' for Inactive)
REMARK    1  A    between atoms: C_1  and  N_2
REMARK    2  A    between atoms: C_6  and  C_7
REMARK    3  A    between atoms: C_25  and  C_26
REMARK    4  A    between atoms: C_26  and  C_27
REMARK    5  A    between atoms: C_27  and  O_29
REMARK                            x       y       z     vdW  Elec       q    Type
REMARK                         _______ _______ _______ _____ _____    ______ ____
ROOT
ATOM      1  C   UNL     1       1.984   2.320  19.649  0.00  0.00    +0.000 C 
ATOM      2  N   UNL     1       2.410   2.917  18.402  0.00  0.00    +0.000 N 
ATOM      3  C   UNL     1       1.597   3.953  17.788  0.00  0.00    +0.000 C 
ATOM      4  C   UNL     1       2.114   5.324  18.107  0.00  0.00    +0.000 A 
ATOM      5  C   UNL     1       1.429   6.179  18.984  0.00  0.00    +0.000 A 
ATOM      6  C   UNL     1       1.983   7.415  19.326  0.00  0.00    +0.000 A 
ATOM      7  C   UNL     1       3.207   7.790  18.761  0.00  0.00    +0.000 A 
ATOM      8  C   UNL     1       3.850   6.979  17.836  0.00  0.00    +0.000 A 
ATOM      9  C   UNL     1       3.336   5.720  17.542  0.00  0.00    +0.000 A 
ATOM     10  N   UNL     1       4.115   4.814  16.807  0.00  0.00    +0.000 N 
ATOM     11  C   UNL     1       4.654   3.656  17.570  0.00  0.00    +0.000 C 
ATOM     12  C   UNL     1       3.636   2.533  17.876  0.00  0.00    +0.000 C 
ATOM     13  O   UNL     1       4.022   1.362  17.954  0.00  0.00    +0.000 OA
ATOM     14  H   UNL     1       4.895   5.303  16.356  0.00  0.00    +0.000 HD
ENDROOT
BRANCH   6  15
ATOM     15  C   UNL     1       1.346   8.227  20.407  0.00  0.00    +0.000 C 
ATOM     16  O   UNL     1       1.179   7.686  21.499  0.00  0.00    +0.000 OA
ATOM     17  N   UNL     1       1.054   9.560  20.172  0.00  0.00    +0.000 N 
ATOM     18  C   UNL     1       0.697  10.437  21.309  0.00  0.00    +0.000 C 
ATOM     19  C   UNL     1       1.385  11.823  21.174  0.00  0.00    +0.000 C 
ATOM     20  N   UNL     1       1.022  12.348  19.853  0.00  0.00    +0.000 N 
ATOM     21  C   UNL     1       0.868  13.697  19.623  0.00  0.00    +0.000 A 
ATOM     22  C   UNL     1      -0.043  14.074  18.621  0.00  0.00    +0.000 A 
ATOM     23  C   UNL     1      -0.221  15.409  18.309  0.00  0.00    +0.000 A 
ATOM     24  C   UNL     1       0.510  16.353  18.999  0.00  0.00    +0.000 A 
ATOM     25  C   UNL     1       1.370  15.914  19.995  0.00  0.00    +0.000 A 
ATOM     26  N   UNL     1       1.549  14.608  20.329  0.00  0.00    +0.000 NA
ATOM     27  C   UNL     1       1.471  11.527  18.725  0.00  0.00    +0.000 C 
ATOM     28  C   UNL     1       0.787  10.159  18.852  0.00  0.00    +0.000 C 
ENDBRANCH   6  15
BRANCH  11  29
ATOM     29  C   UNL     1       5.276   3.999  18.938  0.00  0.00    +0.000 C 
BRANCH  29  30
ATOM     30  C   UNL     1       6.579   4.732  18.854  0.00  0.00    +0.000 C 
ATOM     31  O   UNL     1       7.091   5.376  19.763  0.00  0.00    +0.000 OA
BRANCH  30  32
ATOM     32  O   UNL     1       7.167   4.601  17.644  0.00  0.00    +0.000 OA
ATOM     33  H   UNL     1       8.138   4.481  17.675  0.00  0.00    +0.000 HD
ENDBRANCH  30  32
ENDBRANCH  29  30
ENDBRANCH  11  29
TORSDOF 4
ENDMDL
MODEL 6
REMARK VINA RESULT:      -7.0      4.306     10.036
REMARK  Name = 
REMARK  5 active torsions:
REMARK  status: ('A' for Active; 'I' for Inactive)
REMARK    1  A    between atoms: C_1  and  N_2
REMARK    2  A    between atoms: C_6  and  C_7
REMARK    3  A    between atoms: C_25  and  C_26
REMARK    4  A    between atoms: C_26  and  C_27
REMARK    5  A    between atoms: C_27  and  O_29
REMARK                            x       y       z     vdW  Elec       q    Type
REMARK                         _______ _______ _______ _____ _____    ______ ____
ROOT
ATOM      1  C   UNL     1       2.938   2.873  21.206  0.00  0.00    +0.000 C 
ATOM      2  N   UNL     1       3.006   3.208  19.800  0.00  0.00    +0.000 N 
ATOM      3  C   UNL     1       1.880   3.871  19.165  0.00  0.00    +0.000 C 
ATOM      4  C   UNL     1       2.092   5.352  19.072  0.00  0.00    +0.000 A 
ATOM      5  C   UNL     1       1.365   6.248  19.871  0.00  0.00    +0.000 A 
ATOM      6  C   UNL     1       1.648   7.615  19.821  0.00  0.00    +0.000 A 
ATOM      7  C   UNL     1       2.641   8.070  18.946  0.00  0.00    +0.000 A 
ATOM      8  C   UNL     1       3.309   7.196  18.100  0.00  0.00    +0.000 A 
ATOM      9  C   UNL     1       3.077   5.827  18.193  0.00  0.00    +0.000 A 
ATOM     10  N   UNL     1       3.928   4.938  17.519  0.00  0.00    +0.000 N 
ATOM     11  C   UNL     1       4.845   4.142  18.380  0.00  0.00    +0.000 C 
ATOM     12  C   UNL     1       4.191   2.954  19.122  0.00  0.00    +0.000 C 
ATOM     13  O   UNL     1       4.857   1.942  19.364  0.00  0.00    +0.000 OA
ATOM     14  H   UNL     1       4.486   5.442  16.822  0.00  0.00    +0.000 HD
ENDROOT
BRANCH   6  15
ATOM     15  C   UNL     1       1.010   8.530  20.815  0.00  0.00    +0.000 C 
ATOM     16  O   UNL     1       0.778   8.079  21.934  0.00  0.00    +0.000 OA
ATOM     17  N   UNL     1       0.790   9.854  20.473  0.00  0.00    +0.000 N 
ATOM     18  C   UNL     1       0.433  10.827  21.529  0.00  0.00    +0.000 C 
ATOM     19  C   UNL     1       1.189  12.168  21.324  0.00  0.00    +0.000 C 
ATOM     20  N   UNL     1       0.901  12.610  19.955  0.00  0.00    +0.000 N 
ATOM     21  C   UNL     1       0.818  13.945  19.623  0.00  0.00    +0.000 A 
ATOM     22  C   UNL     1      -0.036  14.287  18.562  0.00  0.00    +0.000 A 
ATOM     23  C   UNL     1      -0.139  15.602  18.148  0.00  0.00    +0.000 A 
ATOM     24  C   UNL     1       0.609  16.561  18.798  0.00  0.00    +0.000 A 
ATOM     25  C   UNL     1       1.409  16.159  19.857  0.00  0.00    +0.000 A 
ATOM     26  N   UNL     1       1.515  14.874  20.290  0.00  0.00    +0.000 NA
ATOM     27  C   UNL     1       1.352  11.691  18.908  0.00  0.00    +0.000 C 
ATOM     28  C   UNL     1       0.601  10.366  19.105  0.00  0.00    +0.000 C 
ENDBRANCH   6  15
BRANCH  11  29
ATOM     29  C   UNL     1       5.571   4.937  19.483  0.00  0.00    +0.000 C 
BRANCH  29  30
ATOM     30  C   UNL     1       6.877   5.531  19.054  0.00  0.00    +0.000 C 
ATOM     31  O   UNL     1       7.130   5.954  17.931  0.00  0.00    +0.000 OA
BRANCH  30  32
ATOM     32  O   UNL     1       7.778   5.574  20.060  0.00  0.00    +0.000 OA
ATOM     33  H   UNL     1       8.694   5.351  19.795  0.00  0.00    +0.000 HD
ENDBRANCH  30  32
ENDBRANCH  29  30
ENDBRANCH  11  29
TORSDOF 4
ENDMDL
MODEL 7
REMARK VINA RESULT:      -6.9      1.603      2.186
REMARK  Name = 
REMARK  5 active torsions:
REMARK  status: ('A' for Active; 'I' for Inactive)
REMARK    1  A    between atoms: C_1  and  N_2
REMARK    2  A    between atoms: C_6  and  C_7
REMARK    3  A    between atoms: C_25  and  C_26
REMARK    4  A    between atoms: C_26  and  C_27
REMARK    5  A    between atoms: C_27  and  O_29
REMARK                            x       y       z     vdW  Elec       q    Type
REMARK                         _______ _______ _______ _____ _____    ______ ____
ROOT
ATOM      1  C   UNL     1      -4.053  14.363  24.396  0.00  0.00    +0.000 C 
ATOM      2  N   UNL     1      -3.922  14.739  23.006  0.00  0.00    +0.000 N 
ATOM      3  C   UNL     1      -2.600  14.876  22.420  0.00  0.00    +0.000 C 
ATOM      4  C   UNL     1      -2.199  13.646  21.664  0.00  0.00    +0.000 A 
ATOM      5  C   UNL     1      -1.210  12.777  22.150  0.00  0.00    +0.000 A 
ATOM      6  C   UNL     1      -0.922  11.594  21.464  0.00  0.00    +0.000 A 
ATOM      7  C   UNL     1      -1.614  11.312  20.280  0.00  0.00    +0.000 A 
ATOM      8  C   UNL     1      -2.538  12.205  19.757  0.00  0.00    +0.000 A 
ATOM      9  C   UNL     1      -2.875  13.351  20.470  0.00  0.00    +0.000 A 
ATOM     10  N   UNL     1      -3.980  14.114  20.064  0.00  0.00    +0.000 N 
ATOM     11  C   UNL     1      -5.175  14.046  20.950  0.00  0.00    +0.000 C 
ATOM     12  C   UNL     1      -5.081  14.876  22.251  0.00  0.00    +0.000 C 
ATOM     13  O   UNL     1      -6.104  15.363  22.742  0.00  0.00    +0.000 OA
ATOM     14  H   UNL     1      -4.261  13.851  19.113  0.00  0.00    +0.000 HD
ENDROOT
BRANCH   6  15
ATOM     15  C   UNL     1      -0.015  10.587  22.093  0.00  0.00    +0.000 C 
ATOM     16  O   UNL     1      -0.089  10.439  23.311  0.00  0.00    +0.000 OA
ATOM     17  N   UNL     1       0.796   9.808  21.285  0.00  0.00    +0.000 N 
ATOM     18  C   UNL     1       1.474   8.625  21.861  0.00  0.00    +0.000 C 
ATOM     19  C   UNL     1       1.413   7.421  20.881  0.00  0.00    +0.000 C 
ATOM     20  N   UNL     1       1.963   7.887  19.604  0.00  0.00    +0.000 N 
ATOM     21  C   UNL     1       2.656   7.047  18.761  0.00  0.00    +0.000 A 
ATOM     22  C   UNL     1       3.646   7.628  17.951  0.00  0.00    +0.000 A 
ATOM     23  C   UNL     1       4.354   6.853  17.052  0.00  0.00    +0.000 A 
ATOM     24  C   UNL     1       4.068   5.506  16.972  0.00  0.00    +0.000 A 
ATOM     25  C   UNL     1       3.100   4.991  17.820  0.00  0.00    +0.000 A 
ATOM     26  N   UNL     1       2.402   5.732  18.722  0.00  0.00    +0.000 NA
ATOM     27  C   UNL     1       1.225   8.990  18.986  0.00  0.00    +0.000 C 
ATOM     28  C   UNL     1       1.290  10.184  19.949  0.00  0.00    +0.000 C 
ENDBRANCH   6  15
BRANCH  11  29
ATOM     29  C   UNL     1      -5.569  12.632  21.419  0.00  0.00    +0.000 C 
BRANCH  29  30
ATOM     30  C   UNL     1      -6.476  11.903  20.476  0.00  0.00    +0.000 C 
ATOM     31  O   UNL     1      -7.582  11.455  20.759  0.00  0.00    +0.000 OA
BRANCH  30  32
ATOM     32  O   UNL     1      -5.950  11.795  19.236  0.00  0.00    +0.000 OA
ATOM     33  H   UNL     1      -5.052  12.173  19.141  0.00  0.00    +0.000 HD
ENDBRANCH  30  32
ENDBRANCH  29  30
ENDBRANCH  11  29
TORSDOF 4
ENDMDL
MODEL 8
REMARK VINA RESULT:      -6.9      8.738     12.963
REMARK  Name = 
REMARK  5 active torsions:
REMARK  status: ('A' for Active; 'I' for Inactive)
REMARK    1  A    between atoms: C_1  and  N_2
REMARK    2  A    between atoms: C_6  and  C_7
REMARK    3  A    between atoms: C_25  and  C_26
REMARK    4  A    between atoms: C_26  and  C_27
REMARK    5  A    between atoms: C_27  and  O_29
REMARK                            x       y       z     vdW  Elec       q    Type
REMARK                         _______ _______ _______ _____ _____    ______ ____
ROOT
ATOM      1  C   UNL     1      10.340  15.295  17.554  0.00  0.00    +0.000 C 
ATOM      2  N   UNL     1      11.095  14.344  18.341  0.00  0.00    +0.000 N 
ATOM      3  C   UNL     1      11.510  14.697  19.688  0.00  0.00    +0.000 C 
ATOM      4  C   UNL     1      10.578  14.135  20.718  0.00  0.00    +0.000 A 
ATOM      5  C   UNL     1       9.704  14.961  21.443  0.00  0.00    +0.000 A 
ATOM      6  C   UNL     1       8.788  14.395  22.334  0.00  0.00    +0.000 A 
ATOM      7  C   UNL     1       8.779  13.006  22.507  0.00  0.00    +0.000 A 
ATOM      8  C   UNL     1       9.692  12.195  21.849  0.00  0.00    +0.000 A 
ATOM      9  C   UNL     1      10.561  12.746  20.912  0.00  0.00    +0.000 A 
ATOM     10  N   UNL     1      11.300  11.895  20.076  0.00  0.00    +0.000 N 
ATOM     11  C   UNL     1      10.881  11.868  18.648  0.00  0.00    +0.000 C 
ATOM     12  C   UNL     1      11.325  13.084  17.804  0.00  0.00    +0.000 C 
ATOM     13  O   UNL     1      11.561  12.941  16.599  0.00  0.00    +0.000 OA
ATOM     14  H   UNL     1      11.284  10.938  20.442  0.00  0.00    +0.000 HD
ENDROOT
BRANCH   6  15
ATOM     15  C   UNL     1       7.735  15.260  22.947  0.00  0.00    +0.000 C 
ATOM     16  O   UNL     1       8.031  15.874  23.970  0.00  0.00    +0.000 OA
ATOM     17  N   UNL     1       6.517  15.405  22.305  0.00  0.00    +0.000 N 
ATOM     18  C   UNL     1       5.587  16.469  22.742  0.00  0.00    +0.000 C 
ATOM     19  C   UNL     1       4.938  17.173  21.519  0.00  0.00    +0.000 C 
ATOM     20  N   UNL     1       4.329  16.119  20.700  0.00  0.00    +0.000 N 
ATOM     21  C   UNL     1       3.184  16.339  19.966  0.00  0.00    +0.000 A 
ATOM     22  C   UNL     1       2.341  15.236  19.753  0.00  0.00    +0.000 A 
ATOM     23  C   UNL     1       1.194  15.372  18.992  0.00  0.00    +0.000 A 
ATOM     24  C   UNL     1       0.901  16.607  18.454  0.00  0.00    +0.000 A 
ATOM     25  C   UNL     1       1.761  17.661  18.727  0.00  0.00    +0.000 A 
ATOM     26  N   UNL     1       2.885  17.553  19.485  0.00  0.00    +0.000 NA
ATOM     27  C   UNL     1       5.272  15.126  20.181  0.00  0.00    +0.000 C 
ATOM     28  C   UNL     1       5.910  14.424  21.388  0.00  0.00    +0.000 C 
ENDBRANCH   6  15
BRANCH  11  29
ATOM     29  C   UNL     1       9.362  11.763  18.408  0.00  0.00    +0.000 C 
BRANCH  29  30
ATOM     30  C   UNL     1       8.821  10.368  18.491  0.00  0.00    +0.000 C 
ATOM     31  O   UNL     1       8.008   9.875  17.718  0.00  0.00    +0.000 OA
BRANCH  30  32
ATOM     32  O   UNL     1       9.345   9.674  19.526  0.00  0.00    +0.000 OA
ATOM     33  H   UNL     1       8.771   8.957  19.866  0.00  0.00    +0.000 HD
ENDBRANCH  30  32
ENDBRANCH  29  30
ENDBRANCH  11  29
TORSDOF 4
ENDMDL
MODEL 9
REMARK VINA RESULT:      -6.8      1.416      1.736
REMARK  Name = 
REMARK  5 active torsions:
REMARK  status: ('A' for Active; 'I' for Inactive)
REMARK    1  A    between atoms: C_1  and  N_2
REMARK    2  A    between atoms: C_6  and  C_7
REMARK    3  A    between atoms: C_25  and  C_26
REMARK    4  A    between atoms: C_26  and  C_27
REMARK    5  A    between atoms: C_27  and  O_29
REMARK                            x       y       z     vdW  Elec       q    Type
REMARK                         _______ _______ _______ _____ _____    ______ ____
ROOT
ATOM      1  C   UNL     1      -3.632  12.624  23.805  0.00  0.00    +0.000 C 
ATOM      2  N   UNL     1      -3.074  13.276  22.641  0.00  0.00    +0.000 N 
ATOM      3  C   UNL     1      -1.642  13.217  22.403  0.00  0.00    +0.000 C 
ATOM      4  C   UNL     1      -1.289  12.143  21.419  0.00  0.00    +0.000 A 
ATOM      5  C   UNL     1      -0.638  10.966  21.822  0.00  0.00    +0.000 A 
ATOM      6  C   UNL     1      -0.401   9.948  20.896  0.00  0.00    +0.000 A 
ATOM      7  C   UNL     1      -0.796  10.135  19.566  0.00  0.00    +0.000 A 
ATOM      8  C   UNL     1      -1.371  11.327  19.149  0.00  0.00    +0.000 A 
ATOM      9  C   UNL     1      -1.669  12.317  20.080  0.00  0.00    +0.000 A 
ATOM     10  N   UNL     1      -2.470  13.403  19.697  0.00  0.00    +0.000 N 
ATOM     11  C   UNL     1      -3.847  13.424  20.263  0.00  0.00    +0.000 C 
ATOM     12  C   UNL     1      -3.948  13.870  21.740  0.00  0.00    +0.000 C 
ATOM     13  O   UNL     1      -4.958  14.463  22.132  0.00  0.00    +0.000 OA
ATOM     14  H   UNL     1      -2.534  13.452  18.675  0.00  0.00    +0.000 HD
ENDROOT
BRANCH   6  15
ATOM     15  C   UNL     1       0.110   8.628  21.375  0.00  0.00    +0.000 C 
ATOM     16  O   UNL     1      -0.437   8.132  22.358  0.00  0.00    +0.000 OA
ATOM     17  N   UNL     1       1.101   7.983  20.656  0.00  0.00    +0.000 N 
ATOM     18  C   UNL     1       1.407   6.565  20.950  0.00  0.00    +0.000 C 
ATOM     19  C   UNL     1       1.626   5.763  19.638  0.00  0.00    +0.000 C 
ATOM     20  N   UNL     1       2.661   6.472  18.877  0.00  0.00    +0.000 N 
ATOM     21  C   UNL     1       3.551   5.806  18.065  0.00  0.00    +0.000 A 
ATOM     22  C   UNL     1       4.820   6.385  17.898  0.00  0.00    +0.000 A 
ATOM     23  C   UNL     1       5.753   5.793  17.066  0.00  0.00    +0.000 A 
ATOM     24  C   UNL     1       5.409   4.630  16.411  0.00  0.00    +0.000 A 
ATOM     25  C   UNL     1       4.150   4.095  16.643  0.00  0.00    +0.000 A 
ATOM     26  N   UNL     1       3.224   4.652  17.468  0.00  0.00    +0.000 NA
ATOM     27  C   UNL     1       2.309   7.842  18.497  0.00  0.00    +0.000 C 
ATOM     28  C   UNL     1       2.099   8.639  19.792  0.00  0.00    +0.000 C 
ENDBRANCH   6  15
BRANCH  11  29
ATOM     29  C   UNL     1      -4.602  12.081  20.210  0.00  0.00    +0.000 C 
BRANCH  29  30
ATOM     30  C   UNL     1      -5.294  11.816  18.908  0.00  0.00    +0.000 C 
ATOM     31  O   UNL     1      -6.390  11.282  18.783  0.00  0.00    +0.000 OA
BRANCH  30  32
ATOM     32  O   UNL     1      -4.578  12.251  17.847  0.00  0.00    +0.000 OA
ATOM     33  H   UNL     1      -4.431  13.218  17.825  0.00  0.00    +0.000 HD
ENDBRANCH  30  32
ENDBRANCH  29  30
ENDBRANCH  11  29
TORSDOF 4
ENDMDL
