MODEL 1
REMARK VINA RESULT:      -6.9      0.000      0.000
REMARK  Name = 
REMARK  7 active torsions:
REMARK  status: ('A' for Active; 'I' for Inactive)
REMARK    1  A    between atoms: C_1  and  C_2
REMARK    2  A    between atoms: C_5  and  C_6
REMARK    3  A    between atoms: C_6  and  C_8
REMARK    4  A    between atoms: C_9  and  N_10
REMARK    5  A    between atoms: N_10  and  C_11
REMARK    6  A    between atoms: C_14  and  C_15
REMARK    7  A    between atoms: C_16  and  C_17
REMARK                            x       y       z     vdW  Elec       q    Type
REMARK                         _______ _______ _______ _____ _____    ______ ____
ROOT
ATOM      1  C   UNL     1       2.311   1.920  18.881  0.00  0.00    +0.000 C 
ATOM      2  C   UNL     1       3.635   1.797  18.702  0.00  0.00    +0.000 C 
ENDROOT
BRANCH   1   3
ATOM      3  C   UNL     1       1.738   2.988  19.742  0.00  0.00    +0.000 C 
ATOM      4  O   UNL     1       1.136   2.733  20.782  0.00  0.00    +0.000 OA
BRANCH   3   9
ATOM      5  C   UNL     1       2.633   8.409  17.909  0.00  0.00    +0.000 C 
ATOM      6  C   UNL     1       2.382   7.012  18.395  0.00  0.00    +0.000 A 
ATOM      7  C   UNL     1       1.976   6.008  17.509  0.00  0.00    +0.000 A 
ATOM      8  C   UNL     1       1.759   4.708  17.967  0.00  0.00    +0.000 A 
ATOM      9  C   UNL     1       1.934   4.398  19.320  0.00  0.00    +0.000 A 
ATOM     10  C   UNL     1       2.344   5.396  20.211  0.00  0.00    +0.000 A 
ATOM     11  C   UNL     1       2.565   6.697  19.747  0.00  0.00    +0.000 A 
ENDBRANCH   3   9
ENDBRANCH   1   3
BRANCH   2  12
ATOM     12  N   UNL     1       4.631   2.564  19.245  0.00  0.00    +0.000 N 
ATOM     13  H   UNL     1       4.959   2.240  20.160  0.00  0.00    +0.000 HD
BRANCH  12  14
ATOM     14  C   UNL     1       5.222   3.737  18.752  0.00  0.00    +0.000 A 
ATOM     15  C   UNL     1       5.847   4.685  19.563  0.00  0.00    +0.000 A 
ATOM     16  C   UNL     1       6.370   5.865  19.028  0.00  0.00    +0.000 A 
ATOM     17  C   UNL     1       6.275   6.144  17.657  0.00  0.00    +0.000 A 
ATOM     18  C   UNL     1       6.835   7.441  17.144  0.00  0.00    +0.000 C 
ATOM     19  C   UNL     1       5.650   5.206  16.818  0.00  0.00    +0.000 A 
ATOM     20  C   UNL     1       5.483   5.415  15.338  0.00  0.00    +0.000 C 
ATOM     21  C   UNL     1       5.136   4.018  17.377  0.00  0.00    +0.000 A 
ENDBRANCH  12  14
ENDBRANCH   2  12
TORSDOF 4
ENDMDL
MODEL 2
REMARK VINA RESULT:      -6.7      2.584      5.835
REMARK  Name = 
REMARK  7 active torsions:
REMARK  status: ('A' for Active; 'I' for Inactive)
REMARK    1  A    between atoms: C_1  and  C_2
REMARK    2  A    between atoms: C_5  and  C_6
REMARK    3  A    between atoms: C_6  and  C_8
REMARK    4  A    between atoms: C_9  and  N_10
REMARK    5  A    between atoms: N_10  and  C_11
REMARK    6  A    between atoms: C_14  and  C_15
REMARK    7  A    between atoms: C_16  and  C_17
REMARK                            x       y       z     vdW  Elec       q    Type
REMARK                         _______ _______ _______ _____ _____    ______ ____
ROOT
ATOM      1  C   UNL     1       7.599   5.485  17.942  0.00  0.00    +0.000 C 
ATOM      2  C   UNL     1       6.938   5.303  19.096  0.00  0.00    +0.000 C 
ENDROOT
BRANCH   1   3
ATOM      3  C   UNL     1       6.962   6.153  16.777  0.00  0.00    +0.000 C 
ATOM      4  O   UNL     1       6.746   7.362  16.758  0.00  0.00    +0.000 OA
BRANCH   3   9
ATOM      5  C   UNL     1       5.632   3.057  12.065  0.00  0.00    +0.000 C 
ATOM      6  C   UNL     1       5.980   3.839  13.298  0.00  0.00    +0.000 A 
ATOM      7  C   UNL     1       7.182   4.550  13.379  0.00  0.00    +0.000 A 
ATOM      8  C   UNL     1       7.491   5.287  14.523  0.00  0.00    +0.000 A 
ATOM      9  C   UNL     1       6.606   5.312  15.606  0.00  0.00    +0.000 A 
ATOM     10  C   UNL     1       5.399   4.607  15.531  0.00  0.00    +0.000 A 
ATOM     11  C   UNL     1       5.092   3.873  14.380  0.00  0.00    +0.000 A 
ENDBRANCH   3   9
ENDBRANCH   1   3
BRANCH   2  12
ATOM     12  N   UNL     1       5.649   5.659  19.391  0.00  0.00    +0.000 N 
ATOM     13  H   UNL     1       5.560   6.565  19.861  0.00  0.00    +0.000 HD
BRANCH  12  14
ATOM     14  C   UNL     1       4.458   4.946  19.183  0.00  0.00    +0.000 A 
ATOM     15  C   UNL     1       3.189   5.515  19.300  0.00  0.00    +0.000 A 
ATOM     16  C   UNL     1       2.033   4.747  19.138  0.00  0.00    +0.000 A 
ATOM     17  C   UNL     1       2.107   3.375  18.862  0.00  0.00    +0.000 A 
ATOM     18  C   UNL     1       0.829   2.596  18.722  0.00  0.00    +0.000 C 
ATOM     19  C   UNL     1       3.373   2.776  18.739  0.00  0.00    +0.000 A 
ATOM     20  C   UNL     1       3.563   1.311  18.460  0.00  0.00    +0.000 C 
ATOM     21  C   UNL     1       4.527   3.571  18.899  0.00  0.00    +0.000 A 
ENDBRANCH  12  14
ENDBRANCH   2  12
TORSDOF 4
ENDMDL
MODEL 3
REMARK VINA RESULT:      -6.7      1.882      4.596
REMARK  Name = 
REMARK  7 active torsions:
REMARK  status: ('A' for Active; 'I' for Inactive)
REMARK    1  A    between atoms: C_1  and  C_2
REMARK    2  A    between atoms: C_5  and  C_6
REMARK    3  A    between atoms: C_6  and  C_8
REMARK    4  A    between atoms: C_9  and  N_10
REMARK    5  A    between atoms: N_10  and  C_11
REMARK    6  A    between atoms: C_14  and  C_15
REMARK    7  A    between atoms: C_16  and  C_17
REMARK                            x       y       z     vdW  Elec       q    Type
REMARK                         _______ _______ _______ _____ _____    ______ ____
ROOT
ATOM      1  C   UNL     1       2.213   2.791  20.692  0.00  0.00    +0.000 C 
ATOM      2  C   UNL     1       1.679   3.984  20.997  0.00  0.00    +0.000 C 
ENDROOT
BRANCH   1   3
ATOM      3  C   UNL     1       3.656   2.645  20.365  0.00  0.00    +0.000 C 
ATOM      4  O   UNL     1       4.431   2.037  21.098  0.00  0.00    +0.000 OA
BRANCH   3   9
ATOM      5  C   UNL     1       5.571   5.191  15.528  0.00  0.00    +0.000 C 
ATOM      6  C   UNL     1       5.083   4.511  16.773  0.00  0.00    +0.000 A 
ATOM      7  C   UNL     1       5.729   4.710  17.998  0.00  0.00    +0.000 A 
ATOM      8  C   UNL     1       5.259   4.085  19.153  0.00  0.00    +0.000 A 
ATOM      9  C   UNL     1       4.143   3.243  19.097  0.00  0.00    +0.000 A 
ATOM     10  C   UNL     1       3.489   3.043  17.875  0.00  0.00    +0.000 A 
ATOM     11  C   UNL     1       3.960   3.675  16.720  0.00  0.00    +0.000 A 
ENDBRANCH   3   9
ENDBRANCH   1   3
BRANCH   2  12
ATOM     12  N   UNL     1       2.310   5.198  21.049  0.00  0.00    +0.000 N 
ATOM     13  H   UNL     1       2.990   5.287  21.810  0.00  0.00    +0.000 HD
BRANCH  12  14
ATOM     14  C   UNL     1       2.123   6.334  20.246  0.00  0.00    +0.000 A 
ATOM     15  C   UNL     1       2.554   6.420  18.921  0.00  0.00    +0.000 A 
ATOM     16  C   UNL     1       2.393   7.595  18.182  0.00  0.00    +0.000 A 
ATOM     17  C   UNL     1       1.804   8.733  18.749  0.00  0.00    +0.000 A 
ATOM     18  C   UNL     1       1.680   9.975  17.912  0.00  0.00    +0.000 C 
ATOM     19  C   UNL     1       1.362   8.674  20.082  0.00  0.00    +0.000 A 
ATOM     20  C   UNL     1       0.731   9.841  20.789  0.00  0.00    +0.000 C 
ATOM     21  C   UNL     1       1.526   7.475  20.808  0.00  0.00    +0.000 A 
ENDBRANCH  12  14
ENDBRANCH   2  12
TORSDOF 4
ENDMDL
MODEL 4
REMARK VINA RESULT:      -6.7      0.651      1.273
REMARK  Name = 
REMARK  7 active torsions:
REMARK  status: ('A' for Active; 'I' for Inactive)
REMARK    1  A    between atoms: C_1  and  C_2
REMARK    2  A    between atoms: C_5  and  C_6
REMARK    3  A    between atoms: C_6  and  C_8
REMARK    4  A    between atoms: C_9  and  N_10
REMARK    5  A    between atoms: N_10  and  C_11
REMARK    6  A    between atoms: C_14  and  C_15
REMARK    7  A    between atoms: C_16  and  C_17
REMARK                            x       y       z     vdW  Elec       q    Type
REMARK                         _______ _______ _______ _____ _____    ______ ____
ROOT
ATOM      1  C   UNL     1       2.598   2.556  20.652  0.00  0.00    +0.000 C 
ATOM      2  C   UNL     1       3.849   2.306  20.234  0.00  0.00    +0.000 C 
ENDROOT
BRANCH   1   3
ATOM      3  C   UNL     1       1.596   3.202  19.764  0.00  0.00    +0.000 C 
ATOM      4  O   UNL     1       0.548   2.643  19.450  0.00  0.00    +0.000 OA
BRANCH   3   9
ATOM      5  C   UNL     1       2.577   8.639  18.025  0.00  0.00    +0.000 C 
ATOM      6  C   UNL     1       2.344   7.225  18.467  0.00  0.00    +0.000 A 
ATOM      7  C   UNL     1       2.393   6.880  19.822  0.00  0.00    +0.000 A 
ATOM      8  C   UNL     1       2.160   5.564  20.225  0.00  0.00    +0.000 A 
ATOM      9  C   UNL     1       1.885   4.574  19.275  0.00  0.00    +0.000 A 
ATOM     10  C   UNL     1       1.830   4.912  17.918  0.00  0.00    +0.000 A 
ATOM     11  C   UNL     1       2.060   6.233  17.519  0.00  0.00    +0.000 A 
ENDBRANCH   3   9
ENDBRANCH   1   3
BRANCH   2  12
ATOM     12  N   UNL     1       4.398   2.587  19.012  0.00  0.00    +0.000 N 
ATOM     13  H   UNL     1       4.340   1.818  18.337  0.00  0.00    +0.000 HD
BRANCH  12  14
ATOM     14  C   UNL     1       5.060   3.746  18.578  0.00  0.00    +0.000 A 
ATOM     15  C   UNL     1       5.686   4.645  19.443  0.00  0.00    +0.000 A 
ATOM     16  C   UNL     1       6.283   5.814  18.965  0.00  0.00    +0.000 A 
ATOM     17  C   UNL     1       6.264   6.132  17.600  0.00  0.00    +0.000 A 
ATOM     18  C   UNL     1       6.901   7.416  17.148  0.00  0.00    +0.000 C 
ATOM     19  C   UNL     1       5.639   5.244  16.707  0.00  0.00    +0.000 A 
ATOM     20  C   UNL     1       5.550   5.498  15.227  0.00  0.00    +0.000 C 
ATOM     21  C   UNL     1       5.050   4.065  17.210  0.00  0.00    +0.000 A 
ENDBRANCH  12  14
ENDBRANCH   2  12
TORSDOF 4
ENDMDL
MODEL 5
REMARK VINA RESULT:      -6.6      1.892      4.534
REMARK  Name = 
REMARK  7 active torsions:
REMARK  status: ('A' for Active; 'I' for Inactive)
REMARK    1  A    between atoms: C_1  and  C_2
REMARK    2  A    between atoms: C_5  and  C_6
REMARK    3  A    between atoms: C_6  and  C_8
REMARK    4  A    between atoms: C_9  and  N_10
REMARK    5  A    between atoms: N_10  and  C_11
REMARK    6  A    between atoms: C_14  and  C_15
REMARK    7  A    between atoms: C_16  and  C_17
REMARK                            x       y       z     vdW  Elec       q    Type
REMARK                         _______ _______ _______ _____ _____    ______ ____
ROOT
ATOM      1  C   UNL     1       2.304   2.861  20.669  0.00  0.00    +0.000 C 
ATOM      2  C   UNL     1       1.784   4.062  20.965  0.00  0.00    +0.000 C 
ENDROOT
BRANCH   1   3
ATOM      3  C   UNL     1       3.737   2.700  20.308  0.00  0.00    +0.000 C 
ATOM      4  O   UNL     1       4.512   2.042  20.998  0.00  0.00    +0.000 OA
BRANCH   3   9
ATOM      5  C   UNL     1       5.571   5.012  15.324  0.00  0.00    +0.000 C 
ATOM      6  C   UNL     1       5.089   4.435  16.622  0.00  0.00    +0.000 A 
ATOM      7  C   UNL     1       3.929   3.654  16.673  0.00  0.00    +0.000 A 
ATOM      8  C   UNL     1       3.497   3.108  17.882  0.00  0.00    +0.000 A 
ATOM      9  C   UNL     1       4.214   3.347  19.060  0.00  0.00    +0.000 A 
ATOM     10  C   UNL     1       5.378   4.123  19.017  0.00  0.00    +0.000 A 
ATOM     11  C   UNL     1       5.810   4.665  17.801  0.00  0.00    +0.000 A 
ENDBRANCH   3   9
ENDBRANCH   1   3
BRANCH   2  12
ATOM     12  N   UNL     1       2.423   5.274  20.977  0.00  0.00    +0.000 N 
ATOM     13  H   UNL     1       3.146   5.361  21.699  0.00  0.00    +0.000 HD
BRANCH  12  14
ATOM     14  C   UNL     1       2.197   6.409  20.183  0.00  0.00    +0.000 A 
ATOM     15  C   UNL     1       2.663   6.538  18.874  0.00  0.00    +0.000 A 
ATOM     16  C   UNL     1       2.459   7.712  18.145  0.00  0.00    +0.000 A 
ATOM     17  C   UNL     1       1.788   8.807  18.708  0.00  0.00    +0.000 A 
ATOM     18  C   UNL     1       1.620  10.053  17.883  0.00  0.00    +0.000 C 
ATOM     19  C   UNL     1       1.309   8.704  20.025  0.00  0.00    +0.000 A 
ATOM     20  C   UNL     1       0.590   9.823  20.726  0.00  0.00    +0.000 C 
ATOM     21  C   UNL     1       1.519   7.506  20.740  0.00  0.00    +0.000 A 
ENDBRANCH  12  14
ENDBRANCH   2  12
TORSDOF 4
ENDMDL
MODEL 6
REMARK VINA RESULT:      -6.5      0.880      1.505
REMARK  Name = 
REMARK  7 active torsions:
REMARK  status: ('A' for Active; 'I' for Inactive)
REMARK    1  A    between atoms: C_1  and  C_2
REMARK    2  A    between atoms: C_5  and  C_6
REMARK    3  A    between atoms: C_6  and  C_8
REMARK    4  A    between atoms: C_9  and  N_10
REMARK    5  A    between atoms: N_10  and  C_11
REMARK    6  A    between atoms: C_14  and  C_15
REMARK    7  A    between atoms: C_16  and  C_17
REMARK                            x       y       z     vdW  Elec       q    Type
REMARK                         _______ _______ _______ _____ _____    ______ ____
ROOT
ATOM      1  C   UNL     1       1.786   3.166  19.233  0.00  0.00    +0.000 C 
ATOM      2  C   UNL     1       2.762   2.460  18.640  0.00  0.00    +0.000 C 
ENDROOT
BRANCH   1   3
ATOM      3  C   UNL     1       2.090   4.272  20.178  0.00  0.00    +0.000 C 
ATOM      4  O   UNL     1       2.343   4.065  21.362  0.00  0.00    +0.000 OA
BRANCH   3   9
ATOM      5  C   UNL     1       1.934   9.713  18.198  0.00  0.00    +0.000 C 
ATOM      6  C   UNL     1       1.998   8.304  18.709  0.00  0.00    +0.000 A 
ATOM      7  C   UNL     1       1.743   8.018  20.055  0.00  0.00    +0.000 A 
ATOM      8  C   UNL     1       1.790   6.702  20.518  0.00  0.00    +0.000 A 
ATOM      9  C   UNL     1       2.104   5.657  19.643  0.00  0.00    +0.000 A 
ATOM     10  C   UNL     1       2.356   5.935  18.294  0.00  0.00    +0.000 A 
ATOM     11  C   UNL     1       2.303   7.255  17.833  0.00  0.00    +0.000 A 
ENDBRANCH   3   9
ENDBRANCH   1   3
BRANCH   2  12
ATOM     12  N   UNL     1       4.115   2.607  18.791  0.00  0.00    +0.000 N 
ATOM     13  H   UNL     1       4.571   1.826  19.274  0.00  0.00    +0.000 HD
BRANCH  12  14
ATOM     14  C   UNL     1       4.941   3.680  18.425  0.00  0.00    +0.000 A 
ATOM     15  C   UNL     1       5.636   4.466  19.345  0.00  0.00    +0.000 A 
ATOM     16  C   UNL     1       6.401   5.560  18.932  0.00  0.00    +0.000 A 
ATOM     17  C   UNL     1       6.490   5.913  17.578  0.00  0.00    +0.000 A 
ATOM     18  C   UNL     1       7.309   7.114  17.197  0.00  0.00    +0.000 C 
ATOM     19  C   UNL     1       5.799   5.138  16.631  0.00  0.00    +0.000 A 
ATOM     20  C   UNL     1       5.815   5.439  15.157  0.00  0.00    +0.000 C 
ATOM     21  C   UNL     1       5.038   4.033  17.068  0.00  0.00    +0.000 A 
ENDBRANCH  12  14
ENDBRANCH   2  12
TORSDOF 4
ENDMDL
MODEL 7
REMARK VINA RESULT:      -6.5      2.236      5.399
REMARK  Name = 
REMARK  7 active torsions:
REMARK  status: ('A' for Active; 'I' for Inactive)
REMARK    1  A    between atoms: C_1  and  C_2
REMARK    2  A    between atoms: C_5  and  C_6
REMARK    3  A    between atoms: C_6  and  C_8
REMARK    4  A    between atoms: C_9  and  N_10
REMARK    5  A    between atoms: N_10  and  C_11
REMARK    6  A    between atoms: C_14  and  C_15
REMARK    7  A    between atoms: C_16  and  C_17
REMARK                            x       y       z     vdW  Elec       q    Type
REMARK                         _______ _______ _______ _____ _____    ______ ____
ROOT
ATOM      1  C   UNL     1       4.083   3.728  19.190  0.00  0.00    +0.000 C 
ATOM      2  C   UNL     1       3.076   4.260  19.899  0.00  0.00    +0.000 C 
ENDROOT
BRANCH   1   3
ATOM      3  C   UNL     1       5.310   4.507  18.873  0.00  0.00    +0.000 C 
ATOM      4  O   UNL     1       5.955   5.085  19.744  0.00  0.00    +0.000 OA
BRANCH   3   9
ATOM      5  C   UNL     1       6.924   4.480  13.311  0.00  0.00    +0.000 C 
ATOM      6  C   UNL     1       6.510   4.510  14.753  0.00  0.00    +0.000 A 
ATOM      7  C   UNL     1       5.167   4.359  15.115  0.00  0.00    +0.000 A 
ATOM      8  C   UNL     1       4.793   4.373  16.460  0.00  0.00    +0.000 A 
ATOM      9  C   UNL     1       5.757   4.550  17.459  0.00  0.00    +0.000 A 
ATOM     10  C   UNL     1       7.103   4.698  17.104  0.00  0.00    +0.000 A 
ATOM     11  C   UNL     1       7.474   4.678  15.755  0.00  0.00    +0.000 A 
ENDBRANCH   3   9
ENDBRANCH   1   3
BRANCH   2  12
ATOM     12  N   UNL     1       2.990   5.526  20.415  0.00  0.00    +0.000 N 
ATOM     13  H   UNL     1       3.342   5.614  21.373  0.00  0.00    +0.000 HD
BRANCH  12  14
ATOM     14  C   UNL     1       2.451   6.687  19.841  0.00  0.00    +0.000 A 
ATOM     15  C   UNL     1       2.607   7.024  18.495  0.00  0.00    +0.000 A 
ATOM     16  C   UNL     1       2.099   8.222  17.985  0.00  0.00    +0.000 A 
ATOM     17  C   UNL     1       1.423   9.133  18.809  0.00  0.00    +0.000 A 
ATOM     18  C   UNL     1       0.920  10.415  18.208  0.00  0.00    +0.000 C 
ATOM     19  C   UNL     1       1.254   8.818  20.168  0.00  0.00    +0.000 A 
ATOM     20  C   UNL     1       0.558   9.731  21.140  0.00  0.00    +0.000 C 
ATOM     21  C   UNL     1       1.768   7.600  20.661  0.00  0.00    +0.000 A 
ENDBRANCH  12  14
ENDBRANCH   2  12
TORSDOF 4
ENDMDL
MODEL 8
REMARK VINA RESULT:      -6.4      1.524      2.345
REMARK  Name = 
REMARK  7 active torsions:
REMARK  status: ('A' for Active; 'I' for Inactive)
REMARK    1  A    between atoms: C_1  and  C_2
REMARK    2  A    between atoms: C_5  and  C_6
REMARK    3  A    between atoms: C_6  and  C_8
REMARK    4  A    between atoms: C_9  and  N_10
REMARK    5  A    between atoms: N_10  and  C_11
REMARK    6  A    between atoms: C_14  and  C_15
REMARK    7  A    between atoms: C_16  and  C_17
REMARK                            x       y       z     vdW  Elec       q    Type
REMARK                         _______ _______ _______ _____ _____    ______ ____
ROOT
ATOM      1  C   UNL     1       2.745   2.725  18.654  0.00  0.00    +0.000 C 
ATOM      2  C   UNL     1       3.973   2.431  18.200  0.00  0.00    +0.000 C 
ENDROOT
BRANCH   1   3
ATOM      3  C   UNL     1       1.966   3.868  18.108  0.00  0.00    +0.000 C 
ATOM      4  O   UNL     1       1.420   3.818  17.009  0.00  0.00    +0.000 OA
BRANCH   3   9
ATOM      5  C   UNL     1       1.713   8.677  21.328  0.00  0.00    +0.000 C 
ATOM      6  C   UNL     1       1.755   7.432  20.491  0.00  0.00    +0.000 A 
ATOM      7  C   UNL     1       2.258   7.463  19.186  0.00  0.00    +0.000 A 
ATOM      8  C   UNL     1       2.307   6.297  18.421  0.00  0.00    +0.000 A 
ATOM      9  C   UNL     1       1.843   5.086  18.948  0.00  0.00    +0.000 A 
ATOM     10  C   UNL     1       1.343   5.047  20.255  0.00  0.00    +0.000 A 
ATOM     11  C   UNL     1       1.299   6.217  21.020  0.00  0.00    +0.000 A 
ENDBRANCH   3   9
ENDBRANCH   1   3
BRANCH   2  12
ATOM     12  N   UNL     1       4.690   3.085  17.233  0.00  0.00    +0.000 N 
ATOM     13  H   UNL     1       4.776   2.569  16.353  0.00  0.00    +0.000 HD
BRANCH  12  14
ATOM     14  C   UNL     1       5.351   4.321  17.297  0.00  0.00    +0.000 A 
ATOM     15  C   UNL     1       5.160   5.346  16.369  0.00  0.00    +0.000 A 
ATOM     16  C   UNL     1       5.885   6.537  16.446  0.00  0.00    +0.000 A 
ATOM     17  C   UNL     1       6.839   6.742  17.452  0.00  0.00    +0.000 A 
ATOM     18  C   UNL     1       7.606   8.035  17.469  0.00  0.00    +0.000 C 
ATOM     19  C   UNL     1       7.052   5.726  18.400  0.00  0.00    +0.000 A 
ATOM     20  C   UNL     1       8.060   5.839  19.509  0.00  0.00    +0.000 C 
ATOM     21  C   UNL     1       6.303   4.534  18.309  0.00  0.00    +0.000 A 
ENDBRANCH  12  14
ENDBRANCH   2  12
TORSDOF 4
ENDMDL
MODEL 9
REMARK VINA RESULT:      -6.4      2.600      6.015
REMARK  Name = 
REMARK  7 active torsions:
REMARK  status: ('A' for Active; 'I' for Inactive)
REMARK    1  A    between atoms: C_1  and  C_2
REMARK    2  A    between atoms: C_5  and  C_6
REMARK    3  A    between atoms: C_6  and  C_8
REMARK    4  A    between atoms: C_9  and  N_10
REMARK    5  A    between atoms: N_10  and  C_11
REMARK    6  A    between atoms: C_14  and  C_15
REMARK    7  A    between atoms: C_16  and  C_17
REMARK                            x       y       z     vdW  Elec       q    Type
REMARK                         _______ _______ _______ _____ _____    ______ ____
ROOT
ATOM      1  C   UNL     1       7.537   5.397  17.597  0.00  0.00    +0.000 C 
ATOM      2  C   UNL     1       7.034   5.143  18.815  0.00  0.00    +0.000 C 
ENDROOT
BRANCH   1   3
ATOM      3  C   UNL     1       6.714   6.028  16.531  0.00  0.00    +0.000 C 
ATOM      4  O   UNL     1       6.243   7.155  16.655  0.00  0.00    +0.000 OA
BRANCH   3   9
ATOM      5  C   UNL     1       5.779   2.836  11.789  0.00  0.00    +0.000 C 
ATOM      6  C   UNL     1       6.018   3.683  13.005  0.00  0.00    +0.000 A 
ATOM      7  C   UNL     1       5.070   3.745  14.032  0.00  0.00    +0.000 A 
ATOM      8  C   UNL     1       5.307   4.523  15.165  0.00  0.00    +0.000 A 
ATOM      9  C   UNL     1       6.492   5.258  15.281  0.00  0.00    +0.000 A 
ATOM     10  C   UNL     1       7.447   5.197  14.260  0.00  0.00    +0.000 A 
ATOM     11  C   UNL     1       7.207   4.412  13.127  0.00  0.00    +0.000 A 
ENDBRANCH   3   9
ENDBRANCH   1   3
BRANCH   2  12
ATOM     12  N   UNL     1       5.763   5.386  19.266  0.00  0.00    +0.000 N 
ATOM     13  H   UNL     1       5.662   6.265  19.784  0.00  0.00    +0.000 HD
BRANCH  12  14
ATOM     14  C   UNL     1       4.613   4.590  19.161  0.00  0.00    +0.000 A 
ATOM     15  C   UNL     1       4.532   3.456  18.350  0.00  0.00    +0.000 A 
ATOM     16  C   UNL     1       3.344   2.731  18.237  0.00  0.00    +0.000 A 
ATOM     17  C   UNL     1       2.187   3.121  18.925  0.00  0.00    +0.000 A 
ATOM     18  C   UNL     1       0.932   2.313  18.744  0.00  0.00    +0.000 C 
ATOM     19  C   UNL     1       2.241   4.259  19.747  0.00  0.00    +0.000 A 
ATOM     20  C   UNL     1       1.054   4.771  20.516  0.00  0.00    +0.000 C 
ATOM     21  C   UNL     1       3.453   4.974  19.854  0.00  0.00    +0.000 A 
ENDBRANCH  12  14
ENDBRANCH   2  12
TORSDOF 4
ENDMDL
