MODEL 1
REMARK VINA RESULT:      -6.9      0.000      0.000
REMARK  Name = 
REMARK  10 active torsions:
REMARK  status: ('A' for Active; 'I' for Inactive)
REMARK    1  A    between atoms: C_1  and  C_2
REMARK    2  A    between atoms: C_2  and  O_3
REMARK    3  A    between atoms: O_3  and  C_4
REMARK    4  A    between atoms: C_7  and  N_8
REMARK    5  A    between atoms: C_9  and  C_10
REMARK    6  A    between atoms: C_11  and  O_12
REMARK    7  A    between atoms: C_11  and  C_13
REMARK    8  A    between atoms: C_16  and  O_17
REMARK    9  A    between atoms: O_17  and  C_18
REMARK   10  A    between atoms: C_21  and  N_22
REMARK                            x       y       z     vdW  Elec       q    Type
REMARK                         _______ _______ _______ _____ _____    ______ ____
ROOT
ATOM      1  N   UNL     1       1.897   6.846  20.357  0.00  0.00    +0.000 NA
ATOM      2  C   UNL     1       2.668   6.042  19.696  0.00  0.00    +0.000 C 
ENDROOT
BRANCH   1   6
ATOM      3  C   UNL     1       1.276  10.733  18.736  0.00  0.00    +0.000 A 
ATOM      4  C   UNL     1       1.838   9.713  17.970  0.00  0.00    +0.000 A 
ATOM      5  C   UNL     1       2.042   8.438  18.512  0.00  0.00    +0.000 A 
ATOM      6  C   UNL     1       1.689   8.142  19.836  0.00  0.00    +0.000 A 
ATOM      7  C   UNL     1       1.077   9.171  20.564  0.00  0.00    +0.000 A 
ATOM      8  C   UNL     1       0.879  10.463  20.042  0.00  0.00    +0.000 A 
BRANCH   7   9
ATOM      9  N   UNL     1       0.574   8.919  21.898  0.00  0.00    +0.000 N 
ATOM     10  O   UNL     1      -0.558   8.425  22.004  0.00  0.00    +0.000 OA
ATOM     11  O   UNL     1       1.272   9.319  22.841  0.00  0.00    +0.000 OA
ENDBRANCH   7   9
BRANCH   3  12
ATOM     12  O   UNL     1       1.085  11.915  18.081  0.00  0.00    +0.000 OA
BRANCH  12  14
ATOM     13  C   UNL     1      -0.246  13.834  18.549  0.00  0.00    +0.000 C 
ATOM     14  C   UNL     1       1.034  13.089  18.894  0.00  0.00    +0.000 C 
ENDBRANCH  12  14
ENDBRANCH   3  12
ENDBRANCH   1   6
BRANCH   2  15
ATOM     15  C   UNL     1       2.887   4.643  20.124  0.00  0.00    +0.000 C 
ATOM     16  C   UNL     1       3.807   3.848  19.558  0.00  0.00    +0.000 C 
BRANCH  16  17
ATOM     17  C   UNL     1       4.768   4.278  18.533  0.00  0.00    +0.000 A 
ATOM     18  C   UNL     1       4.516   3.994  17.190  0.00  0.00    +0.000 A 
ATOM     19  C   UNL     1       5.416   4.409  16.201  0.00  0.00    +0.000 A 
ATOM     20  C   UNL     1       6.560   5.129  16.547  0.00  0.00    +0.000 A 
ATOM     21  C   UNL     1       6.828   5.392  17.892  0.00  0.00    +0.000 A 
ATOM     22  C   UNL     1       5.932   4.974  18.883  0.00  0.00    +0.000 A 
BRANCH  20  23
ATOM     23  O   UNL     1       7.366   5.488  15.501  0.00  0.00    +0.000 OA
ATOM     24  C   UNL     1       7.007   4.929  14.242  0.00  0.00    +0.000 C 
ENDBRANCH  20  23
ENDBRANCH  16  17
BRANCH  16  25
ATOM     25  O   UNL     1       3.985   2.534  19.939  0.00  0.00    +0.000 OA
ATOM     26  H   UNL     1       4.921   2.291  19.825  0.00  0.00    +0.000 HD
ENDBRANCH  16  25
ENDBRANCH   2  15
TORSDOF 8
ENDMDL
MODEL 2
REMARK VINA RESULT:      -6.9      2.572      3.936
REMARK  Name = 
REMARK  10 active torsions:
REMARK  status: ('A' for Active; 'I' for Inactive)
REMARK    1  A    between atoms: C_1  and  C_2
REMARK    2  A    between atoms: C_2  and  O_3
REMARK    3  A    between atoms: O_3  and  C_4
REMARK    4  A    between atoms: C_7  and  N_8
REMARK    5  A    between atoms: C_9  and  C_10
REMARK    6  A    between atoms: C_11  and  O_12
REMARK    7  A    between atoms: C_11  and  C_13
REMARK    8  A    between atoms: C_16  and  O_17
REMARK    9  A    between atoms: O_17  and  C_18
REMARK   10  A    between atoms: C_21  and  N_22
REMARK                            x       y       z     vdW  Elec       q    Type
REMARK                         _______ _______ _______ _____ _____    ______ ____
ROOT
ATOM      1  N   UNL     1       3.560   5.064  18.750  0.00  0.00    +0.000 NA
ATOM      2  C   UNL     1       3.435   4.902  17.470  0.00  0.00    +0.000 C 
ENDROOT
BRANCH   1   6
ATOM      3  C   UNL     1       0.994   7.896  20.624  0.00  0.00    +0.000 A 
ATOM      4  C   UNL     1       1.798   8.255  19.542  0.00  0.00    +0.000 A 
ATOM      5  C   UNL     1       2.641   7.318  18.933  0.00  0.00    +0.000 A 
ATOM      6  C   UNL     1       2.707   5.993  19.385  0.00  0.00    +0.000 A 
ATOM      7  C   UNL     1       1.849   5.648  20.438  0.00  0.00    +0.000 A 
ATOM      8  C   UNL     1       1.006   6.580  21.073  0.00  0.00    +0.000 A 
BRANCH   7   9
ATOM      9  N   UNL     1       1.765   4.275  20.890  0.00  0.00    +0.000 N 
ATOM     10  O   UNL     1       2.533   3.917  21.795  0.00  0.00    +0.000 OA
ATOM     11  O   UNL     1       1.003   3.527  20.259  0.00  0.00    +0.000 OA
ENDBRANCH   7   9
BRANCH   3  12
ATOM     12  O   UNL     1       0.181   8.885  21.098  0.00  0.00    +0.000 OA
BRANCH  12  14
ATOM     13  C   UNL     1      -0.344   9.801  23.233  0.00  0.00    +0.000 C 
ATOM     14  C   UNL     1       0.715   9.694  22.148  0.00  0.00    +0.000 C 
ENDBRANCH  12  14
ENDBRANCH   3  12
ENDBRANCH   1   6
BRANCH   2  15
ATOM     15  C   UNL     1       4.233   3.901  16.729  0.00  0.00    +0.000 C 
ATOM     16  C   UNL     1       5.557   4.014  16.554  0.00  0.00    +0.000 C 
BRANCH  16  17
ATOM     17  C   UNL     1       6.392   5.068  17.148  0.00  0.00    +0.000 A 
ATOM     18  C   UNL     1       6.454   6.323  16.539  0.00  0.00    +0.000 A 
ATOM     19  C   UNL     1       7.234   7.340  17.100  0.00  0.00    +0.000 A 
ATOM     20  C   UNL     1       7.938   7.116  18.284  0.00  0.00    +0.000 A 
ATOM     21  C   UNL     1       7.898   5.855  18.882  0.00  0.00    +0.000 A 
ATOM     22  C   UNL     1       7.122   4.835  18.319  0.00  0.00    +0.000 A 
BRANCH  20  23
ATOM     23  O   UNL     1       8.663   8.182  18.746  0.00  0.00    +0.000 OA
ATOM     24  C   UNL     1       8.423   9.413  18.073  0.00  0.00    +0.000 C 
ENDBRANCH  20  23
ENDBRANCH  16  17
BRANCH  16  25
ATOM     25  O   UNL     1       6.291   3.095  15.833  0.00  0.00    +0.000 OA
ATOM     26  H   UNL     1       6.543   2.358  16.417  0.00  0.00    +0.000 HD
ENDBRANCH  16  25
ENDBRANCH   2  15
TORSDOF 8
ENDMDL
MODEL 3
REMARK VINA RESULT:      -6.9      0.645      1.148
REMARK  Name = 
REMARK  10 active torsions:
REMARK  status: ('A' for Active; 'I' for Inactive)
REMARK    1  A    between atoms: C_1  and  C_2
REMARK    2  A    between atoms: C_2  and  O_3
REMARK    3  A    between atoms: O_3  and  C_4
REMARK    4  A    between atoms: C_7  and  N_8
REMARK    5  A    between atoms: C_9  and  C_10
REMARK    6  A    between atoms: C_11  and  O_12
REMARK    7  A    between atoms: C_11  and  C_13
REMARK    8  A    between atoms: C_16  and  O_17
REMARK    9  A    between atoms: O_17  and  C_18
REMARK   10  A    between atoms: C_21  and  N_22
REMARK                            x       y       z     vdW  Elec       q    Type
REMARK                         _______ _______ _______ _____ _____    ______ ____
ROOT
ATOM      1  N   UNL     1       1.575   7.175  20.697  0.00  0.00    +0.000 NA
ATOM      2  C   UNL     1       2.298   6.350  20.007  0.00  0.00    +0.000 C 
ENDROOT
BRANCH   1   6
ATOM      3  C   UNL     1       1.040  11.094  19.126  0.00  0.00    +0.000 A 
ATOM      4  C   UNL     1       1.494  10.050  18.322  0.00  0.00    +0.000 A 
ATOM      5  C   UNL     1       1.669   8.764  18.847  0.00  0.00    +0.000 A 
ATOM      6  C   UNL     1       1.397   8.481  20.192  0.00  0.00    +0.000 A 
ATOM      7  C   UNL     1       0.892   9.537  20.963  0.00  0.00    +0.000 A 
ATOM      8  C   UNL     1       0.724  10.840  20.456  0.00  0.00    +0.000 A 
BRANCH   7   9
ATOM      9  N   UNL     1       0.472   9.306  22.329  0.00  0.00    +0.000 N 
ATOM     10  O   UNL     1      -0.687   8.910  22.517  0.00  0.00    +0.000 OA
ATOM     11  O   UNL     1       1.273   9.627  23.219  0.00  0.00    +0.000 OA
ENDBRANCH   7   9
BRANCH   3  12
ATOM     12  O   UNL     1       0.864  12.287  18.487  0.00  0.00    +0.000 OA
BRANCH  12  14
ATOM     13  C   UNL     1      -0.206  14.398  18.755  0.00  0.00    +0.000 C 
ATOM     14  C   UNL     1      -0.420  12.898  18.630  0.00  0.00    +0.000 C 
ENDBRANCH  12  14
ENDBRANCH   3  12
ENDBRANCH   1   6
BRANCH   2  15
ATOM     15  C   UNL     1       2.482   4.941  20.417  0.00  0.00    +0.000 C 
ATOM     16  C   UNL     1       3.359   4.121  19.821  0.00  0.00    +0.000 C 
BRANCH  16  17
ATOM     17  C   UNL     1       4.306   4.528  18.774  0.00  0.00    +0.000 A 
ATOM     18  C   UNL     1       5.593   4.936  19.130  0.00  0.00    +0.000 A 
ATOM     19  C   UNL     1       6.510   5.314  18.143  0.00  0.00    +0.000 A 
ATOM     20  C   UNL     1       6.155   5.264  16.795  0.00  0.00    +0.000 A 
ATOM     21  C   UNL     1       4.862   4.881  16.436  0.00  0.00    +0.000 A 
ATOM     22  C   UNL     1       3.941   4.507  17.423  0.00  0.00    +0.000 A 
BRANCH  20  23
ATOM     23  O   UNL     1       7.131   5.650  15.916  0.00  0.00    +0.000 OA
ATOM     24  C   UNL     1       7.119   4.973  14.665  0.00  0.00    +0.000 C 
ENDBRANCH  20  23
ENDBRANCH  16  17
BRANCH  16  25
ATOM     25  O   UNL     1       3.502   2.798  20.185  0.00  0.00    +0.000 OA
ATOM     26  H   UNL     1       2.622   2.401  20.304  0.00  0.00    +0.000 HD
ENDBRANCH  16  25
ENDBRANCH   2  15
TORSDOF 8
ENDMDL
MODEL 4
REMARK VINA RESULT:      -6.8      0.730      1.365
REMARK  Name = 
REMARK  10 active torsions:
REMARK  status: ('A' for Active; 'I' for Inactive)
REMARK    1  A    between atoms: C_1  and  C_2
REMARK    2  A    between atoms: C_2  and  O_3
REMARK    3  A    between atoms: O_3  and  C_4
REMARK    4  A    between atoms: C_7  and  N_8
REMARK    5  A    between atoms: C_9  and  C_10
REMARK    6  A    between atoms: C_11  and  O_12
REMARK    7  A    between atoms: C_11  and  C_13
REMARK    8  A    between atoms: C_16  and  O_17
REMARK    9  A    between atoms: O_17  and  C_18
REMARK   10  A    between atoms: C_21  and  N_22
REMARK                            x       y       z     vdW  Elec       q    Type
REMARK                         _______ _______ _______ _____ _____    ______ ____
ROOT
ATOM      1  N   UNL     1       1.622   7.104  20.452  0.00  0.00    +0.000 NA
ATOM      2  C   UNL     1       2.495   6.329  19.889  0.00  0.00    +0.000 C 
ENDROOT
BRANCH   1   6
ATOM      3  C   UNL     1       1.252  11.066  18.940  0.00  0.00    +0.000 A 
ATOM      4  C   UNL     1       1.711  10.026  18.134  0.00  0.00    +0.000 A 
ATOM      5  C   UNL     1       1.833   8.726  18.640  0.00  0.00    +0.000 A 
ATOM      6  C   UNL     1       1.498   8.425  19.967  0.00  0.00    +0.000 A 
ATOM      7  C   UNL     1       0.988   9.478  20.738  0.00  0.00    +0.000 A 
ATOM      8  C   UNL     1       0.875  10.794  20.251  0.00  0.00    +0.000 A 
BRANCH   7   9
ATOM      9  N   UNL     1       0.507   9.232  22.081  0.00  0.00    +0.000 N 
ATOM     10  O   UNL     1       1.286   9.447  23.021  0.00  0.00    +0.000 OA
ATOM     11  O   UNL     1      -0.617   8.720  22.184  0.00  0.00    +0.000 OA
ENDBRANCH   7   9
BRANCH   3  12
ATOM     12  O   UNL     1       1.132  12.275  18.318  0.00  0.00    +0.000 OA
BRANCH  12  14
ATOM     13  C   UNL     1       2.549  13.966  19.215  0.00  0.00    +0.000 C 
ATOM     14  C   UNL     1       2.348  12.983  18.072  0.00  0.00    +0.000 C 
ENDBRANCH  12  14
ENDBRANCH   3  12
ENDBRANCH   1   6
BRANCH   2  15
ATOM     15  C   UNL     1       2.646   4.911  20.279  0.00  0.00    +0.000 C 
ATOM     16  C   UNL     1       3.490   4.074  19.658  0.00  0.00    +0.000 C 
BRANCH  16  17
ATOM     17  C   UNL     1       4.430   4.468  18.600  0.00  0.00    +0.000 A 
ATOM     18  C   UNL     1       5.685   4.973  18.946  0.00  0.00    +0.000 A 
ATOM     19  C   UNL     1       6.596   5.339  17.949  0.00  0.00    +0.000 A 
ATOM     20  C   UNL     1       6.268   5.183  16.602  0.00  0.00    +0.000 A 
ATOM     21  C   UNL     1       5.005   4.702  16.252  0.00  0.00    +0.000 A 
ATOM     22  C   UNL     1       4.090   4.339  17.248  0.00  0.00    +0.000 A 
BRANCH  20  23
ATOM     23  O   UNL     1       7.235   5.568  15.714  0.00  0.00    +0.000 OA
ATOM     24  C   UNL     1       7.141   4.974  14.424  0.00  0.00    +0.000 C 
ENDBRANCH  20  23
ENDBRANCH  16  17
BRANCH  16  25
ATOM     25  O   UNL     1       3.603   2.743  20.004  0.00  0.00    +0.000 OA
ATOM     26  H   UNL     1       4.133   2.668  20.816  0.00  0.00    +0.000 HD
ENDBRANCH  16  25
ENDBRANCH   2  15
TORSDOF 8
ENDMDL
MODEL 5
REMARK VINA RESULT:      -6.8      0.992      1.554
REMARK  Name = 
REMARK  10 active torsions:
REMARK  status: ('A' for Active; 'I' for Inactive)
REMARK    1  A    between atoms: C_1  and  C_2
REMARK    2  A    between atoms: C_2  and  O_3
REMARK    3  A    between atoms: O_3  and  C_4
REMARK    4  A    between atoms: C_7  and  N_8
REMARK    5  A    between atoms: C_9  and  C_10
REMARK    6  A    between atoms: C_11  and  O_12
REMARK    7  A    between atoms: C_11  and  C_13
REMARK    8  A    between atoms: C_16  and  O_17
REMARK    9  A    between atoms: O_17  and  C_18
REMARK   10  A    between atoms: C_21  and  N_22
REMARK                            x       y       z     vdW  Elec       q    Type
REMARK                         _______ _______ _______ _____ _____    ______ ____
ROOT
ATOM      1  N   UNL     1       1.827   7.279  20.780  0.00  0.00    +0.000 NA
ATOM      2  C   UNL     1       1.818   6.233  20.016  0.00  0.00    +0.000 C 
ENDROOT
BRANCH   1   6
ATOM      3  C   UNL     1       0.602  10.969  19.049  0.00  0.00    +0.000 A 
ATOM      4  C   UNL     1       1.315  10.027  18.309  0.00  0.00    +0.000 A 
ATOM      5  C   UNL     1       1.717   8.816  18.887  0.00  0.00    +0.000 A 
ATOM      6  C   UNL     1       1.418   8.510  20.222  0.00  0.00    +0.000 A 
ATOM      7  C   UNL     1       0.654   9.452  20.924  0.00  0.00    +0.000 A 
ATOM      8  C   UNL     1       0.256  10.681  20.364  0.00  0.00    +0.000 A 
BRANCH   7   9
ATOM      9  N   UNL     1       0.200   9.166  22.268  0.00  0.00    +0.000 N 
ATOM     10  O   UNL     1       0.847   9.646  23.210  0.00  0.00    +0.000 OA
ATOM     11  O   UNL     1      -0.743   8.369  22.379  0.00  0.00    +0.000 OA
ENDBRANCH   7   9
BRANCH   3  12
ATOM     12  O   UNL     1       0.226  12.086  18.359  0.00  0.00    +0.000 OA
BRANCH  12  14
ATOM     13  C   UNL     1      -1.999  11.675  17.617  0.00  0.00    +0.000 C 
ATOM     14  C   UNL     1      -1.125  12.514  18.536  0.00  0.00    +0.000 C 
ENDBRANCH  12  14
ENDBRANCH   3  12
ENDBRANCH   1   6
BRANCH   2  15
ATOM     15  C   UNL     1       2.160   4.888  20.529  0.00  0.00    +0.000 C 
ATOM     16  C   UNL     1       3.129   4.132  19.992  0.00  0.00    +0.000 C 
BRANCH  16  17
ATOM     17  C   UNL     1       4.029   4.567  18.915  0.00  0.00    +0.000 A 
ATOM     18  C   UNL     1       5.196   5.264  19.231  0.00  0.00    +0.000 A 
ATOM     19  C   UNL     1       6.070   5.673  18.218  0.00  0.00    +0.000 A 
ATOM     20  C   UNL     1       5.793   5.368  16.884  0.00  0.00    +0.000 A 
ATOM     21  C   UNL     1       4.615   4.693  16.562  0.00  0.00    +0.000 A 
ATOM     22  C   UNL     1       3.737   4.288  17.575  0.00  0.00    +0.000 A 
BRANCH  20  23
ATOM     23  O   UNL     1       6.718   5.811  15.977  0.00  0.00    +0.000 OA
ATOM     24  C   UNL     1       6.970   4.927  14.891  0.00  0.00    +0.000 C 
ENDBRANCH  20  23
ENDBRANCH  16  17
BRANCH  16  25
ATOM     25  O   UNL     1       3.422   2.866  20.454  0.00  0.00    +0.000 OA
ATOM     26  H   UNL     1       2.889   2.683  21.247  0.00  0.00    +0.000 HD
ENDBRANCH  16  25
ENDBRANCH   2  15
TORSDOF 8
ENDMDL
MODEL 6
REMARK VINA RESULT:      -6.7      4.897      8.740
REMARK  Name = 
REMARK  10 active torsions:
REMARK  status: ('A' for Active; 'I' for Inactive)
REMARK    1  A    between atoms: C_1  and  C_2
REMARK    2  A    between atoms: C_2  and  O_3
REMARK    3  A    between atoms: O_3  and  C_4
REMARK    4  A    between atoms: C_7  and  N_8
REMARK    5  A    between atoms: C_9  and  C_10
REMARK    6  A    between atoms: C_11  and  O_12
REMARK    7  A    between atoms: C_11  and  C_13
REMARK    8  A    between atoms: C_16  and  O_17
REMARK    9  A    between atoms: O_17  and  C_18
REMARK   10  A    between atoms: C_21  and  N_22
REMARK                            x       y       z     vdW  Elec       q    Type
REMARK                         _______ _______ _______ _____ _____    ______ ____
ROOT
ATOM      1  N   UNL     1       7.394   5.081  15.384  0.00  0.00    +0.000 NA
ATOM      2  C   UNL     1       7.111   4.509  16.511  0.00  0.00    +0.000 C 
ENDROOT
BRANCH   1   6
ATOM      3  C   UNL     1       5.590   3.489  11.873  0.00  0.00    +0.000 A 
ATOM      4  C   UNL     1       5.054   3.241  13.136  0.00  0.00    +0.000 A 
ATOM      5  C   UNL     1       5.655   3.766  14.286  0.00  0.00    +0.000 A 
ATOM      6  C   UNL     1       6.811   4.556  14.210  0.00  0.00    +0.000 A 
ATOM      7  C   UNL     1       7.296   4.832  12.924  0.00  0.00    +0.000 A 
ATOM      8  C   UNL     1       6.714   4.300  11.758  0.00  0.00    +0.000 A 
BRANCH   7   9
ATOM      9  N   UNL     1       8.414   5.735  12.746  0.00  0.00    +0.000 N 
ATOM     10  O   UNL     1       9.384   5.609  13.507  0.00  0.00    +0.000 OA
ATOM     11  O   UNL     1       8.270   6.641  11.912  0.00  0.00    +0.000 OA
ENDBRANCH   7   9
BRANCH   3  12
ATOM     12  O   UNL     1       4.886   2.962  10.828  0.00  0.00    +0.000 OA
BRANCH  12  14
ATOM     13  C   UNL     1       3.064   4.078   9.775  0.00  0.00    +0.000 C 
ATOM     14  C   UNL     1       3.466   3.115  10.881  0.00  0.00    +0.000 C 
ENDBRANCH  12  14
ENDBRANCH   3  12
ENDBRANCH   1   6
BRANCH   2  15
ATOM     15  C   UNL     1       7.616   5.031  17.800  0.00  0.00    +0.000 C 
ATOM     16  C   UNL     1       6.823   5.228  18.863  0.00  0.00    +0.000 C 
BRANCH  16  17
ATOM     17  C   UNL     1       5.400   4.865  18.924  0.00  0.00    +0.000 A 
ATOM     18  C   UNL     1       4.431   5.824  18.626  0.00  0.00    +0.000 A 
ATOM     19  C   UNL     1       3.073   5.490  18.667  0.00  0.00    +0.000 A 
ATOM     20  C   UNL     1       2.676   4.190  18.984  0.00  0.00    +0.000 A 
ATOM     21  C   UNL     1       3.642   3.235  19.307  0.00  0.00    +0.000 A 
ATOM     22  C   UNL     1       5.001   3.569  19.271  0.00  0.00    +0.000 A 
BRANCH  20  23
ATOM     23  O   UNL     1       1.325   3.973  18.989  0.00  0.00    +0.000 OA
ATOM     24  C   UNL     1       0.930   2.616  18.821  0.00  0.00    +0.000 C 
ENDBRANCH  20  23
ENDBRANCH  16  17
BRANCH  16  25
ATOM     25  O   UNL     1       7.293   5.747  20.052  0.00  0.00    +0.000 OA
ATOM     26  H   UNL     1       6.746   6.510  20.306  0.00  0.00    +0.000 HD
ENDBRANCH  16  25
ENDBRANCH   2  15
TORSDOF 8
ENDMDL
MODEL 7
REMARK VINA RESULT:      -6.7      4.831      8.744
REMARK  Name = 
REMARK  10 active torsions:
REMARK  status: ('A' for Active; 'I' for Inactive)
REMARK    1  A    between atoms: C_1  and  C_2
REMARK    2  A    between atoms: C_2  and  O_3
REMARK    3  A    between atoms: O_3  and  C_4
REMARK    4  A    between atoms: C_7  and  N_8
REMARK    5  A    between atoms: C_9  and  C_10
REMARK    6  A    between atoms: C_11  and  O_12
REMARK    7  A    between atoms: C_11  and  C_13
REMARK    8  A    between atoms: C_16  and  O_17
REMARK    9  A    between atoms: O_17  and  C_18
REMARK   10  A    between atoms: C_21  and  N_22
REMARK                            x       y       z     vdW  Elec       q    Type
REMARK                         _______ _______ _______ _____ _____    ______ ____
ROOT
ATOM      1  N   UNL     1       7.212   5.287  15.426  0.00  0.00    +0.000 NA
ATOM      2  C   UNL     1       7.271   4.586  16.515  0.00  0.00    +0.000 C 
ENDROOT
BRANCH   1   6
ATOM      3  C   UNL     1       5.558   3.431  11.971  0.00  0.00    +0.000 A 
ATOM      4  C   UNL     1       4.943   3.314  13.217  0.00  0.00    +0.000 A 
ATOM      5  C   UNL     1       5.496   3.926  14.349  0.00  0.00    +0.000 A 
ATOM      6  C   UNL     1       6.679   4.673  14.272  0.00  0.00    +0.000 A 
ATOM      7  C   UNL     1       7.244   4.819  12.998  0.00  0.00    +0.000 A 
ATOM      8  C   UNL     1       6.712   4.198  11.851  0.00  0.00    +0.000 A 
BRANCH   7   9
ATOM      9  N   UNL     1       8.399   5.671  12.806  0.00  0.00    +0.000 N 
ATOM     10  O   UNL     1       8.309   6.584  11.972  0.00  0.00    +0.000 OA
ATOM     11  O   UNL     1       9.431   5.354  13.414  0.00  0.00    +0.000 OA
ENDBRANCH   7   9
BRANCH   3  12
ATOM     12  O   UNL     1       4.897   2.832  10.938  0.00  0.00    +0.000 OA
BRANCH  12  14
ATOM     13  C   UNL     1       3.163   4.024   9.823  0.00  0.00    +0.000 C 
ATOM     14  C   UNL     1       3.479   3.006  10.907  0.00  0.00    +0.000 C 
ENDBRANCH  12  14
ENDBRANCH   3  12
ENDBRANCH   1   6
BRANCH   2  15
ATOM     15  C   UNL     1       7.746   5.164  17.790  0.00  0.00    +0.000 C 
ATOM     16  C   UNL     1       6.926   5.419  18.820  0.00  0.00    +0.000 C 
BRANCH  16  17
ATOM     17  C   UNL     1       5.499   5.073  18.859  0.00  0.00    +0.000 A 
ATOM     18  C   UNL     1       5.108   3.810  19.305  0.00  0.00    +0.000 A 
ATOM     19  C   UNL     1       3.751   3.470  19.360  0.00  0.00    +0.000 A 
ATOM     20  C   UNL     1       2.777   4.399  18.990  0.00  0.00    +0.000 A 
ATOM     21  C   UNL     1       3.166   5.654  18.519  0.00  0.00    +0.000 A 
ATOM     22  C   UNL     1       4.523   5.994  18.459  0.00  0.00    +0.000 A 
BRANCH  20  23
ATOM     23  O   UNL     1       1.484   3.963  19.088  0.00  0.00    +0.000 OA
ATOM     24  C   UNL     1       0.907   4.069  20.385  0.00  0.00    +0.000 C 
ENDBRANCH  20  23
ENDBRANCH  16  17
BRANCH  16  25
ATOM     25  O   UNL     1       7.369   5.989  19.996  0.00  0.00    +0.000 OA
ATOM     26  H   UNL     1       7.661   6.901  19.820  0.00  0.00    +0.000 HD
ENDBRANCH  16  25
ENDBRANCH   2  15
TORSDOF 8
ENDMDL
MODEL 8
REMARK VINA RESULT:      -6.7      1.175      1.451
REMARK  Name = 
REMARK  10 active torsions:
REMARK  status: ('A' for Active; 'I' for Inactive)
REMARK    1  A    between atoms: C_1  and  C_2
REMARK    2  A    between atoms: C_2  and  O_3
REMARK    3  A    between atoms: O_3  and  C_4
REMARK    4  A    between atoms: C_7  and  N_8
REMARK    5  A    between atoms: C_9  and  C_10
REMARK    6  A    between atoms: C_11  and  O_12
REMARK    7  A    between atoms: C_11  and  C_13
REMARK    8  A    between atoms: C_16  and  O_17
REMARK    9  A    between atoms: O_17  and  C_18
REMARK   10  A    between atoms: C_21  and  N_22
REMARK                            x       y       z     vdW  Elec       q    Type
REMARK                         _______ _______ _______ _____ _____    ______ ____
ROOT
ATOM      1  N   UNL     1       1.842   7.284  20.918  0.00  0.00    +0.000 NA
ATOM      2  C   UNL     1       1.578   6.177  20.297  0.00  0.00    +0.000 C 
ENDROOT
BRANCH   1   6
ATOM      3  C   UNL     1       0.539  10.905  19.100  0.00  0.00    +0.000 A 
ATOM      4  C   UNL     1       1.268   9.959  18.382  0.00  0.00    +0.000 A 
ATOM      5  C   UNL     1       1.696   8.771  18.988  0.00  0.00    +0.000 A 
ATOM      6  C   UNL     1       1.407   8.492  20.331  0.00  0.00    +0.000 A 
ATOM      7  C   UNL     1       0.627   9.436  21.012  0.00  0.00    +0.000 A 
ATOM      8  C   UNL     1       0.203  10.643  20.424  0.00  0.00    +0.000 A 
BRANCH   7   9
ATOM      9  N   UNL     1       0.182   9.174  22.365  0.00  0.00    +0.000 N 
ATOM     10  O   UNL     1       0.874   9.614  23.294  0.00  0.00    +0.000 OA
ATOM     11  O   UNL     1      -0.804   8.434  22.493  0.00  0.00    +0.000 OA
ENDBRANCH   7   9
BRANCH   3  12
ATOM     12  O   UNL     1       0.140  11.998  18.385  0.00  0.00    +0.000 OA
BRANCH  12  14
ATOM     13  C   UNL     1      -2.049  11.550  17.561  0.00  0.00    +0.000 C 
ATOM     14  C   UNL     1      -1.228  12.384  18.531  0.00  0.00    +0.000 C 
ENDBRANCH  12  14
ENDBRANCH   3  12
ENDBRANCH   1   6
BRANCH   2  15
ATOM     15  C   UNL     1       1.929   4.859  20.867  0.00  0.00    +0.000 C 
ATOM     16  C   UNL     1       2.841   4.048  20.311  0.00  0.00    +0.000 C 
BRANCH  16  17
ATOM     17  C   UNL     1       3.669   4.393  19.148  0.00  0.00    +0.000 A 
ATOM     18  C   UNL     1       3.420   3.780  17.918  0.00  0.00    +0.000 A 
ATOM     19  C   UNL     1       4.191   4.108  16.798  0.00  0.00    +0.000 A 
ATOM     20  C   UNL     1       5.200   5.067  16.894  0.00  0.00    +0.000 A 
ATOM     21  C   UNL     1       5.469   5.664  18.127  0.00  0.00    +0.000 A 
ATOM     22  C   UNL     1       4.701   5.333  19.250  0.00  0.00    +0.000 A 
BRANCH  20  23
ATOM     23  O   UNL     1       5.887   5.314  15.736  0.00  0.00    +0.000 OA
ATOM     24  C   UNL     1       5.629   4.401  14.675  0.00  0.00    +0.000 C 
ENDBRANCH  20  23
ENDBRANCH  16  17
BRANCH  16  25
ATOM     25  O   UNL     1       3.141   2.805  20.830  0.00  0.00    +0.000 OA
ATOM     26  H   UNL     1       3.811   2.902  21.528  0.00  0.00    +0.000 HD
ENDBRANCH  16  25
ENDBRANCH   2  15
TORSDOF 8
ENDMDL
MODEL 9
REMARK VINA RESULT:      -6.6      2.312      3.709
REMARK  Name = 
REMARK  10 active torsions:
REMARK  status: ('A' for Active; 'I' for Inactive)
REMARK    1  A    between atoms: C_1  and  C_2
REMARK    2  A    between atoms: C_2  and  O_3
REMARK    3  A    between atoms: O_3  and  C_4
REMARK    4  A    between atoms: C_7  and  N_8
REMARK    5  A    between atoms: C_9  and  C_10
REMARK    6  A    between atoms: C_11  and  O_12
REMARK    7  A    between atoms: C_11  and  C_13
REMARK    8  A    between atoms: C_16  and  O_17
REMARK    9  A    between atoms: O_17  and  C_18
REMARK   10  A    between atoms: C_21  and  N_22
REMARK                            x       y       z     vdW  Elec       q    Type
REMARK                         _______ _______ _______ _____ _____    ______ ____
ROOT
ATOM      1  N   UNL     1       3.508   5.161  18.827  0.00  0.00    +0.000 NA
ATOM      2  C   UNL     1       3.215   4.850  17.603  0.00  0.00    +0.000 C 
ENDROOT
BRANCH   1   6
ATOM      3  C   UNL     1       0.966   7.939  20.812  0.00  0.00    +0.000 A 
ATOM      4  C   UNL     1       1.791   8.339  19.762  0.00  0.00    +0.000 A 
ATOM      5  C   UNL     1       2.627   7.419  19.116  0.00  0.00    +0.000 A 
ATOM      6  C   UNL     1       2.663   6.071  19.499  0.00  0.00    +0.000 A 
ATOM      7  C   UNL     1       1.783   5.688  20.520  0.00  0.00    +0.000 A 
ATOM      8  C   UNL     1       0.948   6.601  21.192  0.00  0.00    +0.000 A 
BRANCH   7   9
ATOM      9  N   UNL     1       1.669   4.295  20.898  0.00  0.00    +0.000 N 
ATOM     10  O   UNL     1       0.813   3.609  20.320  0.00  0.00    +0.000 OA
ATOM     11  O   UNL     1       2.365   3.918  21.852  0.00  0.00    +0.000 OA
ENDBRANCH   7   9
BRANCH   3  12
ATOM     12  O   UNL     1       0.164   8.917  21.327  0.00  0.00    +0.000 OA
BRANCH  12  14
ATOM     13  C   UNL     1      -0.452  11.162  20.828  0.00  0.00    +0.000 C 
ATOM     14  C   UNL     1       0.678  10.249  21.275  0.00  0.00    +0.000 C 
ENDBRANCH  12  14
ENDBRANCH   3  12
ENDBRANCH   1   6
BRANCH   2  15
ATOM     15  C   UNL     1       3.998   3.852  16.843  0.00  0.00    +0.000 C 
ATOM     16  C   UNL     1       5.309   3.994  16.597  0.00  0.00    +0.000 C 
BRANCH  16  17
ATOM     17  C   UNL     1       6.146   5.079  17.126  0.00  0.00    +0.000 A 
ATOM     18  C   UNL     1       7.009   4.827  18.193  0.00  0.00    +0.000 A 
ATOM     19  C   UNL     1       7.823   5.847  18.699  0.00  0.00    +0.000 A 
ATOM     20  C   UNL     1       7.795   7.119  18.126  0.00  0.00    +0.000 A 
ATOM     21  C   UNL     1       6.915   7.382  17.074  0.00  0.00    +0.000 A 
ATOM     22  C   UNL     1       6.097   6.363  16.571  0.00  0.00    +0.000 A 
BRANCH  20  23
ATOM     23  O   UNL     1       8.635   8.037  18.695  0.00  0.00    +0.000 OA
ATOM     24  C   UNL     1       8.476   9.372  18.228  0.00  0.00    +0.000 C 
ENDBRANCH  20  23
ENDBRANCH  16  17
BRANCH  16  25
ATOM     25  O   UNL     1       6.027   3.076  15.859  0.00  0.00    +0.000 OA
ATOM     26  H   UNL     1       6.710   2.675  16.424  0.00  0.00    +0.000 HD
ENDBRANCH  16  25
ENDBRANCH   2  15
TORSDOF 8
ENDMDL
