MODEL 1
REMARK VINA RESULT:      -9.1      0.000      0.000
REMARK  Name = 
REMARK  6 active torsions:
REMARK  status: ('A' for Active; 'I' for Inactive)
REMARK    1  A    between atoms: C_1  and  C_2
REMARK    2  A    between atoms: C_5  and  N_6
REMARK    3  A    between atoms: C_13  and  S_14
REMARK    4  A    between atoms: S_14  and  C_15
REMARK    5  A    between atoms: C_15  and  C_16
REMARK    6  A    between atoms: C_24  and  C_25
REMARK                            x       y       z     vdW  Elec       q    Type
REMARK                         _______ _______ _______ _____ _____    ______ ____
ROOT
ATOM      1  N   UNL     1       9.559  10.283  20.292  0.00  0.00    +0.000 N 
ATOM      2  C   UNL     1       8.946   9.667  19.211  0.00  0.00    +0.000 C 
ATOM      3  O   UNL     1       8.551  10.275  18.226  0.00  0.00    +0.000 OA
ATOM      4  N   UNL     1       8.805   8.301  19.350  0.00  0.00    +0.000 N 
ATOM      5  C   UNL     1       8.274   7.589  18.290  0.00  0.00    +0.000 A 
ATOM      6  N   UNL     1       8.103   7.978  17.048  0.00  0.00    +0.000 NA
ATOM      7  N   UNL     1       7.514   7.011  16.266  0.00  0.00    +0.000 NA
ATOM      8  C   UNL     1       7.276   5.912  16.943  0.00  0.00    +0.000 A 
ATOM      9  S   UNL     1       7.769   5.983  18.595  0.00  0.00    +0.000 S 
ATOM     10  H   UNL     1      10.020   9.705  20.984  0.00  0.00    +0.000 HD
ATOM     11  H   UNL     1       8.861   7.854  20.249  0.00  0.00    +0.000 HD
ENDROOT
BRANCH   1  16
ATOM     12  C   UNL     1      10.387  15.976  20.875  0.00  0.00    +0.000 C 
ATOM     13  C   UNL     1      10.181  14.498  20.718  0.00  0.00    +0.000 A 
ATOM     14  C   UNL     1       9.115  13.871  21.356  0.00  0.00    +0.000 A 
ATOM     15  C   UNL     1       8.911  12.495  21.220  0.00  0.00    +0.000 A 
ATOM     16  C   UNL     1       9.754  11.694  20.439  0.00  0.00    +0.000 A 
ATOM     17  C   UNL     1      10.831  12.333  19.799  0.00  0.00    +0.000 A 
ATOM     18 CL   UNL     1      11.936  11.439  18.810  0.00  0.00    +0.000 Cl
ATOM     19  C   UNL     1      11.041  13.718  19.937  0.00  0.00    +0.000 A 
ENDBRANCH   1  16
BRANCH   8  20
ATOM     20  S   UNL     1       6.503   4.524  16.199  0.00  0.00    +0.000 S 
BRANCH  20  21
ATOM     21  C   UNL     1       4.805   5.172  16.016  0.00  0.00    +0.000 C 
BRANCH  21  22
ATOM     22  C   UNL     1       4.026   5.134  17.322  0.00  0.00    +0.000 A 
ATOM     23  C   UNL     1       3.646   6.272  17.920  0.00  0.00    +0.000 A 
ATOM     24  C   UNL     1       2.778   6.209  19.108  0.00  0.00    +0.000 A 
ATOM     25  O   UNL     1       2.440   7.262  19.647  0.00  0.00    +0.000 OA
ATOM     26  N   UNL     1       2.394   4.938  19.504  0.00  0.00    +0.000 N 
ATOM     27  C   UNL     1       1.487   4.804  20.552  0.00  0.00    +0.000 A 
ATOM     28  C   UNL     1       1.071   3.605  20.974  0.00  0.00    +0.000 A 
ATOM     29  C   UNL     1       1.617   2.412  20.387  0.00  0.00    +0.000 A 
ATOM     30  C   UNL     1       2.512   2.477  19.389  0.00  0.00    +0.000 A 
ATOM     31  C   UNL     1       3.185   1.276  18.807  0.00  0.00    +0.000 C 
ATOM     32  C   UNL     1       2.899   3.825  18.840  0.00  0.00    +0.000 A 
ATOM     33  N   UNL     1       3.674   3.893  17.794  0.00  0.00    +0.000 NA
ENDBRANCH  21  22
ENDBRANCH  20  21
ENDBRANCH   8  20
TORSDOF 4
ENDMDL
MODEL 2
REMARK VINA RESULT:      -9.1      1.604      2.676
REMARK  Name = 
REMARK  6 active torsions:
REMARK  status: ('A' for Active; 'I' for Inactive)
REMARK    1  A    between atoms: C_1  and  C_2
REMARK    2  A    between atoms: C_5  and  N_6
REMARK    3  A    between atoms: C_13  and  S_14
REMARK    4  A    between atoms: S_14  and  C_15
REMARK    5  A    between atoms: C_15  and  C_16
REMARK    6  A    between atoms: C_24  and  C_25
REMARK                            x       y       z     vdW  Elec       q    Type
REMARK                         _______ _______ _______ _____ _____    ______ ____
ROOT
ATOM      1  N   UNL     1       9.783  10.750  19.702  0.00  0.00    +0.000 N 
ATOM      2  C   UNL     1       8.956  10.005  18.876  0.00  0.00    +0.000 C 
ATOM      3  O   UNL     1       8.273  10.497  17.989  0.00  0.00    +0.000 OA
ATOM      4  N   UNL     1       8.959   8.652  19.151  0.00  0.00    +0.000 N 
ATOM      5  C   UNL     1       8.224   7.817  18.329  0.00  0.00    +0.000 A 
ATOM      6  N   UNL     1       7.704   8.080  17.153  0.00  0.00    +0.000 NA
ATOM      7  N   UNL     1       7.005   7.015  16.633  0.00  0.00    +0.000 NA
ATOM      8  C   UNL     1       7.035   5.973  17.432  0.00  0.00    +0.000 A 
ATOM      9  S   UNL     1       7.938   6.224  18.881  0.00  0.00    +0.000 S 
ATOM     10  H   UNL     1      10.452  10.264  20.288  0.00  0.00    +0.000 HD
ATOM     11  H   UNL     1       9.282   8.294  20.034  0.00  0.00    +0.000 HD
ENDROOT
BRANCH   1  16
ATOM     12  C   UNL     1      10.311  16.507  19.611  0.00  0.00    +0.000 C 
ATOM     13  C   UNL     1      10.182  15.013  19.628  0.00  0.00    +0.000 A 
ATOM     14  C   UNL     1       9.247  14.403  20.460  0.00  0.00    +0.000 A 
ATOM     15  C   UNL     1       9.117  13.011  20.488  0.00  0.00    +0.000 A 
ATOM     16  C   UNL     1       9.905  12.176  19.684  0.00  0.00    +0.000 A 
ATOM     17  C   UNL     1      10.849  12.799  18.848  0.00  0.00    +0.000 A 
ATOM     18 CL   UNL     1      11.875  11.863  17.814  0.00  0.00    +0.000 Cl
ATOM     19  C   UNL     1      10.985  14.200  18.820  0.00  0.00    +0.000 A 
ENDBRANCH   1  16
BRANCH   8  20
ATOM     20  S   UNL     1       6.200   4.484  17.030  0.00  0.00    +0.000 S 
BRANCH  20  21
ATOM     21  C   UNL     1       4.587   5.161  16.503  0.00  0.00    +0.000 C 
BRANCH  21  22
ATOM     22  C   UNL     1       3.682   5.484  17.682  0.00  0.00    +0.000 A 
ATOM     23  C   UNL     1       3.473   4.578  18.647  0.00  0.00    +0.000 A 
ATOM     24  C   UNL     1       2.704   4.960  19.844  0.00  0.00    +0.000 A 
ATOM     25  O   UNL     1       2.520   4.116  20.720  0.00  0.00    +0.000 OA
ATOM     26  N   UNL     1       2.269   6.275  19.883  0.00  0.00    +0.000 N 
ATOM     27  C   UNL     1       1.631   6.740  21.029  0.00  0.00    +0.000 A 
ATOM     28  C   UNL     1       1.196   8.001  21.131  0.00  0.00    +0.000 A 
ATOM     29  C   UNL     1       1.323   8.893  20.011  0.00  0.00    +0.000 A 
ATOM     30  C   UNL     1       1.909   8.496  18.871  0.00  0.00    +0.000 A 
ATOM     31  C   UNL     1       1.982   9.345  17.643  0.00  0.00    +0.000 C 
ATOM     32  C   UNL     1       2.495   7.110  18.794  0.00  0.00    +0.000 A 
ATOM     33  N   UNL     1       3.170   6.757  17.736  0.00  0.00    +0.000 NA
ENDBRANCH  21  22
ENDBRANCH  20  21
ENDBRANCH   8  20
TORSDOF 4
ENDMDL
MODEL 3
REMARK VINA RESULT:      -9.1      1.919      3.015
REMARK  Name = 
REMARK  6 active torsions:
REMARK  status: ('A' for Active; 'I' for Inactive)
REMARK    1  A    between atoms: C_1  and  C_2
REMARK    2  A    between atoms: C_5  and  N_6
REMARK    3  A    between atoms: C_13  and  S_14
REMARK    4  A    between atoms: S_14  and  C_15
REMARK    5  A    between atoms: C_15  and  C_16
REMARK    6  A    between atoms: C_24  and  C_25
REMARK                            x       y       z     vdW  Elec       q    Type
REMARK                         _______ _______ _______ _____ _____    ______ ____
ROOT
ATOM      1  N   UNL     1       9.641  10.407  19.285  0.00  0.00    +0.000 N 
ATOM      2  C   UNL     1       8.744   9.638  18.558  0.00  0.00    +0.000 C 
ATOM      3  O   UNL     1       8.029  10.094  17.678  0.00  0.00    +0.000 OA
ATOM      4  N   UNL     1       8.718   8.308  18.926  0.00  0.00    +0.000 N 
ATOM      5  C   UNL     1       7.911   7.447  18.205  0.00  0.00    +0.000 A 
ATOM      6  N   UNL     1       7.335   7.649  17.043  0.00  0.00    +0.000 NA
ATOM      7  N   UNL     1       6.573   6.577  16.637  0.00  0.00    +0.000 NA
ATOM      8  C   UNL     1       6.615   5.590  17.503  0.00  0.00    +0.000 A 
ATOM      9  S   UNL     1       7.605   5.906  18.880  0.00  0.00    +0.000 S 
ATOM     10  H   UNL     1      10.325   9.938  19.867  0.00  0.00    +0.000 HD
ATOM     11  H   UNL     1       9.079   7.999  19.813  0.00  0.00    +0.000 HD
ENDROOT
BRANCH   1  16
ATOM     12  C   UNL     1      10.287  16.133  18.816  0.00  0.00    +0.000 C 
ATOM     13  C   UNL     1      10.115  14.649  18.947  0.00  0.00    +0.000 A 
ATOM     14  C   UNL     1      10.491  13.809  17.904  0.00  0.00    +0.000 A 
ATOM     15  C   UNL     1      10.335  12.423  18.011  0.00  0.00    +0.000 A 
ATOM     16  C   UNL     1       9.807  11.823  19.162  0.00  0.00    +0.000 A 
ATOM     17  C   UNL     1       9.427  12.679  20.212  0.00  0.00    +0.000 A 
ATOM     18 CL   UNL     1       8.763  12.044  21.679  0.00  0.00    +0.000 Cl
ATOM     19  C   UNL     1       9.579  14.074  20.105  0.00  0.00    +0.000 A 
ENDBRANCH   1  16
BRANCH   8  20
ATOM     20  S   UNL     1       5.710   4.109  17.251  0.00  0.00    +0.000 S 
BRANCH  20  21
ATOM     21  C   UNL     1       4.098   4.807  16.750  0.00  0.00    +0.000 C 
BRANCH  21  22
ATOM     22  C   UNL     1       3.280   5.286  17.939  0.00  0.00    +0.000 A 
ATOM     23  C   UNL     1       3.086   4.487  18.997  0.00  0.00    +0.000 A 
ATOM     24  C   UNL     1       2.407   5.020  20.192  0.00  0.00    +0.000 A 
ATOM     25  O   UNL     1       2.235   4.272  21.153  0.00  0.00    +0.000 OA
ATOM     26  N   UNL     1       2.038   6.354  20.127  0.00  0.00    +0.000 N 
ATOM     27  C   UNL     1       1.490   6.957  21.255  0.00  0.00    +0.000 A 
ATOM     28  C   UNL     1       1.122   8.242  21.258  0.00  0.00    +0.000 A 
ATOM     29  C   UNL     1       1.225   9.017  20.052  0.00  0.00    +0.000 A 
ATOM     30  C   UNL     1       1.723   8.485  18.926  0.00  0.00    +0.000 A 
ATOM     31  C   UNL     1       1.764   9.211  17.619  0.00  0.00    +0.000 C 
ATOM     32  C   UNL     1       2.239   7.069  18.951  0.00  0.00    +0.000 A 
ATOM     33  N   UNL     1       2.833   6.584  17.897  0.00  0.00    +0.000 NA
ENDBRANCH  21  22
ENDBRANCH  20  21
ENDBRANCH   8  20
TORSDOF 4
ENDMDL
MODEL 4
REMARK VINA RESULT:      -8.9      1.427      2.518
REMARK  Name = 
REMARK  6 active torsions:
REMARK  status: ('A' for Active; 'I' for Inactive)
REMARK    1  A    between atoms: C_1  and  C_2
REMARK    2  A    between atoms: C_5  and  N_6
REMARK    3  A    between atoms: C_13  and  S_14
REMARK    4  A    between atoms: S_14  and  C_15
REMARK    5  A    between atoms: C_15  and  C_16
REMARK    6  A    between atoms: C_24  and  C_25
REMARK                            x       y       z     vdW  Elec       q    Type
REMARK                         _______ _______ _______ _____ _____    ______ ____
ROOT
ATOM      1  N   UNL     1       9.695   9.997  19.770  0.00  0.00    +0.000 N 
ATOM      2  C   UNL     1       8.750   9.459  18.909  0.00  0.00    +0.000 C 
ATOM      3  O   UNL     1       8.043  10.139  18.178  0.00  0.00    +0.000 OA
ATOM      4  N   UNL     1       8.666   8.083  18.957  0.00  0.00    +0.000 N 
ATOM      5  C   UNL     1       7.806   7.450  18.078  0.00  0.00    +0.000 A 
ATOM      6  N   UNL     1       7.221   7.943  17.011  0.00  0.00    +0.000 NA
ATOM      7  N   UNL     1       6.402   7.030  16.387  0.00  0.00    +0.000 NA
ATOM      8  C   UNL     1       6.409   5.867  16.998  0.00  0.00    +0.000 A 
ATOM      9  S   UNL     1       7.436   5.808  18.383  0.00  0.00    +0.000 S 
ATOM     10  H   UNL     1      10.365   9.375  20.207  0.00  0.00    +0.000 HD
ATOM     11  H   UNL     1       9.025   7.559  19.737  0.00  0.00    +0.000 HD
ENDROOT
BRANCH   1  16
ATOM     12  C   UNL     1      10.669  15.639  20.573  0.00  0.00    +0.000 C 
ATOM     13  C   UNL     1      10.423  14.175  20.356  0.00  0.00    +0.000 A 
ATOM     14  C   UNL     1       9.658  13.455  21.268  0.00  0.00    +0.000 A 
ATOM     15  C   UNL     1       9.421  12.090  21.080  0.00  0.00    +0.000 A 
ATOM     16  C   UNL     1       9.929  11.394  19.975  0.00  0.00    +0.000 A 
ATOM     17  C   UNL     1      10.703  12.128  19.058  0.00  0.00    +0.000 A 
ATOM     18 CL   UNL     1      11.380  11.368  17.658  0.00  0.00    +0.000 Cl
ATOM     19  C   UNL     1      10.946  13.501  19.246  0.00  0.00    +0.000 A 
ENDBRANCH   1  16
BRANCH   8  20
ATOM     20  S   UNL     1       5.429   4.527  16.433  0.00  0.00    +0.000 S 
BRANCH  20  21
ATOM     21  C   UNL     1       5.106   3.683  18.020  0.00  0.00    +0.000 C 
BRANCH  21  22
ATOM     22  C   UNL     1       3.987   4.343  18.811  0.00  0.00    +0.000 A 
ATOM     23  C   UNL     1       3.417   3.707  19.843  0.00  0.00    +0.000 A 
ATOM     24  C   UNL     1       2.432   4.418  20.676  0.00  0.00    +0.000 A 
ATOM     25  O   UNL     1       1.916   3.818  21.619  0.00  0.00    +0.000 OA
ATOM     26  N   UNL     1       2.191   5.736  20.327  0.00  0.00    +0.000 N 
ATOM     27  C   UNL     1       1.356   6.505  21.132  0.00  0.00    +0.000 A 
ATOM     28  C   UNL     1       1.091   7.786  20.852  0.00  0.00    +0.000 A 
ATOM     29  C   UNL     1       1.620   8.380  19.656  0.00  0.00    +0.000 A 
ATOM     30  C   UNL     1       2.413   7.682  18.828  0.00  0.00    +0.000 A 
ATOM     31  C   UNL     1       2.912   8.214  17.522  0.00  0.00    +0.000 C 
ATOM     32  C   UNL     1       2.799   6.274  19.197  0.00  0.00    +0.000 A 
ATOM     33  N   UNL     1       3.663   5.632  18.462  0.00  0.00    +0.000 NA
ENDBRANCH  21  22
ENDBRANCH  20  21
ENDBRANCH   8  20
TORSDOF 4
ENDMDL
MODEL 5
REMARK VINA RESULT:      -8.7      7.761     10.733
REMARK  Name = 
REMARK  6 active torsions:
REMARK  status: ('A' for Active; 'I' for Inactive)
REMARK    1  A    between atoms: C_1  and  C_2
REMARK    2  A    between atoms: C_5  and  N_6
REMARK    3  A    between atoms: C_13  and  S_14
REMARK    4  A    between atoms: S_14  and  C_15
REMARK    5  A    between atoms: C_15  and  C_16
REMARK    6  A    between atoms: C_24  and  C_25
REMARK                            x       y       z     vdW  Elec       q    Type
REMARK                         _______ _______ _______ _____ _____    ______ ____
ROOT
ATOM      1  N   UNL     1       3.170   6.230  19.348  0.00  0.00    +0.000 N 
ATOM      2  C   UNL     1       2.375   7.363  19.420  0.00  0.00    +0.000 C 
ATOM      3  O   UNL     1       2.111   8.063  18.453  0.00  0.00    +0.000 OA
ATOM      4  N   UNL     1       1.915   7.645  20.691  0.00  0.00    +0.000 N 
ATOM      5  C   UNL     1       1.050   8.713  20.850  0.00  0.00    +0.000 A 
ATOM      6  N   UNL     1       0.387   9.372  19.928  0.00  0.00    +0.000 NA
ATOM      7  N   UNL     1      -0.360  10.403  20.448  0.00  0.00    +0.000 NA
ATOM      8  C   UNL     1      -0.249  10.479  21.754  0.00  0.00    +0.000 A 
ATOM      9  S   UNL     1       0.778   9.274  22.442  0.00  0.00    +0.000 S 
ATOM     10  H   UNL     1       3.198   5.602  20.143  0.00  0.00    +0.000 HD
ATOM     11  H   UNL     1       2.351   7.255  21.509  0.00  0.00    +0.000 HD
ENDROOT
BRANCH   1  16
ATOM     12  C   UNL     1       5.865   4.299  14.610  0.00  0.00    +0.000 C 
ATOM     13  C   UNL     1       5.162   4.790  15.841  0.00  0.00    +0.000 A 
ATOM     14  C   UNL     1       5.295   6.118  16.237  0.00  0.00    +0.000 A 
ATOM     15  C   UNL     1       4.648   6.590  17.383  0.00  0.00    +0.000 A 
ATOM     16  C   UNL     1       3.839   5.761  18.172  0.00  0.00    +0.000 A 
ATOM     17  C   UNL     1       3.710   4.420  17.767  0.00  0.00    +0.000 A 
ATOM     18 CL   UNL     1       2.735   3.310  18.669  0.00  0.00    +0.000 Cl
ATOM     19  C   UNL     1       4.363   3.941  16.616  0.00  0.00    +0.000 A 
ENDBRANCH   1  16
BRANCH   8  20
ATOM     20  S   UNL     1      -1.074  11.722  22.676  0.00  0.00    +0.000 S 
BRANCH  20  21
ATOM     21  C   UNL     1      -1.500  12.880  21.329  0.00  0.00    +0.000 C 
BRANCH  21  22
ATOM     22  C   UNL     1      -2.942  12.730  20.870  0.00  0.00    +0.000 A 
ATOM     23  C   UNL     1      -3.221  12.412  19.598  0.00  0.00    +0.000 A 
ATOM     24  C   UNL     1      -4.616  12.139  19.210  0.00  0.00    +0.000 A 
ATOM     25  O   UNL     1      -4.856  11.851  18.039  0.00  0.00    +0.000 OA
ATOM     26  N   UNL     1      -5.548  12.211  20.233  0.00  0.00    +0.000 N 
ATOM     27  C   UNL     1      -6.868  11.860  19.967  0.00  0.00    +0.000 A 
ATOM     28  C   UNL     1      -7.812  11.900  20.914  0.00  0.00    +0.000 A 
ATOM     29  C   UNL     1      -7.485  12.381  22.228  0.00  0.00    +0.000 A 
ATOM     30  C   UNL     1      -6.235  12.756  22.538  0.00  0.00    +0.000 A 
ATOM     31  C   UNL     1      -5.857  13.354  23.856  0.00  0.00    +0.000 C 
ATOM     32  C   UNL     1      -5.149  12.608  21.505  0.00  0.00    +0.000 A 
ATOM     33  N   UNL     1      -3.912  12.856  21.834  0.00  0.00    +0.000 NA
ENDBRANCH  21  22
ENDBRANCH  20  21
ENDBRANCH   8  20
TORSDOF 4
ENDMDL
MODEL 6
REMARK VINA RESULT:      -8.4      7.606     10.467
REMARK  Name = 
REMARK  6 active torsions:
REMARK  status: ('A' for Active; 'I' for Inactive)
REMARK    1  A    between atoms: C_1  and  C_2
REMARK    2  A    between atoms: C_5  and  N_6
REMARK    3  A    between atoms: C_13  and  S_14
REMARK    4  A    between atoms: S_14  and  C_15
REMARK    5  A    between atoms: C_15  and  C_16
REMARK    6  A    between atoms: C_24  and  C_25
REMARK                            x       y       z     vdW  Elec       q    Type
REMARK                         _______ _______ _______ _____ _____    ______ ____
ROOT
ATOM      1  N   UNL     1       3.249   6.181  19.168  0.00  0.00    +0.000 N 
ATOM      2  C   UNL     1       2.519   7.357  19.245  0.00  0.00    +0.000 C 
ATOM      3  O   UNL     1       2.368   8.117  18.300  0.00  0.00    +0.000 OA
ATOM      4  N   UNL     1       1.985   7.605  20.493  0.00  0.00    +0.000 N 
ATOM      5  C   UNL     1       1.175   8.716  20.648  0.00  0.00    +0.000 A 
ATOM      6  N   UNL     1       0.621   9.458  19.718  0.00  0.00    +0.000 NA
ATOM      7  N   UNL     1      -0.101  10.508  20.239  0.00  0.00    +0.000 NA
ATOM      8  C   UNL     1      -0.081  10.513  21.552  0.00  0.00    +0.000 A 
ATOM      9  S   UNL     1       0.821   9.215  22.245  0.00  0.00    +0.000 S 
ATOM     10  H   UNL     1       3.182   5.515  19.929  0.00  0.00    +0.000 HD
ATOM     11  H   UNL     1       2.336   7.149  21.318  0.00  0.00    +0.000 HD
ENDROOT
BRANCH   1  16
ATOM     12  C   UNL     1       6.159   4.319  14.532  0.00  0.00    +0.000 C 
ATOM     13  C   UNL     1       5.399   4.793  15.735  0.00  0.00    +0.000 A 
ATOM     14  C   UNL     1       5.671   6.043  16.283  0.00  0.00    +0.000 A 
ATOM     15  C   UNL     1       4.972   6.497  17.406  0.00  0.00    +0.000 A 
ATOM     16  C   UNL     1       3.973   5.729  18.018  0.00  0.00    +0.000 A 
ATOM     17  C   UNL     1       3.705   4.466  17.460  0.00  0.00    +0.000 A 
ATOM     18 CL   UNL     1       2.491   3.435  18.138  0.00  0.00    +0.000 Cl
ATOM     19  C   UNL     1       4.409   4.004  16.333  0.00  0.00    +0.000 A 
ENDBRANCH   1  16
BRANCH   8  20
ATOM     20  S   UNL     1      -0.896  11.759  22.478  0.00  0.00    +0.000 S 
BRANCH  20  21
ATOM     21  C   UNL     1      -1.296  12.934  21.138  0.00  0.00    +0.000 C 
BRANCH  21  22
ATOM     22  C   UNL     1      -2.771  12.912  20.769  0.00  0.00    +0.000 A 
ATOM     23  C   UNL     1      -3.653  13.660  21.447  0.00  0.00    +0.000 A 
ATOM     24  C   UNL     1      -5.050  13.727  20.986  0.00  0.00    +0.000 A 
ATOM     25  O   UNL     1      -5.847  14.416  21.621  0.00  0.00    +0.000 OA
ATOM     26  N   UNL     1      -5.338  13.008  19.837  0.00  0.00    +0.000 N 
ATOM     27  C   UNL     1      -6.609  13.110  19.279  0.00  0.00    +0.000 A 
ATOM     28  C   UNL     1      -6.945  12.447  18.167  0.00  0.00    +0.000 A 
ATOM     29  C   UNL     1      -6.002  11.551  17.557  0.00  0.00    +0.000 A 
ATOM     30  C   UNL     1      -4.769  11.393  18.062  0.00  0.00    +0.000 A 
ATOM     31  C   UNL     1      -3.781  10.405  17.530  0.00  0.00    +0.000 C 
ATOM     32  C   UNL     1      -4.353  12.220  19.251  0.00  0.00    +0.000 A 
ATOM     33  N   UNL     1      -3.122  12.161  19.674  0.00  0.00    +0.000 NA
ENDBRANCH  21  22
ENDBRANCH  20  21
ENDBRANCH   8  20
TORSDOF 4
ENDMDL
MODEL 7
REMARK VINA RESULT:      -8.3      7.485     10.795
REMARK  Name = 
REMARK  6 active torsions:
REMARK  status: ('A' for Active; 'I' for Inactive)
REMARK    1  A    between atoms: C_1  and  C_2
REMARK    2  A    between atoms: C_5  and  N_6
REMARK    3  A    between atoms: C_13  and  S_14
REMARK    4  A    between atoms: S_14  and  C_15
REMARK    5  A    between atoms: C_15  and  C_16
REMARK    6  A    between atoms: C_24  and  C_25
REMARK                            x       y       z     vdW  Elec       q    Type
REMARK                         _______ _______ _______ _____ _____    ______ ____
ROOT
ATOM      1  N   UNL     1       2.318   6.985  18.053  0.00  0.00    +0.000 N 
ATOM      2  C   UNL     1       1.897   7.719  19.152  0.00  0.00    +0.000 C 
ATOM      3  O   UNL     1       1.819   7.255  20.280  0.00  0.00    +0.000 OA
ATOM      4  N   UNL     1       1.558   9.024  18.858  0.00  0.00    +0.000 N 
ATOM      5  C   UNL     1       1.200   9.857  19.903  0.00  0.00    +0.000 A 
ATOM      6  N   UNL     1       1.368   9.669  21.191  0.00  0.00    +0.000 NA
ATOM      7  N   UNL     1       0.858  10.700  21.948  0.00  0.00    +0.000 NA
ATOM      8  C   UNL     1       0.334  11.643  21.200  0.00  0.00    +0.000 A 
ATOM      9  S   UNL     1       0.441  11.337  19.505  0.00  0.00    +0.000 S 
ATOM     10  H   UNL     1       2.532   7.476  17.193  0.00  0.00    +0.000 HD
ATOM     11  H   UNL     1       1.349   9.317  17.919  0.00  0.00    +0.000 HD
ENDROOT
BRANCH   1  16
ATOM     12  C   UNL     1       3.695   1.370  18.087  0.00  0.00    +0.000 C 
ATOM     13  C   UNL     1       3.348   2.829  18.076  0.00  0.00    +0.000 A 
ATOM     14  C   UNL     1       2.019   3.230  18.174  0.00  0.00    +0.000 A 
ATOM     15  C   UNL     1       1.680   4.587  18.165  0.00  0.00    +0.000 A 
ATOM     16  C   UNL     1       2.650   5.593  18.065  0.00  0.00    +0.000 A 
ATOM     17  C   UNL     1       3.991   5.180  17.965  0.00  0.00    +0.000 A 
ATOM     18 CL   UNL     1       5.270   6.340  17.837  0.00  0.00    +0.000 Cl
ATOM     19  C   UNL     1       4.335   3.816  17.970  0.00  0.00    +0.000 A 
ENDBRANCH   1  16
BRANCH   8  20
ATOM     20  S   UNL     1      -0.415  13.063  21.905  0.00  0.00    +0.000 S 
BRANCH  20  21
ATOM     21  C   UNL     1      -1.481  13.579  20.515  0.00  0.00    +0.000 C 
BRANCH  21  22
ATOM     22  C   UNL     1      -2.884  13.002  20.615  0.00  0.00    +0.000 A 
ATOM     23  C   UNL     1      -3.553  13.038  21.775  0.00  0.00    +0.000 A 
ATOM     24  C   UNL     1      -4.958  12.597  21.815  0.00  0.00    +0.000 A 
ATOM     25  O   UNL     1      -5.557  12.634  22.889  0.00  0.00    +0.000 OA
ATOM     26  N   UNL     1      -5.494  12.194  20.602  0.00  0.00    +0.000 N 
ATOM     27  C   UNL     1      -6.846  11.868  20.539  0.00  0.00    +0.000 A 
ATOM     28  C   UNL     1      -7.424  11.481  19.396  0.00  0.00    +0.000 A 
ATOM     29  C   UNL     1      -6.628  11.327  18.209  0.00  0.00    +0.000 A 
ATOM     30  C   UNL     1      -5.316  11.605  18.214  0.00  0.00    +0.000 A 
ATOM     31  C   UNL     1      -4.420  11.372  17.039  0.00  0.00    +0.000 C 
ATOM     32  C   UNL     1      -4.686  12.144  19.472  0.00  0.00    +0.000 A 
ATOM     33  N   UNL     1      -3.440  12.529  19.452  0.00  0.00    +0.000 NA
ENDBRANCH  21  22
ENDBRANCH  20  21
ENDBRANCH   8  20
TORSDOF 4
ENDMDL
MODEL 8
REMARK VINA RESULT:      -8.2      8.443     11.335
REMARK  Name = 
REMARK  6 active torsions:
REMARK  status: ('A' for Active; 'I' for Inactive)
REMARK    1  A    between atoms: C_1  and  C_2
REMARK    2  A    between atoms: C_5  and  N_6
REMARK    3  A    between atoms: C_13  and  S_14
REMARK    4  A    between atoms: S_14  and  C_15
REMARK    5  A    between atoms: C_15  and  C_16
REMARK    6  A    between atoms: C_24  and  C_25
REMARK                            x       y       z     vdW  Elec       q    Type
REMARK                         _______ _______ _______ _____ _____    ______ ____
ROOT
ATOM      1  N   UNL     1       2.916   6.170  19.334  0.00  0.00    +0.000 N 
ATOM      2  C   UNL     1       2.328   7.425  19.382  0.00  0.00    +0.000 C 
ATOM      3  O   UNL     1       2.322   8.201  18.437  0.00  0.00    +0.000 OA
ATOM      4  N   UNL     1       1.758   7.730  20.601  0.00  0.00    +0.000 N 
ATOM      5  C   UNL     1       1.079   8.929  20.723  0.00  0.00    +0.000 A 
ATOM      6  N   UNL     1       0.671   9.736  19.771  0.00  0.00    +0.000 NA
ATOM      7  N   UNL     1       0.051  10.863  20.262  0.00  0.00    +0.000 NA
ATOM      8  C   UNL     1      -0.001  10.860  21.574  0.00  0.00    +0.000 A 
ATOM      9  S   UNL     1       0.699   9.462  22.303  0.00  0.00    +0.000 S 
ATOM     10  H   UNL     1       2.728   5.514  20.083  0.00  0.00    +0.000 HD
ATOM     11  H   UNL     1       2.006   7.232  21.439  0.00  0.00    +0.000 HD
ENDROOT
BRANCH   1  16
ATOM     12  C   UNL     1       5.849   3.988  14.853  0.00  0.00    +0.000 C 
ATOM     13  C   UNL     1       5.084   4.544  16.018  0.00  0.00    +0.000 A 
ATOM     14  C   UNL     1       5.196   5.892  16.346  0.00  0.00    +0.000 A 
ATOM     15  C   UNL     1       4.492   6.425  17.429  0.00  0.00    +0.000 A 
ATOM     16  C   UNL     1       3.644   5.639  18.221  0.00  0.00    +0.000 A 
ATOM     17  C   UNL     1       3.537   4.277  17.885  0.00  0.00    +0.000 A 
ATOM     18 CL   UNL     1       2.518   3.215  18.797  0.00  0.00    +0.000 Cl
ATOM     19  C   UNL     1       4.248   3.737  16.798  0.00  0.00    +0.000 A 
ENDBRANCH   1  16
BRANCH   8  20
ATOM     20  S   UNL     1      -0.713  12.192  22.467  0.00  0.00    +0.000 S 
BRANCH  20  21
ATOM     21  C   UNL     1      -2.154  12.548  21.403  0.00  0.00    +0.000 C 
BRANCH  21  22
ATOM     22  C   UNL     1      -3.444  12.677  22.198  0.00  0.00    +0.000 A 
ATOM     23  C   UNL     1      -3.476  12.353  23.498  0.00  0.00    +0.000 A 
ATOM     24  C   UNL     1      -4.698  12.614  24.278  0.00  0.00    +0.000 A 
ATOM     25  O   UNL     1      -4.712  12.309  25.470  0.00  0.00    +0.000 OA
ATOM     26  N   UNL     1      -5.735  13.217  23.585  0.00  0.00    +0.000 N 
ATOM     27  C   UNL     1      -6.881  13.594  24.280  0.00  0.00    +0.000 A 
ATOM     28  C   UNL     1      -7.912  14.187  23.669  0.00  0.00    +0.000 A 
ATOM     29  C   UNL     1      -7.880  14.387  22.246  0.00  0.00    +0.000 A 
ATOM     30  C   UNL     1      -6.813  14.023  21.518  0.00  0.00    +0.000 A 
ATOM     31  C   UNL     1      -6.762  14.117  20.026  0.00  0.00    +0.000 C 
ATOM     32  C   UNL     1      -5.608  13.454  22.220  0.00  0.00    +0.000 A 
ATOM     33  N   UNL     1      -4.524  13.211  21.538  0.00  0.00    +0.000 NA
ENDBRANCH  21  22
ENDBRANCH  20  21
ENDBRANCH   8  20
TORSDOF 4
ENDMDL
MODEL 9
REMARK VINA RESULT:      -8.2      8.652     11.397
REMARK  Name = 
REMARK  6 active torsions:
REMARK  status: ('A' for Active; 'I' for Inactive)
REMARK    1  A    between atoms: C_1  and  C_2
REMARK    2  A    between atoms: C_5  and  N_6
REMARK    3  A    between atoms: C_13  and  S_14
REMARK    4  A    between atoms: S_14  and  C_15
REMARK    5  A    between atoms: C_15  and  C_16
REMARK    6  A    between atoms: C_24  and  C_25
REMARK                            x       y       z     vdW  Elec       q    Type
REMARK                         _______ _______ _______ _____ _____    ______ ____
ROOT
ATOM      1  N   UNL     1       2.978   6.690  18.911  0.00  0.00    +0.000 N 
ATOM      2  C   UNL     1       2.250   7.859  18.748  0.00  0.00    +0.000 C 
ATOM      3  O   UNL     1       2.137   8.436  17.676  0.00  0.00    +0.000 OA
ATOM      4  N   UNL     1       1.671   8.326  19.910  0.00  0.00    +0.000 N 
ATOM      5  C   UNL     1       0.860   9.444  19.832  0.00  0.00    +0.000 A 
ATOM      6  N   UNL     1       0.344  10.006  18.764  0.00  0.00    +0.000 NA
ATOM      7  N   UNL     1      -0.392  11.130  19.060  0.00  0.00    +0.000 NA
ATOM      8  C   UNL     1      -0.421  11.371  20.351  0.00  0.00    +0.000 A 
ATOM      9  S   UNL     1       0.449  10.221  21.299  0.00  0.00    +0.000 S 
ATOM     10  H   UNL     1       2.880   6.172  19.776  0.00  0.00    +0.000 HD
ATOM     11  H   UNL     1       1.990   8.026  20.816  0.00  0.00    +0.000 HD
ENDROOT
BRANCH   1  16
ATOM     12  C   UNL     1       6.050   4.033  14.796  0.00  0.00    +0.000 C 
ATOM     13  C   UNL     1       5.248   4.713  15.866  0.00  0.00    +0.000 A 
ATOM     14  C   UNL     1       5.540   6.025  16.228  0.00  0.00    +0.000 A 
ATOM     15  C   UNL     1       4.802   6.672  17.224  0.00  0.00    +0.000 A 
ATOM     16  C   UNL     1       3.742   6.041  17.889  0.00  0.00    +0.000 A 
ATOM     17  C   UNL     1       3.454   4.715  17.519  0.00  0.00    +0.000 A 
ATOM     18 CL   UNL     1       2.166   3.841  18.277  0.00  0.00    +0.000 Cl
ATOM     19  C   UNL     1       4.197   4.060  16.520  0.00  0.00    +0.000 A 
ENDBRANCH   1  16
BRANCH   8  20
ATOM     20  S   UNL     1      -1.265  12.761  21.007  0.00  0.00    +0.000 S 
BRANCH  20  21
ATOM     21  C   UNL     1      -2.183  11.958  22.366  0.00  0.00    +0.000 C 
BRANCH  21  22
ATOM     22  C   UNL     1      -3.326  12.818  22.882  0.00  0.00    +0.000 A 
ATOM     23  C   UNL     1      -3.089  13.823  23.737  0.00  0.00    +0.000 A 
ATOM     24  C   UNL     1      -4.189  14.726  24.115  0.00  0.00    +0.000 A 
ATOM     25  O   UNL     1      -3.955  15.642  24.902  0.00  0.00    +0.000 OA
ATOM     26  N   UNL     1      -5.411  14.467  23.515  0.00  0.00    +0.000 N 
ATOM     27  C   UNL     1      -6.470  15.342  23.739  0.00  0.00    +0.000 A 
ATOM     28  C   UNL     1      -7.671  15.151  23.182  0.00  0.00    +0.000 A 
ATOM     29  C   UNL     1      -7.910  13.980  22.383  0.00  0.00    +0.000 A 
ATOM     30  C   UNL     1      -6.934  13.089  22.150  0.00  0.00    +0.000 A 
ATOM     31  C   UNL     1      -7.148  11.807  21.411  0.00  0.00    +0.000 C 
ATOM     32  C   UNL     1      -5.553  13.358  22.688  0.00  0.00    +0.000 A 
ATOM     33  N   UNL     1      -4.573  12.561  22.367  0.00  0.00    +0.000 NA
ENDBRANCH  21  22
ENDBRANCH  20  21
ENDBRANCH   8  20
TORSDOF 4
ENDMDL
