MODEL 1
REMARK VINA RESULT:      -7.0      0.000      0.000
REMARK  Name = 
REMARK  6 active torsions:
REMARK  status: ('A' for Active; 'I' for Inactive)
REMARK    1  A    between atoms: C_2  and  C_26
REMARK    2  A    between atoms: N_3  and  C_4
REMARK    3  A    between atoms: C_7  and  C_8
REMARK    4  A    between atoms: C_8  and  C_9
REMARK    5  A    between atoms: C_12  and  N_13
REMARK    6  A    between atoms: C_14  and  C_16
REMARK                            x       y       z     vdW  Elec       q    Type
REMARK                         _______ _______ _______ _____ _____    ______ ____
ROOT
ATOM      1  C   UNL     1       2.020   7.514  19.921  0.00  0.00    +0.000 C 
ENDROOT
BRANCH   1   5
ATOM      2  C   UNL     1       0.808  10.889  21.381  0.00  0.00    +0.000 C 
ATOM      3  C   UNL     1       1.351   9.743  22.240  0.00  0.00    +0.000 C 
ATOM      4  C   UNL     1       0.660   8.403  21.971  0.00  0.00    +0.000 C 
ATOM      5  C   UNL     1       0.649   7.992  20.486  0.00  0.00    +0.000 C 
ATOM      6  C   UNL     1       0.072   9.151  19.646  0.00  0.00    +0.000 C 
ATOM      7  C   UNL     1       0.760  10.496  19.900  0.00  0.00    +0.000 C 
BRANCH   2  10
ATOM      8  N   UNL     1      -0.556  13.559  21.143  0.00  0.00    +0.000 NA
ATOM      9  C   UNL     1      -1.111  12.534  21.715  0.00  0.00    +0.000 C 
ATOM     10  N   UNL     1      -0.510  11.301  21.834  0.00  0.00    +0.000 N 
ATOM     11  H   UNL     1       0.376  13.305  20.817  0.00  0.00    +0.000 HD
ATOM     12  H   UNL     1      -1.044  10.628  22.383  0.00  0.00    +0.000 HD
BRANCH   9  13
ATOM     13  C   UNL     1      -2.497  12.696  22.282  0.00  0.00    +0.000 A 
ATOM     14  C   UNL     1      -2.858  12.091  23.478  0.00  0.00    +0.000 A 
ATOM     15  N   UNL     1      -4.105  12.212  24.011  0.00  0.00    +0.000 NA
ATOM     16  C   UNL     1      -4.968  12.968  23.293  0.00  0.00    +0.000 A 
ATOM     17  C   UNL     1      -4.601  13.576  22.097  0.00  0.00    +0.000 A 
ATOM     18  N   UNL     1      -3.364  13.459  21.558  0.00  0.00    +0.000 NA
ENDBRANCH   9  13
ENDBRANCH   2  10
ENDBRANCH   1   5
BRANCH   1  19
ATOM     19  C   UNL     1       2.073   7.234  18.395  0.00  0.00    +0.000 C 
ATOM     20  C   UNL     1       3.182   7.969  17.635  0.00  0.00    +0.000 C 
ATOM     21  C   UNL     1       4.583   7.432  17.911  0.00  0.00    +0.000 C 
ATOM     22  C   UNL     1       4.743   5.913  17.784  0.00  0.00    +0.000 C 
ATOM     23  C   UNL     1       3.539   5.092  18.258  0.00  0.00    +0.000 C 
ATOM     24  C   UNL     1       2.162   5.732  18.078  0.00  0.00    +0.000 C 
BRANCH  22  25
ATOM     25  N   UNL     1       5.137   5.515  16.436  0.00  0.00    +0.000 N 
ATOM     26  C   UNL     1       6.435   5.334  15.987  0.00  0.00    +0.000 C 
ATOM     27  N   UNL     1       7.482   5.531  16.726  0.00  0.00    +0.000 NA
ATOM     28  H   UNL     1       4.412   5.163  15.813  0.00  0.00    +0.000 HD
ATOM     29  H   UNL     1       7.212   5.823  17.663  0.00  0.00    +0.000 HD
BRANCH  26  30
ATOM     30  C   UNL     1       6.672   4.888  14.566  0.00  0.00    +0.000 A 
ATOM     31  C   UNL     1       5.885   3.880  14.012  0.00  0.00    +0.000 A 
ATOM     32  N   UNL     1       6.062   3.427  12.742  0.00  0.00    +0.000 NA
ATOM     33  C   UNL     1       7.064   4.019  12.061  0.00  0.00    +0.000 A 
ATOM     34  C   UNL     1       7.850   5.025  12.614  0.00  0.00    +0.000 A 
ATOM     35  N   UNL     1       7.675   5.493  13.876  0.00  0.00    +0.000 NA
ENDBRANCH  26  30
ENDBRANCH  22  25
ENDBRANCH   1  19
TORSDOF 6
ENDMDL
MODEL 2
REMARK VINA RESULT:      -6.8      1.561     11.797
REMARK  Name = 
REMARK  6 active torsions:
REMARK  status: ('A' for Active; 'I' for Inactive)
REMARK    1  A    between atoms: C_2  and  C_26
REMARK    2  A    between atoms: N_3  and  C_4
REMARK    3  A    between atoms: C_7  and  C_8
REMARK    4  A    between atoms: C_8  and  C_9
REMARK    5  A    between atoms: C_12  and  N_13
REMARK    6  A    between atoms: C_14  and  C_16
REMARK                            x       y       z     vdW  Elec       q    Type
REMARK                         _______ _______ _______ _____ _____    ______ ____
ROOT
ATOM      1  C   UNL     1       1.782   6.784  19.529  0.00  0.00    +0.000 C 
ENDROOT
BRANCH   1   5
ATOM      2  C   UNL     1       4.823   4.896  18.051  0.00  0.00    +0.000 C 
ATOM      3  C   UNL     1       4.876   6.356  18.508  0.00  0.00    +0.000 C 
ATOM      4  C   UNL     1       3.776   7.225  17.893  0.00  0.00    +0.000 C 
ATOM      5  C   UNL     1       2.354   6.662  18.084  0.00  0.00    +0.000 C 
ATOM      6  C   UNL     1       2.320   5.201  17.590  0.00  0.00    +0.000 C 
ATOM      7  C   UNL     1       3.411   4.319  18.204  0.00  0.00    +0.000 C 
BRANCH   2  10
ATOM      8  N   UNL     1       7.595   4.457  16.972  0.00  0.00    +0.000 NA
ATOM      9  C   UNL     1       6.553   4.566  16.207  0.00  0.00    +0.000 C 
ATOM     10  N   UNL     1       5.273   4.764  16.675  0.00  0.00    +0.000 N 
ATOM     11  H   UNL     1       7.316   4.550  17.948  0.00  0.00    +0.000 HD
ATOM     12  H   UNL     1       4.579   4.912  15.943  0.00  0.00    +0.000 HD
BRANCH   9  13
ATOM     13  C   UNL     1       6.746   4.468  14.717  0.00  0.00    +0.000 A 
ATOM     14  C   UNL     1       5.987   3.595  13.949  0.00  0.00    +0.000 A 
ATOM     15  N   UNL     1       6.144   3.479  12.603  0.00  0.00    +0.000 NA
ATOM     16  C   UNL     1       7.093   4.279  12.063  0.00  0.00    +0.000 A 
ATOM     17  C   UNL     1       7.850   5.155  12.833  0.00  0.00    +0.000 A 
ATOM     18  N   UNL     1       7.701   5.276  14.174  0.00  0.00    +0.000 NA
ENDBRANCH   9  13
ENDBRANCH   2  10
ENDBRANCH   1   5
BRANCH   1  19
ATOM     19  C   UNL     1       2.055   8.123  20.263  0.00  0.00    +0.000 C 
ATOM     20  C   UNL     1       1.803   9.386  19.433  0.00  0.00    +0.000 C 
ATOM     21  C   UNL     1       0.326   9.677  19.182  0.00  0.00    +0.000 C 
ATOM     22  C   UNL     1      -0.571   9.647  20.424  0.00  0.00    +0.000 C 
ATOM     23  C   UNL     1      -0.203   8.585  21.465  0.00  0.00    +0.000 C 
ATOM     24  C   UNL     1       1.280   8.233  21.587  0.00  0.00    +0.000 C 
BRANCH  22  25
ATOM     25  N   UNL     1      -0.686  10.962  21.050  0.00  0.00    +0.000 N 
ATOM     26  C   UNL     1      -1.503  11.996  20.626  0.00  0.00    +0.000 C 
ATOM     27  N   UNL     1      -2.262  11.926  19.578  0.00  0.00    +0.000 NA
ATOM     28  H   UNL     1      -0.276  11.085  21.974  0.00  0.00    +0.000 HD
ATOM     29  H   UNL     1      -2.175  11.016  19.130  0.00  0.00    +0.000 HD
BRANCH  26  30
ATOM     30  C   UNL     1      -1.527  13.287  21.406  0.00  0.00    +0.000 A 
ATOM     31  C   UNL     1      -2.140  14.416  20.866  0.00  0.00    +0.000 A 
ATOM     32  N   UNL     1      -2.178  15.611  21.514  0.00  0.00    +0.000 NA
ATOM     33  C   UNL     1      -1.569  15.624  22.718  0.00  0.00    +0.000 A 
ATOM     34  C   UNL     1      -0.957  14.498  23.257  0.00  0.00    +0.000 A 
ATOM     35  N   UNL     1      -0.922  13.298  22.624  0.00  0.00    +0.000 NA
ENDBRANCH  26  30
ENDBRANCH  22  25
ENDBRANCH   1  19
TORSDOF 6
ENDMDL
MODEL 3
REMARK VINA RESULT:      -6.8      1.517      2.034
REMARK  Name = 
REMARK  6 active torsions:
REMARK  status: ('A' for Active; 'I' for Inactive)
REMARK    1  A    between atoms: C_2  and  C_26
REMARK    2  A    between atoms: N_3  and  C_4
REMARK    3  A    between atoms: C_7  and  C_8
REMARK    4  A    between atoms: C_8  and  C_9
REMARK    5  A    between atoms: C_12  and  N_13
REMARK    6  A    between atoms: C_14  and  C_16
REMARK                            x       y       z     vdW  Elec       q    Type
REMARK                         _______ _______ _______ _____ _____    ______ ____
ROOT
ATOM      1  C   UNL     1       1.937   7.311  19.804  0.00  0.00    +0.000 C 
ENDROOT
BRANCH   1   5
ATOM      2  C   UNL     1      -0.897   9.847  20.534  0.00  0.00    +0.000 C 
ATOM      3  C   UNL     1      -0.157   9.769  19.196  0.00  0.00    +0.000 C 
ATOM      4  C   UNL     1       1.366   9.822  19.340  0.00  0.00    +0.000 C 
ATOM      5  C   UNL     1       1.938   8.782  20.322  0.00  0.00    +0.000 C 
ATOM      6  C   UNL     1       1.197   8.900  21.670  0.00  0.00    +0.000 C 
ATOM      7  C   UNL     1      -0.328   8.841  21.541  0.00  0.00    +0.000 C 
BRANCH   2  10
ATOM      8  N   UNL     1      -2.702  12.200  20.038  0.00  0.00    +0.000 NA
ATOM      9  C   UNL     1      -1.680  12.254  20.836  0.00  0.00    +0.000 C 
ATOM     10  N   UNL     1      -0.840  11.192  21.083  0.00  0.00    +0.000 N 
ATOM     11  H   UNL     1      -2.769  11.269  19.630  0.00  0.00    +0.000 HD
ATOM     12  H   UNL     1      -0.037  11.422  21.667  0.00  0.00    +0.000 HD
BRANCH   9  13
ATOM     13  C   UNL     1      -1.391  13.555  21.539  0.00  0.00    +0.000 A 
ATOM     14  C   UNL     1      -0.217  13.736  22.260  0.00  0.00    +0.000 A 
ATOM     15  N   UNL     1       0.068  14.895  22.912  0.00  0.00    +0.000 NA
ATOM     16  C   UNL     1      -0.873  15.863  22.806  0.00  0.00    +0.000 A 
ATOM     17  C   UNL     1      -2.045  15.679  22.081  0.00  0.00    +0.000 A 
ATOM     18  N   UNL     1      -2.338  14.528  21.430  0.00  0.00    +0.000 NA
ENDBRANCH   9  13
ENDBRANCH   2  10
ENDBRANCH   1   5
BRANCH   1  19
ATOM     19  C   UNL     1       2.049   7.126  18.267  0.00  0.00    +0.000 C 
ATOM     20  C   UNL     1       3.232   7.844  17.608  0.00  0.00    +0.000 C 
ATOM     21  C   UNL     1       4.587   7.211  17.911  0.00  0.00    +0.000 C 
ATOM     22  C   UNL     1       4.671   5.697  17.692  0.00  0.00    +0.000 C 
ATOM     23  C   UNL     1       3.402   4.917  18.056  0.00  0.00    +0.000 C 
ATOM     24  C   UNL     1       2.073   5.644  17.857  0.00  0.00    +0.000 C 
BRANCH  22  25
ATOM     25  N   UNL     1       5.108   5.362  16.339  0.00  0.00    +0.000 N 
ATOM     26  C   UNL     1       6.420   5.199  15.925  0.00  0.00    +0.000 C 
ATOM     27  N   UNL     1       7.442   5.358  16.706  0.00  0.00    +0.000 NA
ATOM     28  H   UNL     1       4.403   5.043  15.677  0.00  0.00    +0.000 HD
ATOM     29  H   UNL     1       7.142   5.605  17.647  0.00  0.00    +0.000 HD
BRANCH  26  30
ATOM     30  C   UNL     1       6.702   4.822  14.492  0.00  0.00    +0.000 A 
ATOM     31  C   UNL     1       5.964   3.810  13.881  0.00  0.00    +0.000 A 
ATOM     32  N   UNL     1       6.184   3.416  12.598  0.00  0.00    +0.000 NA
ATOM     33  C   UNL     1       7.177   4.072  11.964  0.00  0.00    +0.000 A 
ATOM     34  C   UNL     1       7.913   5.082  12.574  0.00  0.00    +0.000 A 
ATOM     35  N   UNL     1       7.695   5.491  13.849  0.00  0.00    +0.000 NA
ENDBRANCH  26  30
ENDBRANCH  22  25
ENDBRANCH   1  19
TORSDOF 6
ENDMDL
MODEL 4
REMARK VINA RESULT:      -6.7      1.970     11.447
REMARK  Name = 
REMARK  6 active torsions:
REMARK  status: ('A' for Active; 'I' for Inactive)
REMARK    1  A    between atoms: C_2  and  C_26
REMARK    2  A    between atoms: N_3  and  C_4
REMARK    3  A    between atoms: C_7  and  C_8
REMARK    4  A    between atoms: C_8  and  C_9
REMARK    5  A    between atoms: C_12  and  N_13
REMARK    6  A    between atoms: C_14  and  C_16
REMARK                            x       y       z     vdW  Elec       q    Type
REMARK                         _______ _______ _______ _____ _____    ______ ____
ROOT
ATOM      1  C   UNL     1       1.769   6.927  19.377  0.00  0.00    +0.000 C 
ENDROOT
BRANCH   1   5
ATOM      2  C   UNL     1       5.012   5.284  18.045  0.00  0.00    +0.000 C 
ATOM      3  C   UNL     1       4.837   6.796  18.208  0.00  0.00    +0.000 C 
ATOM      4  C   UNL     1       3.576   7.338  17.530  0.00  0.00    +0.000 C 
ATOM      5  C   UNL     1       2.282   6.608  17.940  0.00  0.00    +0.000 C 
ATOM      6  C   UNL     1       2.474   5.091  17.739  0.00  0.00    +0.000 C 
ATOM      7  C   UNL     1       3.729   4.534  18.419  0.00  0.00    +0.000 C 
BRANCH   2  10
ATOM      8  N   UNL     1       7.429   6.158  16.483  0.00  0.00    +0.000 NA
ATOM      9  C   UNL     1       6.524   5.367  15.993  0.00  0.00    +0.000 C 
ATOM     10  N   UNL     1       5.410   4.949  16.687  0.00  0.00    +0.000 N 
ATOM     11  H   UNL     1       7.178   6.417  17.436  0.00  0.00    +0.000 HD
ATOM     12  H   UNL     1       4.755   4.400  16.132  0.00  0.00    +0.000 HD
BRANCH   9  13
ATOM     13  C   UNL     1       6.697   4.871  14.582  0.00  0.00    +0.000 A 
ATOM     14  C   UNL     1       5.896   3.856  14.074  0.00  0.00    +0.000 A 
ATOM     15  N   UNL     1       6.034   3.381  12.806  0.00  0.00    +0.000 NA
ATOM     16  C   UNL     1       7.007   3.971  12.073  0.00  0.00    +0.000 A 
ATOM     17  C   UNL     1       7.805   4.989  12.583  0.00  0.00    +0.000 A 
ATOM     18  N   UNL     1       7.676   5.467  13.843  0.00  0.00    +0.000 NA
ENDBRANCH   9  13
ENDBRANCH   2  10
ENDBRANCH   1   5
BRANCH   1  19
ATOM     19  C   UNL     1       2.055   8.359  19.905  0.00  0.00    +0.000 C 
ATOM     20  C   UNL     1       2.073   9.457  18.836  0.00  0.00    +0.000 C 
ATOM     21  C   UNL     1       0.695   9.800  18.278  0.00  0.00    +0.000 C 
ATOM     22  C   UNL     1      -0.392  10.069  19.325  0.00  0.00    +0.000 C 
ATOM     23  C   UNL     1      -0.309   9.199  20.584  0.00  0.00    +0.000 C 
ATOM     24  C   UNL     1       1.089   8.772  21.028  0.00  0.00    +0.000 C 
BRANCH  22  25
ATOM     25  N   UNL     1      -0.471  11.483  19.682  0.00  0.00    +0.000 N 
ATOM     26  C   UNL     1      -0.987  12.495  18.890  0.00  0.00    +0.000 C 
ATOM     27  N   UNL     1      -1.446  12.303  17.693  0.00  0.00    +0.000 NA
ATOM     28  H   UNL     1      -0.304  11.737  20.654  0.00  0.00    +0.000 HD
ATOM     29  H   UNL     1      -1.380  11.321  17.434  0.00  0.00    +0.000 HD
BRANCH  26  30
ATOM     30  C   UNL     1      -1.023  13.906  19.422  0.00  0.00    +0.000 A 
ATOM     31  C   UNL     1      -0.199  14.882  18.864  0.00  0.00    +0.000 A 
ATOM     32  N   UNL     1      -0.177  16.165  19.313  0.00  0.00    +0.000 NA
ATOM     33  C   UNL     1      -1.005  16.421  20.346  0.00  0.00    +0.000 A 
ATOM     34  C   UNL     1      -1.827  15.447  20.903  0.00  0.00    +0.000 A 
ATOM     35  N   UNL     1      -1.866  14.166  20.457  0.00  0.00    +0.000 NA
ENDBRANCH  26  30
ENDBRANCH  22  25
ENDBRANCH   1  19
TORSDOF 6
ENDMDL
MODEL 5
REMARK VINA RESULT:      -6.6      1.497     11.751
REMARK  Name = 
REMARK  6 active torsions:
REMARK  status: ('A' for Active; 'I' for Inactive)
REMARK    1  A    between atoms: C_2  and  C_26
REMARK    2  A    between atoms: N_3  and  C_4
REMARK    3  A    between atoms: C_7  and  C_8
REMARK    4  A    between atoms: C_8  and  C_9
REMARK    5  A    between atoms: C_12  and  N_13
REMARK    6  A    between atoms: C_14  and  C_16
REMARK                            x       y       z     vdW  Elec       q    Type
REMARK                         _______ _______ _______ _____ _____    ______ ____
ROOT
ATOM      1  C   UNL     1       1.768   7.155  19.392  0.00  0.00    +0.000 C 
ENDROOT
BRANCH   1   5
ATOM      2  C   UNL     1       5.049   5.637  18.007  0.00  0.00    +0.000 C 
ATOM      3  C   UNL     1       4.831   7.140  18.204  0.00  0.00    +0.000 C 
ATOM      4  C   UNL     1       3.551   7.659  17.545  0.00  0.00    +0.000 C 
ATOM      5  C   UNL     1       2.282   6.882  17.946  0.00  0.00    +0.000 C 
ATOM      6  C   UNL     1       2.517   5.376  17.711  0.00  0.00    +0.000 C 
ATOM      7  C   UNL     1       3.791   4.842  18.372  0.00  0.00    +0.000 C 
BRANCH   2  10
ATOM      8  N   UNL     1       7.597   4.419  16.971  0.00  0.00    +0.000 NA
ATOM      9  C   UNL     1       6.626   4.787  16.192  0.00  0.00    +0.000 C 
ATOM     10  N   UNL     1       5.449   5.344  16.640  0.00  0.00    +0.000 N 
ATOM     11  H   UNL     1       7.351   4.616  17.940  0.00  0.00    +0.000 HD
ATOM     12  H   UNL     1       4.825   5.654  15.897  0.00  0.00    +0.000 HD
BRANCH   9  13
ATOM     13  C   UNL     1       6.789   4.594  14.707  0.00  0.00    +0.000 A 
ATOM     14  C   UNL     1       6.010   3.677  14.013  0.00  0.00    +0.000 A 
ATOM     15  N   UNL     1       6.140   3.475  12.673  0.00  0.00    +0.000 NA
ATOM     16  C   UNL     1       7.081   4.234  12.064  0.00  0.00    +0.000 A 
ATOM     17  C   UNL     1       7.857   5.153  12.762  0.00  0.00    +0.000 A 
ATOM     18  N   UNL     1       7.736   5.360  14.095  0.00  0.00    +0.000 NA
ENDBRANCH   9  13
ENDBRANCH   2  10
ENDBRANCH   1   5
BRANCH   1  19
ATOM     19  C   UNL     1       1.961   8.599  19.927  0.00  0.00    +0.000 C 
ATOM     20  C   UNL     1       1.650   9.714  18.922  0.00  0.00    +0.000 C 
ATOM     21  C   UNL     1       0.163   9.885  18.627  0.00  0.00    +0.000 C 
ATOM     22  C   UNL     1      -0.746   9.984  19.858  0.00  0.00    +0.000 C 
ATOM     23  C   UNL     1      -0.332   9.105  21.043  0.00  0.00    +0.000 C 
ATOM     24  C   UNL     1       1.166   8.856  21.219  0.00  0.00    +0.000 C 
BRANCH  22  25
ATOM     25  N   UNL     1      -0.937  11.367  20.287  0.00  0.00    +0.000 N 
ATOM     26  C   UNL     1      -1.824  12.276  19.733  0.00  0.00    +0.000 C 
ATOM     27  N   UNL     1      -2.588  12.005  18.721  0.00  0.00    +0.000 NA
ATOM     28  H   UNL     1      -0.527  11.650  21.175  0.00  0.00    +0.000 HD
ATOM     29  H   UNL     1      -2.447  11.047  18.409  0.00  0.00    +0.000 HD
BRANCH  26  30
ATOM     30  C   UNL     1      -1.922  13.663  20.316  0.00  0.00    +0.000 A 
ATOM     31  C   UNL     1      -2.955  13.977  21.197  0.00  0.00    +0.000 A 
ATOM     32  N   UNL     1      -3.103  15.215  21.741  0.00  0.00    +0.000 NA
ATOM     33  C   UNL     1      -2.180  16.119  21.357  0.00  0.00    +0.000 A 
ATOM     34  C   UNL     1      -1.149  15.807  20.477  0.00  0.00    +0.000 A 
ATOM     35  N   UNL     1      -0.985  14.573  19.937  0.00  0.00    +0.000 NA
ENDBRANCH  26  30
ENDBRANCH  22  25
ENDBRANCH   1  19
TORSDOF 6
ENDMDL
MODEL 6
REMARK VINA RESULT:      -6.6      1.524     11.785
REMARK  Name = 
REMARK  6 active torsions:
REMARK  status: ('A' for Active; 'I' for Inactive)
REMARK    1  A    between atoms: C_2  and  C_26
REMARK    2  A    between atoms: N_3  and  C_4
REMARK    3  A    between atoms: C_7  and  C_8
REMARK    4  A    between atoms: C_8  and  C_9
REMARK    5  A    between atoms: C_12  and  N_13
REMARK    6  A    between atoms: C_14  and  C_16
REMARK                            x       y       z     vdW  Elec       q    Type
REMARK                         _______ _______ _______ _____ _____    ______ ____
ROOT
ATOM      1  C   UNL     1       1.684   6.925  19.403  0.00  0.00    +0.000 C 
ENDROOT
BRANCH   1   5
ATOM      2  C   UNL     1       5.022   5.517  18.037  0.00  0.00    +0.000 C 
ATOM      3  C   UNL     1       4.704   7.013  18.112  0.00  0.00    +0.000 C 
ATOM      4  C   UNL     1       3.371   7.384  17.457  0.00  0.00    +0.000 C 
ATOM      5  C   UNL     1       2.172   6.562  17.968  0.00  0.00    +0.000 C 
ATOM      6  C   UNL     1       2.506   5.060  17.855  0.00  0.00    +0.000 C 
ATOM      7  C   UNL     1       3.835   4.674  18.513  0.00  0.00    +0.000 C 
BRANCH   2  10
ATOM      8  N   UNL     1       7.531   6.134  16.497  0.00  0.00    +0.000 NA
ATOM      9  C   UNL     1       6.558   5.432  16.003  0.00  0.00    +0.000 C 
ATOM     10  N   UNL     1       5.401   5.133  16.686  0.00  0.00    +0.000 N 
ATOM     11  H   UNL     1       7.296   6.425  17.445  0.00  0.00    +0.000 HD
ATOM     12  H   UNL     1       4.701   4.645  16.129  0.00  0.00    +0.000 HD
BRANCH   9  13
ATOM     13  C   UNL     1       6.697   4.908  14.598  0.00  0.00    +0.000 A 
ATOM     14  C   UNL     1       5.852   3.918  14.114  0.00  0.00    +0.000 A 
ATOM     15  N   UNL     1       5.958   3.418  12.852  0.00  0.00    +0.000 NA
ATOM     16  C   UNL     1       6.946   3.959  12.100  0.00  0.00    +0.000 A 
ATOM     17  C   UNL     1       7.788   4.953  12.587  0.00  0.00    +0.000 A 
ATOM     18  N   UNL     1       7.691   5.454  13.841  0.00  0.00    +0.000 NA
ENDBRANCH   9  13
ENDBRANCH   2  10
ENDBRANCH   1   5
BRANCH   1  19
ATOM     19  C   UNL     1       2.078   8.333  19.925  0.00  0.00    +0.000 C 
ATOM     20  C   UNL     1       1.563   9.507  19.086  0.00  0.00    +0.000 C 
ATOM     21  C   UNL     1       0.060   9.743  19.207  0.00  0.00    +0.000 C 
ATOM     22  C   UNL     1      -0.483   9.809  20.638  0.00  0.00    +0.000 C 
ATOM     23  C   UNL     1       0.189   8.857  21.633  0.00  0.00    +0.000 C 
ATOM     24  C   UNL     1       1.667   8.549  21.391  0.00  0.00    +0.000 C 
BRANCH  22  25
ATOM     25  N   UNL     1      -0.490  11.174  21.159  0.00  0.00    +0.000 N 
ATOM     26  C   UNL     1      -1.005  11.576  22.380  0.00  0.00    +0.000 C 
ATOM     27  N   UNL     1      -1.583  10.770  23.214  0.00  0.00    +0.000 NA
ATOM     28  H   UNL     1       0.084  11.867  20.682  0.00  0.00    +0.000 HD
ATOM     29  H   UNL     1      -1.593   9.820  22.849  0.00  0.00    +0.000 HD
BRANCH  26  30
ATOM     30  C   UNL     1      -0.905  13.026  22.783  0.00  0.00    +0.000 A 
ATOM     31  C   UNL     1       0.103  13.829  22.252  0.00  0.00    +0.000 A 
ATOM     32  N   UNL     1       0.252  15.138  22.590  0.00  0.00    +0.000 NA
ATOM     33  C   UNL     1      -0.644  15.599  23.487  0.00  0.00    +0.000 A 
ATOM     34  C   UNL     1      -1.648  14.798  24.018  0.00  0.00    +0.000 A 
ATOM     35  N   UNL     1      -1.814  13.494  23.679  0.00  0.00    +0.000 NA
ENDBRANCH  26  30
ENDBRANCH  22  25
ENDBRANCH   1  19
TORSDOF 6
ENDMDL
MODEL 7
REMARK VINA RESULT:      -6.5      3.124      4.995
REMARK  Name = 
REMARK  6 active torsions:
REMARK  status: ('A' for Active; 'I' for Inactive)
REMARK    1  A    between atoms: C_2  and  C_26
REMARK    2  A    between atoms: N_3  and  C_4
REMARK    3  A    between atoms: C_7  and  C_8
REMARK    4  A    between atoms: C_8  and  C_9
REMARK    5  A    between atoms: C_12  and  N_13
REMARK    6  A    between atoms: C_14  and  C_16
REMARK                            x       y       z     vdW  Elec       q    Type
REMARK                         _______ _______ _______ _____ _____    ______ ____
ROOT
ATOM      1  C   UNL     1      -0.135  11.826  19.856  0.00  0.00    +0.000 C 
ENDROOT
BRANCH   1   5
ATOM      2  C   UNL     1      -1.751  13.575  22.910  0.00  0.00    +0.000 C 
ATOM      3  C   UNL     1      -2.281  12.272  22.303  0.00  0.00    +0.000 C 
ATOM      4  C   UNL     1      -2.519  12.358  20.793  0.00  0.00    +0.000 C 
ATOM      5  C   UNL     1      -1.298  12.855  19.995  0.00  0.00    +0.000 C 
ATOM      6  C   UNL     1      -0.801  14.181  20.607  0.00  0.00    +0.000 C 
ATOM      7  C   UNL     1      -0.552  14.107  22.117  0.00  0.00    +0.000 C 
BRANCH   2  10
ATOM      8  N   UNL     1      -3.642  14.238  25.152  0.00  0.00    +0.000 NA
ATOM      9  C   UNL     1      -3.653  14.864  24.015  0.00  0.00    +0.000 C 
ATOM     10  N   UNL     1      -2.797  14.583  22.974  0.00  0.00    +0.000 N 
ATOM     11  H   UNL     1      -2.921  13.518  25.140  0.00  0.00    +0.000 HD
ATOM     12  H   UNL     1      -2.991  15.107  22.122  0.00  0.00    +0.000 HD
BRANCH   9  13
ATOM     13  C   UNL     1      -4.658  15.968  23.817  0.00  0.00    +0.000 A 
ATOM     14  C   UNL     1      -4.260  17.296  23.736  0.00  0.00    +0.000 A 
ATOM     15  N   UNL     1      -5.146  18.315  23.565  0.00  0.00    +0.000 NA
ATOM     16  C   UNL     1      -6.444  17.942  23.477  0.00  0.00    +0.000 A 
ATOM     17  C   UNL     1      -6.839  16.611  23.555  0.00  0.00    +0.000 A 
ATOM     18  N   UNL     1      -5.965  15.591  23.727  0.00  0.00    +0.000 NA
ENDBRANCH   9  13
ENDBRANCH   2  10
ENDBRANCH   1   5
BRANCH   1  19
ATOM     19  C   UNL     1      -0.547  10.363  19.544  0.00  0.00    +0.000 C 
ATOM     20  C   UNL     1      -0.108   9.840  18.172  0.00  0.00    +0.000 C 
ATOM     21  C   UNL     1       1.391   9.576  18.061  0.00  0.00    +0.000 C 
ATOM     22  C   UNL     1       1.997   8.735  19.191  0.00  0.00    +0.000 C 
ATOM     23  C   UNL     1       1.400   8.987  20.579  0.00  0.00    +0.000 C 
ATOM     24  C   UNL     1      -0.077   9.378  20.627  0.00  0.00    +0.000 C 
BRANCH  22  25
ATOM     25  N   UNL     1       1.986   7.309  18.878  0.00  0.00    +0.000 N 
ATOM     26  C   UNL     1       2.954   6.625  18.162  0.00  0.00    +0.000 C 
ATOM     27  N   UNL     1       3.998   7.193  17.646  0.00  0.00    +0.000 NA
ATOM     28  H   UNL     1       1.314   6.720  19.369  0.00  0.00    +0.000 HD
ATOM     29  H   UNL     1       4.003   8.191  17.849  0.00  0.00    +0.000 HD
BRANCH  26  30
ATOM     30  C   UNL     1       2.807   5.138  17.953  0.00  0.00    +0.000 A 
ATOM     31  C   UNL     1       1.542   4.553  17.976  0.00  0.00    +0.000 A 
ATOM     32  N   UNL     1       1.349   3.217  17.809  0.00  0.00    +0.000 NA
ATOM     33  C   UNL     1       2.476   2.499  17.629  0.00  0.00    +0.000 A 
ATOM     34  C   UNL     1       3.738   3.082  17.606  0.00  0.00    +0.000 A 
ATOM     35  N   UNL     1       3.942   4.415  17.760  0.00  0.00    +0.000 NA
ENDBRANCH  26  30
ENDBRANCH  22  25
ENDBRANCH   1  19
TORSDOF 6
ENDMDL
MODEL 8
REMARK VINA RESULT:      -6.5      3.377      5.151
REMARK  Name = 
REMARK  6 active torsions:
REMARK  status: ('A' for Active; 'I' for Inactive)
REMARK    1  A    between atoms: C_2  and  C_26
REMARK    2  A    between atoms: N_3  and  C_4
REMARK    3  A    between atoms: C_7  and  C_8
REMARK    4  A    between atoms: C_8  and  C_9
REMARK    5  A    between atoms: C_12  and  N_13
REMARK    6  A    between atoms: C_14  and  C_16
REMARK                            x       y       z     vdW  Elec       q    Type
REMARK                         _______ _______ _______ _____ _____    ______ ____
ROOT
ATOM      1  C   UNL     1      -0.170  11.887  19.460  0.00  0.00    +0.000 C 
ENDROOT
BRANCH   1   5
ATOM      2  C   UNL     1      -1.029  13.239  22.984  0.00  0.00    +0.000 C 
ATOM      3  C   UNL     1      -1.725  12.031  22.350  0.00  0.00    +0.000 C 
ATOM      4  C   UNL     1      -2.277  12.314  20.950  0.00  0.00    +0.000 C 
ATOM      5  C   UNL     1      -1.237  12.899  19.975  0.00  0.00    +0.000 C 
ATOM      6  C   UNL     1      -0.572  14.130  20.624  0.00  0.00    +0.000 C 
ATOM      7  C   UNL     1      -0.009  13.859  22.023  0.00  0.00    +0.000 C 
BRANCH   2  10
ATOM      8  N   UNL     1      -0.853  15.291  25.176  0.00  0.00    +0.000 NA
ATOM      9  C   UNL     1      -1.893  15.168  24.411  0.00  0.00    +0.000 C 
ATOM     10  N   UNL     1      -1.999  14.240  23.399  0.00  0.00    +0.000 N 
ATOM     11  H   UNL     1      -0.152  14.598  24.915  0.00  0.00    +0.000 HD
ATOM     12  H   UNL     1      -2.912  14.218  22.947  0.00  0.00    +0.000 HD
BRANCH   9  13
ATOM     13  C   UNL     1      -3.060  16.095  24.636  0.00  0.00    +0.000 A 
ATOM     14  C   UNL     1      -2.888  17.329  25.250  0.00  0.00    +0.000 A 
ATOM     15  N   UNL     1      -3.923  18.183  25.474  0.00  0.00    +0.000 NA
ATOM     16  C   UNL     1      -5.133  17.746  25.053  0.00  0.00    +0.000 A 
ATOM     17  C   UNL     1      -5.301  16.511  24.437  0.00  0.00    +0.000 A 
ATOM     18  N   UNL     1      -4.277  15.654  24.211  0.00  0.00    +0.000 NA
ENDBRANCH   9  13
ENDBRANCH   2  10
ENDBRANCH   1   5
BRANCH   1  19
ATOM     19  C   UNL     1      -0.626  10.407  19.347  0.00  0.00    +0.000 C 
ATOM     20  C   UNL     1      -0.161   9.675  18.084  0.00  0.00    +0.000 C 
ATOM     21  C   UNL     1       1.330   9.350  18.070  0.00  0.00    +0.000 C 
ATOM     22  C   UNL     1       1.866   8.665  19.332  0.00  0.00    +0.000 C 
ATOM     23  C   UNL     1       1.233   9.137  20.646  0.00  0.00    +0.000 C 
ATOM     24  C   UNL     1      -0.229   9.577  20.580  0.00  0.00    +0.000 C 
BRANCH  22  25
ATOM     25  N   UNL     1       1.812   7.209  19.230  0.00  0.00    +0.000 N 
ATOM     26  C   UNL     1       2.690   6.410  18.518  0.00  0.00    +0.000 C 
ATOM     27  N   UNL     1       3.674   6.877  17.815  0.00  0.00    +0.000 NA
ATOM     28  H   UNL     1       1.196   6.711  19.871  0.00  0.00    +0.000 HD
ATOM     29  H   UNL     1       3.707   7.893  17.871  0.00  0.00    +0.000 HD
BRANCH  26  30
ATOM     30  C   UNL     1       2.513   4.912  18.541  0.00  0.00    +0.000 A 
ATOM     31  C   UNL     1       2.482   4.196  17.345  0.00  0.00    +0.000 A 
ATOM     32  N   UNL     1       2.308   2.848  17.302  0.00  0.00    +0.000 NA
ATOM     33  C   UNL     1       2.158   2.256  18.505  0.00  0.00    +0.000 A 
ATOM     34  C   UNL     1       2.188   2.970  19.698  0.00  0.00    +0.000 A 
ATOM     35  N   UNL     1       2.372   4.313  19.753  0.00  0.00    +0.000 NA
ENDBRANCH  26  30
ENDBRANCH  22  25
ENDBRANCH   1  19
TORSDOF 6
ENDMDL
MODEL 9
REMARK VINA RESULT:      -6.5      4.963      7.909
REMARK  Name = 
REMARK  6 active torsions:
REMARK  status: ('A' for Active; 'I' for Inactive)
REMARK    1  A    between atoms: C_2  and  C_26
REMARK    2  A    between atoms: N_3  and  C_4
REMARK    3  A    between atoms: C_7  and  C_8
REMARK    4  A    between atoms: C_8  and  C_9
REMARK    5  A    between atoms: C_12  and  N_13
REMARK    6  A    between atoms: C_14  and  C_16
REMARK                            x       y       z     vdW  Elec       q    Type
REMARK                         _______ _______ _______ _____ _____    ______ ____
ROOT
ATOM      1  C   UNL     1      -0.333  12.215  20.644  0.00  0.00    +0.000 C 
ENDROOT
BRANCH   1   5
ATOM      2  C   UNL     1       1.846  15.339  19.948  0.00  0.00    +0.000 C 
ATOM      3  C   UNL     1       1.043  14.611  18.866  0.00  0.00    +0.000 C 
ATOM      4  C   UNL     1       1.316  13.106  18.818  0.00  0.00    +0.000 C 
ATOM      5  C   UNL     1       1.143  12.395  20.174  0.00  0.00    +0.000 C 
ATOM      6  C   UNL     1       1.983  13.129  21.240  0.00  0.00    +0.000 C 
ATOM      7  C   UNL     1       1.715  14.636  21.304  0.00  0.00    +0.000 C 
BRANCH   2  10
ATOM      8  N   UNL     1       3.204  17.329  18.147  0.00  0.00    +0.000 NA
ATOM      9  C   UNL     1       3.843  16.369  18.742  0.00  0.00    +0.000 C 
ATOM     10  N   UNL     1       3.247  15.447  19.573  0.00  0.00    +0.000 N 
ATOM     11  H   UNL     1       2.214  17.280  18.386  0.00  0.00    +0.000 HD
ATOM     12  H   UNL     1       3.872  14.708  19.893  0.00  0.00    +0.000 HD
BRANCH   9  13
ATOM     13  C   UNL     1       5.327  16.251  18.515  0.00  0.00    +0.000 A 
ATOM     14  C   UNL     1       5.888  15.080  18.022  0.00  0.00    +0.000 A 
ATOM     15  N   UNL     1       7.225  14.941  17.814  0.00  0.00    +0.000 NA
ATOM     16  C   UNL     1       7.972  16.028  18.121  0.00  0.00    +0.000 A 
ATOM     17  C   UNL     1       7.408  17.200  18.611  0.00  0.00    +0.000 A 
ATOM     18  N   UNL     1       6.078  17.347  18.822  0.00  0.00    +0.000 NA
ENDBRANCH   9  13
ENDBRANCH   2  10
ENDBRANCH   1   5
BRANCH   1  19
ATOM     19  C   UNL     1      -0.840  10.753  20.768  0.00  0.00    +0.000 C 
ATOM     20  C   UNL     1      -0.512   9.847  19.577  0.00  0.00    +0.000 C 
ATOM     21  C   UNL     1       0.961   9.462  19.478  0.00  0.00    +0.000 C 
ATOM     22  C   UNL     1       1.590   8.924  20.768  0.00  0.00    +0.000 C 
ATOM     23  C   UNL     1       1.092   9.586  22.057  0.00  0.00    +0.000 C 
ATOM     24  C   UNL     1      -0.357  10.073  22.060  0.00  0.00    +0.000 C 
BRANCH  22  25
ATOM     25  N   UNL     1       1.485   7.471  20.864  0.00  0.00    +0.000 N 
ATOM     26  C   UNL     1       2.084   6.554  20.016  0.00  0.00    +0.000 C 
ATOM     27  N   UNL     1       2.804   6.890  18.992  0.00  0.00    +0.000 NA
ATOM     28  H   UNL     1       1.094   7.078  21.719  0.00  0.00    +0.000 HD
ATOM     29  H   UNL     1       2.868   7.903  18.912  0.00  0.00    +0.000 HD
BRANCH  26  30
ATOM     30  C   UNL     1       1.900   5.079  20.272  0.00  0.00    +0.000 A 
ATOM     31  C   UNL     1       2.262   4.536  21.503  0.00  0.00    +0.000 A 
ATOM     32  N   UNL     1       2.135   3.212  21.786  0.00  0.00    +0.000 NA
ATOM     33  C   UNL     1       1.639   2.461  20.781  0.00  0.00    +0.000 A 
ATOM     34  C   UNL     1       1.278   3.003  19.553  0.00  0.00    +0.000 A 
ATOM     35  N   UNL     1       1.390   4.324  19.263  0.00  0.00    +0.000 NA
ENDBRANCH  26  30
ENDBRANCH  22  25
ENDBRANCH   1  19
TORSDOF 6
ENDMDL
