MODEL 1
REMARK VINA RESULT:      -8.5      0.000      0.000
REMARK  Name = 
REMARK  15 active torsions:
REMARK  status: ('A' for Active; 'I' for Inactive)
REMARK    1  A    between atoms: C_1  and  O_2
REMARK    2  A    between atoms: O_2  and  C_3
REMARK    3  A    between atoms: C_8  and  C_9
REMARK    4  A    between atoms: C_11  and  C_12
REMARK    5  A    between atoms: C_12  and  C_13
REMARK    6  A    between atoms: C_12  and  C_14
REMARK    7  A    between atoms: C_12  and  C_15
REMARK    8  A    between atoms: N_17  and  C_18
REMARK    9  A    between atoms: C_18  and  C_19
REMARK   10  A    between atoms: C_18  and  C_20
REMARK   11  A    between atoms: C_23  and  C_24
REMARK   12  A    between atoms: N_26  and  C_27
REMARK   13  A    between atoms: C_27  and  C_28
REMARK   14  A    between atoms: C_28  and  C_29
REMARK   15  A    between atoms: C_29  and  O_31
REMARK                            x       y       z     vdW  Elec       q    Type
REMARK                         _______ _______ _______ _____ _____    ______ ____
ROOT
ATOM      1  C   UNL     1      -0.246  12.218  18.502  0.00  0.00    +0.000 A 
ATOM      2  C   UNL     1      -1.391  12.218  17.722  0.00  0.00    +0.000 A 
ATOM      3  C   UNL     1      -1.977  10.945  17.848  0.00  0.00    +0.000 A 
ATOM      4  N   UNL     1      -1.225  10.157  18.618  0.00  0.00    +0.000 NA
ATOM      5  N   UNL     1      -0.188  10.936  19.029  0.00  0.00    +0.000 N 
ENDROOT
BRANCH   1  11
ATOM      6  C   UNL     1       4.453  16.687  19.228  0.00  0.00    +0.000 A 
ATOM      7  C   UNL     1       4.942  15.637  18.452  0.00  0.00    +0.000 A 
ATOM      8  C   UNL     1       4.105  14.573  18.103  0.00  0.00    +0.000 A 
ATOM      9  C   UNL     1       2.776  14.534  18.546  0.00  0.00    +0.000 A 
ATOM     10  C   UNL     1       1.936  13.452  18.234  0.00  0.00    +0.000 A 
ATOM     11  C   UNL     1       0.643  13.359  18.754  0.00  0.00    +0.000 A 
ATOM     12  C   UNL     1       0.166  14.433  19.524  0.00  0.00    +0.000 A 
ATOM     13  C   UNL     1       0.964  15.545  19.794  0.00  0.00    +0.000 A 
ATOM     14  C   UNL     1       2.281  15.595  19.331  0.00  0.00    +0.000 A 
ATOM     15  C   UNL     1       3.121  16.670  19.647  0.00  0.00    +0.000 A 
BRANCH   6  17
ATOM     16  C   UNL     1       5.419  17.866  21.046  0.00  0.00    +0.000 C 
ATOM     17  O   UNL     1       5.166  17.774  19.651  0.00  0.00    +0.000 OA
ENDBRANCH   6  17
ENDBRANCH   1  11
BRANCH   3  18
ATOM     18  C   UNL     1      -3.272  10.468  17.219  0.00  0.00    +0.000 C 
ATOM     19  C   UNL     1      -3.811   9.259  18.010  0.00  0.00    +0.000 C 
ATOM     20  C   UNL     1      -4.354  11.566  17.210  0.00  0.00    +0.000 C 
ATOM     21  C   UNL     1      -3.026  10.035  15.758  0.00  0.00    +0.000 C 
ENDBRANCH   3  18
BRANCH   5  22
ATOM     22  C   UNL     1       0.765  10.361  20.000  0.00  0.00    +0.000 C 
ATOM     23  C   UNL     1       0.111  10.064  21.360  0.00  0.00    +0.000 C 
BRANCH  22  24
ATOM     24  C   UNL     1       1.473   9.103  19.488  0.00  0.00    +0.000 A 
ATOM     25  C   UNL     1       2.037   9.102  18.199  0.00  0.00    +0.000 A 
ATOM     26  C   UNL     1       2.745   7.990  17.723  0.00  0.00    +0.000 A 
ATOM     27  C   UNL     1       2.912   6.850  18.520  0.00  0.00    +0.000 A 
ATOM     28  C   UNL     1       2.328   6.833  19.792  0.00  0.00    +0.000 A 
ATOM     29  C   UNL     1       1.629   7.950  20.271  0.00  0.00    +0.000 A 
BRANCH  27  30
ATOM     30  C   UNL     1       3.720   5.713  17.970  0.00  0.00    +0.000 C 
ATOM     31  O   UNL     1       4.915   5.862  17.728  0.00  0.00    +0.000 OA
ATOM     32  N   UNL     1       3.081   4.505  17.790  0.00  0.00    +0.000 N 
ATOM     33  H   UNL     1       2.151   4.353  18.162  0.00  0.00    +0.000 HD
BRANCH  32  34
ATOM     34  C   UNL     1       3.775   3.304  17.362  0.00  0.00    +0.000 C 
BRANCH  34  35
ATOM     35  C   UNL     1       3.488   2.117  18.275  0.00  0.00    +0.000 C 
BRANCH  35  36
ATOM     36  C   UNL     1       3.872   2.415  19.705  0.00  0.00    +0.000 C 
ATOM     37  O   UNL     1       3.172   2.997  20.516  0.00  0.00    +0.000 OA
BRANCH  36  38
ATOM     38  O   UNL     1       5.108   1.963  20.015  0.00  0.00    +0.000 OA
ATOM     39  H   UNL     1       5.780   2.147  19.331  0.00  0.00    +0.000 HD
ENDBRANCH  36  38
ENDBRANCH  35  36
ENDBRANCH  34  35
ENDBRANCH  32  34
ENDBRANCH  27  30
ENDBRANCH  22  24
ENDBRANCH   5  22
TORSDOF 10
ENDMDL
MODEL 2
REMARK VINA RESULT:      -8.4      1.509      2.138
REMARK  Name = 
REMARK  15 active torsions:
REMARK  status: ('A' for Active; 'I' for Inactive)
REMARK    1  A    between atoms: C_1  and  O_2
REMARK    2  A    between atoms: O_2  and  C_3
REMARK    3  A    between atoms: C_8  and  C_9
REMARK    4  A    between atoms: C_11  and  C_12
REMARK    5  A    between atoms: C_12  and  C_13
REMARK    6  A    between atoms: C_12  and  C_14
REMARK    7  A    between atoms: C_12  and  C_15
REMARK    8  A    between atoms: N_17  and  C_18
REMARK    9  A    between atoms: C_18  and  C_19
REMARK   10  A    between atoms: C_18  and  C_20
REMARK   11  A    between atoms: C_23  and  C_24
REMARK   12  A    between atoms: N_26  and  C_27
REMARK   13  A    between atoms: C_27  and  C_28
REMARK   14  A    between atoms: C_28  and  C_29
REMARK   15  A    between atoms: C_29  and  O_31
REMARK                            x       y       z     vdW  Elec       q    Type
REMARK                         _______ _______ _______ _____ _____    ______ ____
ROOT
ATOM      1  C   UNL     1      -0.195  12.407  18.496  0.00  0.00    +0.000 A 
ATOM      2  C   UNL     1      -1.417  12.451  17.844  0.00  0.00    +0.000 A 
ATOM      3  C   UNL     1      -2.068  11.230  18.104  0.00  0.00    +0.000 A 
ATOM      4  N   UNL     1      -1.287  10.429  18.831  0.00  0.00    +0.000 NA
ATOM      5  N   UNL     1      -0.163  11.152  19.084  0.00  0.00    +0.000 N 
ENDROOT
BRANCH   1  11
ATOM      6  C   UNL     1       4.883  16.500  18.702  0.00  0.00    +0.000 A 
ATOM      7  C   UNL     1       5.311  15.272  18.200  0.00  0.00    +0.000 A 
ATOM      8  C   UNL     1       4.393  14.236  18.003  0.00  0.00    +0.000 A 
ATOM      9  C   UNL     1       3.041  14.407  18.329  0.00  0.00    +0.000 A 
ATOM     10  C   UNL     1       2.116  13.361  18.171  0.00  0.00    +0.000 A 
ATOM     11  C   UNL     1       0.789  13.494  18.586  0.00  0.00    +0.000 A 
ATOM     12  C   UNL     1       0.375  14.743  19.078  0.00  0.00    +0.000 A 
ATOM     13  C   UNL     1       1.265  15.813  19.185  0.00  0.00    +0.000 A 
ATOM     14  C   UNL     1       2.607  15.648  18.837  0.00  0.00    +0.000 A 
ATOM     15  C   UNL     1       3.532  16.688  18.999  0.00  0.00    +0.000 A 
BRANCH   6  17
ATOM     16  C   UNL     1       6.423  17.559  20.163  0.00  0.00    +0.000 C 
ATOM     17  O   UNL     1       5.676  17.585  18.955  0.00  0.00    +0.000 OA
ENDBRANCH   6  17
ENDBRANCH   1  11
BRANCH   3  18
ATOM     18  C   UNL     1      -3.453  10.816  17.645  0.00  0.00    +0.000 C 
ATOM     19  C   UNL     1      -4.513  11.591  18.453  0.00  0.00    +0.000 C 
ATOM     20  C   UNL     1      -3.679  11.100  16.146  0.00  0.00    +0.000 C 
ATOM     21  C   UNL     1      -3.661   9.304  17.876  0.00  0.00    +0.000 C 
ENDBRANCH   3  18
BRANCH   5  22
ATOM     22  C   UNL     1       0.853  10.558  19.977  0.00  0.00    +0.000 C 
ATOM     23  C   UNL     1       0.302  10.272  21.385  0.00  0.00    +0.000 C 
BRANCH  22  24
ATOM     24  C   UNL     1       1.495   9.288  19.412  0.00  0.00    +0.000 A 
ATOM     25  C   UNL     1       1.974   9.284  18.089  0.00  0.00    +0.000 A 
ATOM     26  C   UNL     1       2.622   8.160  17.560  0.00  0.00    +0.000 A 
ATOM     27  C   UNL     1       2.812   7.009  18.337  0.00  0.00    +0.000 A 
ATOM     28  C   UNL     1       2.311   6.996  19.644  0.00  0.00    +0.000 A 
ATOM     29  C   UNL     1       1.673   8.125  20.176  0.00  0.00    +0.000 A 
BRANCH  27  30
ATOM     30  C   UNL     1       3.555   5.857  17.729  0.00  0.00    +0.000 C 
ATOM     31  O   UNL     1       3.113   4.714  17.827  0.00  0.00    +0.000 OA
ATOM     32  N   UNL     1       4.711   6.139  17.035  0.00  0.00    +0.000 N 
ATOM     33  H   UNL     1       4.960   7.096  16.814  0.00  0.00    +0.000 HD
BRANCH  32  34
ATOM     34  C   UNL     1       5.464   5.127  16.316  0.00  0.00    +0.000 C 
BRANCH  34  35
ATOM     35  C   UNL     1       6.929   5.091  16.737  0.00  0.00    +0.000 C 
BRANCH  35  36
ATOM     36  C   UNL     1       7.287   6.285  17.589  0.00  0.00    +0.000 C 
ATOM     37  O   UNL     1       7.396   6.276  18.804  0.00  0.00    +0.000 OA
BRANCH  36  38
ATOM     38  O   UNL     1       7.482   7.405  16.858  0.00  0.00    +0.000 OA
ATOM     39  H   UNL     1       7.155   7.340  15.940  0.00  0.00    +0.000 HD
ENDBRANCH  36  38
ENDBRANCH  35  36
ENDBRANCH  34  35
ENDBRANCH  32  34
ENDBRANCH  27  30
ENDBRANCH  22  24
ENDBRANCH   5  22
TORSDOF 10
ENDMDL
MODEL 3
REMARK VINA RESULT:      -8.3      1.664      2.508
REMARK  Name = 
REMARK  15 active torsions:
REMARK  status: ('A' for Active; 'I' for Inactive)
REMARK    1  A    between atoms: C_1  and  O_2
REMARK    2  A    between atoms: O_2  and  C_3
REMARK    3  A    between atoms: C_8  and  C_9
REMARK    4  A    between atoms: C_11  and  C_12
REMARK    5  A    between atoms: C_12  and  C_13
REMARK    6  A    between atoms: C_12  and  C_14
REMARK    7  A    between atoms: C_12  and  C_15
REMARK    8  A    between atoms: N_17  and  C_18
REMARK    9  A    between atoms: C_18  and  C_19
REMARK   10  A    between atoms: C_18  and  C_20
REMARK   11  A    between atoms: C_23  and  C_24
REMARK   12  A    between atoms: N_26  and  C_27
REMARK   13  A    between atoms: C_27  and  C_28
REMARK   14  A    between atoms: C_28  and  C_29
REMARK   15  A    between atoms: C_29  and  O_31
REMARK                            x       y       z     vdW  Elec       q    Type
REMARK                         _______ _______ _______ _____ _____    ______ ____
ROOT
ATOM      1  C   UNL     1       0.197  11.967  18.973  0.00  0.00    +0.000 A 
ATOM      2  C   UNL     1      -0.914  12.218  18.184  0.00  0.00    +0.000 A 
ATOM      3  C   UNL     1      -1.701  11.051  18.195  0.00  0.00    +0.000 A 
ATOM      4  N   UNL     1      -1.104  10.091  18.903  0.00  0.00    +0.000 NA
ATOM      5  N   UNL     1       0.034  10.654  19.390  0.00  0.00    +0.000 N 
ENDROOT
BRANCH   1  11
ATOM      6  C   UNL     1       5.350  15.905  19.690  0.00  0.00    +0.000 A 
ATOM      7  C   UNL     1       5.379  15.349  18.412  0.00  0.00    +0.000 A 
ATOM      8  C   UNL     1       4.345  14.509  17.989  0.00  0.00    +0.000 A 
ATOM      9  C   UNL     1       3.284  14.194  18.847  0.00  0.00    +0.000 A 
ATOM     10  C   UNL     1       2.258  13.320  18.447  0.00  0.00    +0.000 A 
ATOM     11  C   UNL     1       1.252  12.924  19.331  0.00  0.00    +0.000 A 
ATOM     12  C   UNL     1       1.235  13.505  20.610  0.00  0.00    +0.000 A 
ATOM     13  C   UNL     1       2.209  14.422  21.005  0.00  0.00    +0.000 A 
ATOM     14  C   UNL     1       3.254  14.754  20.140  0.00  0.00    +0.000 A 
ATOM     15  C   UNL     1       4.279  15.620  20.539  0.00  0.00    +0.000 A 
BRANCH   6  17
ATOM     16  C   UNL     1       7.653  16.429  19.913  0.00  0.00    +0.000 C 
ATOM     17  O   UNL     1       6.301  16.726  20.231  0.00  0.00    +0.000 OA
ENDBRANCH   6  17
ENDBRANCH   1  11
BRANCH   3  18
ATOM     18  C   UNL     1      -3.040  10.845  17.513  0.00  0.00    +0.000 C 
ATOM     19  C   UNL     1      -2.898  11.139  16.007  0.00  0.00    +0.000 C 
ATOM     20  C   UNL     1      -3.563   9.405  17.682  0.00  0.00    +0.000 C 
ATOM     21  C   UNL     1      -4.094  11.803  18.109  0.00  0.00    +0.000 C 
ENDBRANCH   3  18
BRANCH   5  22
ATOM     22  C   UNL     1       0.859   9.854  20.317  0.00  0.00    +0.000 C 
ATOM     23  C   UNL     1       0.067   9.383  21.549  0.00  0.00    +0.000 C 
BRANCH  22  24
ATOM     24  C   UNL     1       1.532   8.650  19.652  0.00  0.00    +0.000 A 
ATOM     25  C   UNL     1       1.714   7.464  20.388  0.00  0.00    +0.000 A 
ATOM     26  C   UNL     1       2.270   6.325  19.791  0.00  0.00    +0.000 A 
ATOM     27  C   UNL     1       2.658   6.335  18.444  0.00  0.00    +0.000 A 
ATOM     28  C   UNL     1       2.507   7.521  17.716  0.00  0.00    +0.000 A 
ATOM     29  C   UNL     1       1.941   8.657  18.311  0.00  0.00    +0.000 A 
BRANCH  27  30
ATOM     30  C   UNL     1       3.203   5.069  17.853  0.00  0.00    +0.000 C 
ATOM     31  O   UNL     1       2.490   4.073  17.758  0.00  0.00    +0.000 OA
ATOM     32  N   UNL     1       4.502   5.087  17.395  0.00  0.00    +0.000 N 
ATOM     33  H   UNL     1       5.010   5.960  17.318  0.00  0.00    +0.000 HD
BRANCH  32  34
ATOM     34  C   UNL     1       5.111   3.960  16.712  0.00  0.00    +0.000 C 
BRANCH  34  35
ATOM     35  C   UNL     1       5.653   4.343  15.339  0.00  0.00    +0.000 C 
BRANCH  35  36
ATOM     36  C   UNL     1       7.067   4.865  15.432  0.00  0.00    +0.000 C 
ATOM     37  O   UNL     1       7.646   5.491  14.560  0.00  0.00    +0.000 OA
BRANCH  36  38
ATOM     38  O   UNL     1       7.654   4.566  16.612  0.00  0.00    +0.000 OA
ATOM     39  H   UNL     1       8.627   4.649  16.603  0.00  0.00    +0.000 HD
ENDBRANCH  36  38
ENDBRANCH  35  36
ENDBRANCH  34  35
ENDBRANCH  32  34
ENDBRANCH  27  30
ENDBRANCH  22  24
ENDBRANCH   5  22
TORSDOF 10
ENDMDL
MODEL 4
REMARK VINA RESULT:      -8.3      0.967      1.609
REMARK  Name = 
REMARK  15 active torsions:
REMARK  status: ('A' for Active; 'I' for Inactive)
REMARK    1  A    between atoms: C_1  and  O_2
REMARK    2  A    between atoms: O_2  and  C_3
REMARK    3  A    between atoms: C_8  and  C_9
REMARK    4  A    between atoms: C_11  and  C_12
REMARK    5  A    between atoms: C_12  and  C_13
REMARK    6  A    between atoms: C_12  and  C_14
REMARK    7  A    between atoms: C_12  and  C_15
REMARK    8  A    between atoms: N_17  and  C_18
REMARK    9  A    between atoms: C_18  and  C_19
REMARK   10  A    between atoms: C_18  and  C_20
REMARK   11  A    between atoms: C_23  and  C_24
REMARK   12  A    between atoms: N_26  and  C_27
REMARK   13  A    between atoms: C_27  and  C_28
REMARK   14  A    between atoms: C_28  and  C_29
REMARK   15  A    between atoms: C_29  and  O_31
REMARK                            x       y       z     vdW  Elec       q    Type
REMARK                         _______ _______ _______ _____ _____    ______ ____
ROOT
ATOM      1  C   UNL     1      -0.086  12.173  18.627  0.00  0.00    +0.000 A 
ATOM      2  C   UNL     1      -1.190  12.291  17.798  0.00  0.00    +0.000 A 
ATOM      3  C   UNL     1      -1.965  11.130  17.974  0.00  0.00    +0.000 A 
ATOM      4  N   UNL     1      -1.368  10.292  18.823  0.00  0.00    +0.000 NA
ATOM      5  N   UNL     1      -0.241  10.934  19.232  0.00  0.00    +0.000 N 
ENDROOT
BRANCH   1  11
ATOM      6  C   UNL     1       3.781  17.242  20.017  0.00  0.00    +0.000 A 
ATOM      7  C   UNL     1       2.540  17.439  20.622  0.00  0.00    +0.000 A 
ATOM      8  C   UNL     1       1.547  16.460  20.522  0.00  0.00    +0.000 A 
ATOM      9  C   UNL     1       1.774  15.284  19.794  0.00  0.00    +0.000 A 
ATOM     10  C   UNL     1       0.770  14.310  19.654  0.00  0.00    +0.000 A 
ATOM     11  C   UNL     1       0.956  13.184  18.850  0.00  0.00    +0.000 A 
ATOM     12  C   UNL     1       2.217  12.998  18.259  0.00  0.00    +0.000 A 
ATOM     13  C   UNL     1       3.246  13.923  18.437  0.00  0.00    +0.000 A 
ATOM     14  C   UNL     1       3.027  15.084  19.182  0.00  0.00    +0.000 A 
ATOM     15  C   UNL     1       4.024  16.058  19.318  0.00  0.00    +0.000 A 
BRANCH   6  17
ATOM     16  C   UNL     1       6.119  17.575  19.799  0.00  0.00    +0.000 C 
ATOM     17  O   UNL     1       4.828  18.121  20.026  0.00  0.00    +0.000 OA
ENDBRANCH   6  17
ENDBRANCH   1  11
BRANCH   3  18
ATOM     18  C   UNL     1      -3.295  10.810  17.317  0.00  0.00    +0.000 C 
ATOM     19  C   UNL     1      -3.721   9.378  17.696  0.00  0.00    +0.000 C 
ATOM     20  C   UNL     1      -4.409  11.782  17.755  0.00  0.00    +0.000 C 
ATOM     21  C   UNL     1      -3.165  10.900  15.782  0.00  0.00    +0.000 C 
ENDBRANCH   3  18
BRANCH   5  22
ATOM     22  C   UNL     1       0.581  10.289  20.277  0.00  0.00    +0.000 C 
ATOM     23  C   UNL     1      -0.220   9.999  21.558  0.00  0.00    +0.000 C 
BRANCH  22  24
ATOM     24  C   UNL     1       1.271   9.006  19.805  0.00  0.00    +0.000 A 
ATOM     25  C   UNL     1       1.804   8.945  18.504  0.00  0.00    +0.000 A 
ATOM     26  C   UNL     1       2.496   7.810  18.061  0.00  0.00    +0.000 A 
ATOM     27  C   UNL     1       2.677   6.705  18.904  0.00  0.00    +0.000 A 
ATOM     28  C   UNL     1       2.123   6.748  20.189  0.00  0.00    +0.000 A 
ATOM     29  C   UNL     1       1.440   7.888  20.634  0.00  0.00    +0.000 A 
BRANCH  27  30
ATOM     30  C   UNL     1       3.467   5.540  18.387  0.00  0.00    +0.000 C 
ATOM     31  O   UNL     1       4.695   5.559  18.423  0.00  0.00    +0.000 OA
ATOM     32  N   UNL     1       2.764   4.453  17.914  0.00  0.00    +0.000 N 
ATOM     33  H   UNL     1       1.764   4.382  18.058  0.00  0.00    +0.000 HD
BRANCH  32  34
ATOM     34  C   UNL     1       3.410   3.227  17.482  0.00  0.00    +0.000 C 
BRANCH  34  35
ATOM     35  C   UNL     1       2.610   1.987  17.867  0.00  0.00    +0.000 C 
BRANCH  35  36
ATOM     36  C   UNL     1       1.475   2.333  18.802  0.00  0.00    +0.000 C 
ATOM     37  O   UNL     1       0.297   2.388  18.490  0.00  0.00    +0.000 OA
BRANCH  36  38
ATOM     38  O   UNL     1       1.898   2.586  20.061  0.00  0.00    +0.000 OA
ATOM     39  H   UNL     1       2.870   2.620  20.152  0.00  0.00    +0.000 HD
ENDBRANCH  36  38
ENDBRANCH  35  36
ENDBRANCH  34  35
ENDBRANCH  32  34
ENDBRANCH  27  30
ENDBRANCH  22  24
ENDBRANCH   5  22
TORSDOF 10
ENDMDL
MODEL 5
REMARK VINA RESULT:      -8.3      1.308      1.932
REMARK  Name = 
REMARK  15 active torsions:
REMARK  status: ('A' for Active; 'I' for Inactive)
REMARK    1  A    between atoms: C_1  and  O_2
REMARK    2  A    between atoms: O_2  and  C_3
REMARK    3  A    between atoms: C_8  and  C_9
REMARK    4  A    between atoms: C_11  and  C_12
REMARK    5  A    between atoms: C_12  and  C_13
REMARK    6  A    between atoms: C_12  and  C_14
REMARK    7  A    between atoms: C_12  and  C_15
REMARK    8  A    between atoms: N_17  and  C_18
REMARK    9  A    between atoms: C_18  and  C_19
REMARK   10  A    between atoms: C_18  and  C_20
REMARK   11  A    between atoms: C_23  and  C_24
REMARK   12  A    between atoms: N_26  and  C_27
REMARK   13  A    between atoms: C_27  and  C_28
REMARK   14  A    between atoms: C_28  and  C_29
REMARK   15  A    between atoms: C_29  and  O_31
REMARK                            x       y       z     vdW  Elec       q    Type
REMARK                         _______ _______ _______ _____ _____    ______ ____
ROOT
ATOM      1  C   UNL     1      -0.114  12.157  18.585  0.00  0.00    +0.000 A 
ATOM      2  C   UNL     1      -1.227  12.232  17.764  0.00  0.00    +0.000 A 
ATOM      3  C   UNL     1      -1.873  10.983  17.829  0.00  0.00    +0.000 A 
ATOM      4  N   UNL     1      -1.185  10.140  18.601  0.00  0.00    +0.000 NA
ATOM      5  N   UNL     1      -0.132  10.859  19.073  0.00  0.00    +0.000 N 
ENDROOT
BRANCH   1  11
ATOM      6  C   UNL     1       4.695  16.487  19.430  0.00  0.00    +0.000 A 
ATOM      7  C   UNL     1       5.070  15.580  18.440  0.00  0.00    +0.000 A 
ATOM      8  C   UNL     1       4.183  14.580  18.031  0.00  0.00    +0.000 A 
ATOM      9  C   UNL     1       2.919  14.460  18.624  0.00  0.00    +0.000 A 
ATOM     10  C   UNL     1       2.033  13.435  18.249  0.00  0.00    +0.000 A 
ATOM     11  C   UNL     1       0.814  13.250  18.904  0.00  0.00    +0.000 A 
ATOM     12  C   UNL     1       0.449  14.182  19.890  0.00  0.00    +0.000 A 
ATOM     13  C   UNL     1       1.289  15.242  20.234  0.00  0.00    +0.000 A 
ATOM     14  C   UNL     1       2.539  15.376  19.625  0.00  0.00    +0.000 A 
ATOM     15  C   UNL     1       3.425  16.392  20.003  0.00  0.00    +0.000 A 
BRANCH   6  17
ATOM     16  C   UNL     1       4.905  18.271  20.979  0.00  0.00    +0.000 C 
ATOM     17  O   UNL     1       5.469  17.497  19.930  0.00  0.00    +0.000 OA
ENDBRANCH   6  17
ENDBRANCH   1  11
BRANCH   3  18
ATOM     18  C   UNL     1      -3.163  10.583  17.138  0.00  0.00    +0.000 C 
ATOM     19  C   UNL     1      -3.737   9.323  17.816  0.00  0.00    +0.000 C 
ATOM     20  C   UNL     1      -4.226  11.698  17.199  0.00  0.00    +0.000 C 
ATOM     21  C   UNL     1      -2.895  10.267  15.651  0.00  0.00    +0.000 C 
ENDBRANCH   3  18
BRANCH   5  22
ATOM     22  C   UNL     1       0.758  10.214  20.060  0.00  0.00    +0.000 C 
ATOM     23  C   UNL     1       0.010   9.786  21.334  0.00  0.00    +0.000 C 
BRANCH  22  24
ATOM     24  C   UNL     1       1.530   9.018  19.494  0.00  0.00    +0.000 A 
ATOM     25  C   UNL     1       1.674   7.855  20.275  0.00  0.00    +0.000 A 
ATOM     26  C   UNL     1       2.320   6.721  19.765  0.00  0.00    +0.000 A 
ATOM     27  C   UNL     1       2.838   6.714  18.463  0.00  0.00    +0.000 A 
ATOM     28  C   UNL     1       2.724   7.877  17.693  0.00  0.00    +0.000 A 
ATOM     29  C   UNL     1       2.068   9.008  18.200  0.00  0.00    +0.000 A 
BRANCH  27  30
ATOM     30  C   UNL     1       3.476   5.453  17.960  0.00  0.00    +0.000 C 
ATOM     31  O   UNL     1       3.045   4.358  18.313  0.00  0.00    +0.000 OA
ATOM     32  N   UNL     1       4.522   5.578  17.072  0.00  0.00    +0.000 N 
ATOM     33  H   UNL     1       4.742   6.476  16.657  0.00  0.00    +0.000 HD
BRANCH  32  34
ATOM     34  C   UNL     1       5.154   4.437  16.437  0.00  0.00    +0.000 C 
BRANCH  34  35
ATOM     35  C   UNL     1       6.621   4.698  16.109  0.00  0.00    +0.000 C 
BRANCH  35  36
ATOM     36  C   UNL     1       7.416   5.008  17.355  0.00  0.00    +0.000 C 
ATOM     37  O   UNL     1       7.329   6.033  18.011  0.00  0.00    +0.000 OA
BRANCH  36  38
ATOM     38  O   UNL     1       8.265   4.011  17.690  0.00  0.00    +0.000 OA
ATOM     39  H   UNL     1       8.065   3.593  18.550  0.00  0.00    +0.000 HD
ENDBRANCH  36  38
ENDBRANCH  35  36
ENDBRANCH  34  35
ENDBRANCH  32  34
ENDBRANCH  27  30
ENDBRANCH  22  24
ENDBRANCH   5  22
TORSDOF 10
ENDMDL
MODEL 6
REMARK VINA RESULT:      -8.3      1.220      1.977
REMARK  Name = 
REMARK  15 active torsions:
REMARK  status: ('A' for Active; 'I' for Inactive)
REMARK    1  A    between atoms: C_1  and  O_2
REMARK    2  A    between atoms: O_2  and  C_3
REMARK    3  A    between atoms: C_8  and  C_9
REMARK    4  A    between atoms: C_11  and  C_12
REMARK    5  A    between atoms: C_12  and  C_13
REMARK    6  A    between atoms: C_12  and  C_14
REMARK    7  A    between atoms: C_12  and  C_15
REMARK    8  A    between atoms: N_17  and  C_18
REMARK    9  A    between atoms: C_18  and  C_19
REMARK   10  A    between atoms: C_18  and  C_20
REMARK   11  A    between atoms: C_23  and  C_24
REMARK   12  A    between atoms: N_26  and  C_27
REMARK   13  A    between atoms: C_27  and  C_28
REMARK   14  A    between atoms: C_28  and  C_29
REMARK   15  A    between atoms: C_29  and  O_31
REMARK                            x       y       z     vdW  Elec       q    Type
REMARK                         _______ _______ _______ _____ _____    ______ ____
ROOT
ATOM      1  C   UNL     1      -0.134  12.330  18.530  0.00  0.00    +0.000 A 
ATOM      2  C   UNL     1      -1.266  12.326  17.731  0.00  0.00    +0.000 A 
ATOM      3  C   UNL     1      -1.855  11.055  17.854  0.00  0.00    +0.000 A 
ATOM      4  N   UNL     1      -1.116  10.270  18.640  0.00  0.00    +0.000 NA
ATOM      5  N   UNL     1      -0.087  11.051  19.065  0.00  0.00    +0.000 N 
ENDROOT
BRANCH   1  11
ATOM      6  C   UNL     1       4.533  16.836  19.227  0.00  0.00    +0.000 A 
ATOM      7  C   UNL     1       4.993  15.836  18.372  0.00  0.00    +0.000 A 
ATOM      8  C   UNL     1       4.153  14.777  18.015  0.00  0.00    +0.000 A 
ATOM      9  C   UNL     1       2.852  14.693  18.528  0.00  0.00    +0.000 A 
ATOM     10  C   UNL     1       2.011  13.613  18.207  0.00  0.00    +0.000 A 
ATOM     11  C   UNL     1       0.751  13.472  18.792  0.00  0.00    +0.000 A 
ATOM     12  C   UNL     1       0.302  14.497  19.641  0.00  0.00    +0.000 A 
ATOM     13  C   UNL     1       1.097  15.608  19.924  0.00  0.00    +0.000 A 
ATOM     14  C   UNL     1       2.386  15.703  19.393  0.00  0.00    +0.000 A 
ATOM     15  C   UNL     1       3.227  16.775  19.717  0.00  0.00    +0.000 A 
BRANCH   6  17
ATOM     16  C   UNL     1       4.959  18.385  20.972  0.00  0.00    +0.000 C 
ATOM     17  O   UNL     1       5.253  17.913  19.665  0.00  0.00    +0.000 OA
ENDBRANCH   6  17
ENDBRANCH   1  11
BRANCH   3  18
ATOM     18  C   UNL     1      -3.140  10.575  17.204  0.00  0.00    +0.000 C 
ATOM     19  C   UNL     1      -3.682   9.359  17.981  0.00  0.00    +0.000 C 
ATOM     20  C   UNL     1      -4.227  11.668  17.188  0.00  0.00    +0.000 C 
ATOM     21  C   UNL     1      -2.873  10.152  15.744  0.00  0.00    +0.000 C 
ENDBRANCH   3  18
BRANCH   5  22
ATOM     22  C   UNL     1       0.850  10.480  20.055  0.00  0.00    +0.000 C 
ATOM     23  C   UNL     1       0.241  10.409  21.466  0.00  0.00    +0.000 C 
BRANCH  22  24
ATOM     24  C   UNL     1       1.389   9.102  19.660  0.00  0.00    +0.000 A 
ATOM     25  C   UNL     1       1.836   8.884  18.344  0.00  0.00    +0.000 A 
ATOM     26  C   UNL     1       2.392   7.654  17.966  0.00  0.00    +0.000 A 
ATOM     27  C   UNL     1       2.520   6.609  18.891  0.00  0.00    +0.000 A 
ATOM     28  C   UNL     1       2.050   6.810  20.194  0.00  0.00    +0.000 A 
ATOM     29  C   UNL     1       1.504   8.044  20.574  0.00  0.00    +0.000 A 
BRANCH  27  30
ATOM     30  C   UNL     1       3.166   5.335  18.437  0.00  0.00    +0.000 C 
ATOM     31  O   UNL     1       2.500   4.310  18.319  0.00  0.00    +0.000 OA
ATOM     32  N   UNL     1       4.508   5.377  18.126  0.00  0.00    +0.000 N 
ATOM     33  H   UNL     1       4.995   6.263  18.057  0.00  0.00    +0.000 HD
BRANCH  32  34
ATOM     34  C   UNL     1       5.224   4.239  17.579  0.00  0.00    +0.000 C 
BRANCH  34  35
ATOM     35  C   UNL     1       5.427   4.355  16.073  0.00  0.00    +0.000 C 
BRANCH  35  36
ATOM     36  C   UNL     1       5.945   5.721  15.690  0.00  0.00    +0.000 C 
ATOM     37  O   UNL     1       5.251   6.682  15.402  0.00  0.00    +0.000 OA
BRANCH  36  38
ATOM     38  O   UNL     1       7.295   5.784  15.697  0.00  0.00    +0.000 OA
ATOM     39  H   UNL     1       7.649   6.654  15.964  0.00  0.00    +0.000 HD
ENDBRANCH  36  38
ENDBRANCH  35  36
ENDBRANCH  34  35
ENDBRANCH  32  34
ENDBRANCH  27  30
ENDBRANCH  22  24
ENDBRANCH   5  22
TORSDOF 10
ENDMDL
MODEL 7
REMARK VINA RESULT:      -8.3      1.746      2.297
REMARK  Name = 
REMARK  15 active torsions:
REMARK  status: ('A' for Active; 'I' for Inactive)
REMARK    1  A    between atoms: C_1  and  O_2
REMARK    2  A    between atoms: O_2  and  C_3
REMARK    3  A    between atoms: C_8  and  C_9
REMARK    4  A    between atoms: C_11  and  C_12
REMARK    5  A    between atoms: C_12  and  C_13
REMARK    6  A    between atoms: C_12  and  C_14
REMARK    7  A    between atoms: C_12  and  C_15
REMARK    8  A    between atoms: N_17  and  C_18
REMARK    9  A    between atoms: C_18  and  C_19
REMARK   10  A    between atoms: C_18  and  C_20
REMARK   11  A    between atoms: C_23  and  C_24
REMARK   12  A    between atoms: N_26  and  C_27
REMARK   13  A    between atoms: C_27  and  C_28
REMARK   14  A    between atoms: C_28  and  C_29
REMARK   15  A    between atoms: C_29  and  O_31
REMARK                            x       y       z     vdW  Elec       q    Type
REMARK                         _______ _______ _______ _____ _____    ______ ____
ROOT
ATOM      1  C   UNL     1       0.130  11.882  18.929  0.00  0.00    +0.000 A 
ATOM      2  C   UNL     1      -0.932  12.155  18.082  0.00  0.00    +0.000 A 
ATOM      3  C   UNL     1      -1.736  11.001  18.041  0.00  0.00    +0.000 A 
ATOM      4  N   UNL     1      -1.193  10.026  18.773  0.00  0.00    +0.000 NA
ATOM      5  N   UNL     1      -0.075  10.568  19.326  0.00  0.00    +0.000 N 
ENDROOT
BRANCH   1  11
ATOM      6  C   UNL     1       5.270  15.773  19.932  0.00  0.00    +0.000 A 
ATOM      7  C   UNL     1       5.326  15.275  18.631  0.00  0.00    +0.000 A 
ATOM      8  C   UNL     1       4.301  14.457  18.149  0.00  0.00    +0.000 A 
ATOM      9  C   UNL     1       3.221  14.105  18.969  0.00  0.00    +0.000 A 
ATOM     10  C   UNL     1       2.203  13.252  18.509  0.00  0.00    +0.000 A 
ATOM     11  C   UNL     1       1.178  12.819  19.352  0.00  0.00    +0.000 A 
ATOM     12  C   UNL     1       1.134  13.342  20.655  0.00  0.00    +0.000 A 
ATOM     13  C   UNL     1       2.100  14.239  21.112  0.00  0.00    +0.000 A 
ATOM     14  C   UNL     1       3.164  14.607  20.285  0.00  0.00    +0.000 A 
ATOM     15  C   UNL     1       4.181  15.453  20.745  0.00  0.00    +0.000 A 
BRANCH   6  17
ATOM     16  C   UNL     1       7.546  16.083  20.529  0.00  0.00    +0.000 C 
ATOM     17  O   UNL     1       6.210  16.568  20.529  0.00  0.00    +0.000 OA
ENDBRANCH   6  17
ENDBRANCH   1  11
BRANCH   3  18
ATOM     18  C   UNL     1      -3.038  10.820  17.285  0.00  0.00    +0.000 C 
ATOM     19  C   UNL     1      -4.043  11.900  17.731  0.00  0.00    +0.000 C 
ATOM     20  C   UNL     1      -2.846  10.933  15.759  0.00  0.00    +0.000 C 
ATOM     21  C   UNL     1      -3.639   9.430  17.584  0.00  0.00    +0.000 C 
ENDBRANCH   3  18
BRANCH   5  22
ATOM     22  C   UNL     1       0.684   9.749  20.292  0.00  0.00    +0.000 C 
ATOM     23  C   UNL     1      -0.231   9.010  21.283  0.00  0.00    +0.000 C 
BRANCH  22  24
ATOM     24  C   UNL     1       1.633   8.746  19.628  0.00  0.00    +0.000 A 
ATOM     25  C   UNL     1       1.910   7.525  20.270  0.00  0.00    +0.000 A 
ATOM     26  C   UNL     1       2.724   6.560  19.663  0.00  0.00    +0.000 A 
ATOM     27  C   UNL     1       3.283   6.785  18.397  0.00  0.00    +0.000 A 
ATOM     28  C   UNL     1       3.035   8.010  17.767  0.00  0.00    +0.000 A 
ATOM     29  C   UNL     1       2.212   8.970  18.370  0.00  0.00    +0.000 A 
BRANCH  27  30
ATOM     30  C   UNL     1       4.106   5.693  17.781  0.00  0.00    +0.000 C 
ATOM     31  O   UNL     1       3.567   4.673  17.361  0.00  0.00    +0.000 OA
ATOM     32  N   UNL     1       5.464   5.902  17.675  0.00  0.00    +0.000 N 
ATOM     33  H   UNL     1       5.862   6.815  17.859  0.00  0.00    +0.000 HD
BRANCH  32  34
ATOM     34  C   UNL     1       6.353   4.968  17.008  0.00  0.00    +0.000 C 
BRANCH  34  35
ATOM     35  C   UNL     1       7.580   4.637  17.851  0.00  0.00    +0.000 C 
BRANCH  35  36
ATOM     36  C   UNL     1       7.640   5.492  19.094  0.00  0.00    +0.000 C 
ATOM     37  O   UNL     1       7.144   5.207  20.171  0.00  0.00    +0.000 OA
BRANCH  36  38
ATOM     38  O   UNL     1       8.319   6.645  18.898  0.00  0.00    +0.000 OA
ATOM     39  H   UNL     1       9.241   6.621  19.218  0.00  0.00    +0.000 HD
ENDBRANCH  36  38
ENDBRANCH  35  36
ENDBRANCH  34  35
ENDBRANCH  32  34
ENDBRANCH  27  30
ENDBRANCH  22  24
ENDBRANCH   5  22
TORSDOF 10
ENDMDL
MODEL 8
REMARK VINA RESULT:      -8.2      1.171      2.066
REMARK  Name = 
REMARK  15 active torsions:
REMARK  status: ('A' for Active; 'I' for Inactive)
REMARK    1  A    between atoms: C_1  and  O_2
REMARK    2  A    between atoms: O_2  and  C_3
REMARK    3  A    between atoms: C_8  and  C_9
REMARK    4  A    between atoms: C_11  and  C_12
REMARK    5  A    between atoms: C_12  and  C_13
REMARK    6  A    between atoms: C_12  and  C_14
REMARK    7  A    between atoms: C_12  and  C_15
REMARK    8  A    between atoms: N_17  and  C_18
REMARK    9  A    between atoms: C_18  and  C_19
REMARK   10  A    between atoms: C_18  and  C_20
REMARK   11  A    between atoms: C_23  and  C_24
REMARK   12  A    between atoms: N_26  and  C_27
REMARK   13  A    between atoms: C_27  and  C_28
REMARK   14  A    between atoms: C_28  and  C_29
REMARK   15  A    between atoms: C_29  and  O_31
REMARK                            x       y       z     vdW  Elec       q    Type
REMARK                         _______ _______ _______ _____ _____    ______ ____
ROOT
ATOM      1  C   UNL     1      -0.254  12.346  18.472  0.00  0.00    +0.000 A 
ATOM      2  C   UNL     1      -1.377  12.333  17.660  0.00  0.00    +0.000 A 
ATOM      3  C   UNL     1      -2.069  11.138  17.932  0.00  0.00    +0.000 A 
ATOM      4  N   UNL     1      -1.402  10.403  18.824  0.00  0.00    +0.000 NA
ATOM      5  N   UNL     1      -0.315  11.146  19.164  0.00  0.00    +0.000 N 
ENDROOT
BRANCH   1  11
ATOM      6  C   UNL     1       4.788  16.473  18.832  0.00  0.00    +0.000 A 
ATOM      7  C   UNL     1       5.227  15.266  18.290  0.00  0.00    +0.000 A 
ATOM      8  C   UNL     1       4.319  14.230  18.055  0.00  0.00    +0.000 A 
ATOM      9  C   UNL     1       2.965  14.379  18.383  0.00  0.00    +0.000 A 
ATOM     10  C   UNL     1       2.049  13.331  18.187  0.00  0.00    +0.000 A 
ATOM     11  C   UNL     1       0.720  13.437  18.603  0.00  0.00    +0.000 A 
ATOM     12  C   UNL     1       0.295  14.665  19.136  0.00  0.00    +0.000 A 
ATOM     13  C   UNL     1       1.174  15.739  19.281  0.00  0.00    +0.000 A 
ATOM     14  C   UNL     1       2.519  15.598  18.932  0.00  0.00    +0.000 A 
ATOM     15  C   UNL     1       3.434  16.639  19.132  0.00  0.00    +0.000 A 
BRANCH   6  17
ATOM     16  C   UNL     1       6.966  17.410  18.900  0.00  0.00    +0.000 C 
ATOM     17  O   UNL     1       5.571  17.556  19.124  0.00  0.00    +0.000 OA
ENDBRANCH   6  17
ENDBRANCH   1  11
BRANCH   3  18
ATOM     18  C   UNL     1      -3.384  10.685  17.326  0.00  0.00    +0.000 C 
ATOM     19  C   UNL     1      -3.280  10.725  15.789  0.00  0.00    +0.000 C 
ATOM     20  C   UNL     1      -3.758   9.252  17.753  0.00  0.00    +0.000 C 
ATOM     21  C   UNL     1      -4.526  11.623  17.771  0.00  0.00    +0.000 C 
ENDBRANCH   3  18
BRANCH   5  22
ATOM     22  C   UNL     1       0.565  10.632  20.234  0.00  0.00    +0.000 C 
ATOM     23  C   UNL     1      -0.158  10.526  21.588  0.00  0.00    +0.000 C 
BRANCH  22  24
ATOM     24  C   UNL     1       1.216   9.288  19.895  0.00  0.00    +0.000 A 
ATOM     25  C   UNL     1       1.813   9.106  18.634  0.00  0.00    +0.000 A 
ATOM     26  C   UNL     1       2.471   7.911  18.314  0.00  0.00    +0.000 A 
ATOM     27  C   UNL     1       2.554   6.865  19.244  0.00  0.00    +0.000 A 
ATOM     28  C   UNL     1       1.936   7.029  20.489  0.00  0.00    +0.000 A 
ATOM     29  C   UNL     1       1.288   8.229  20.812  0.00  0.00    +0.000 A 
BRANCH  27  30
ATOM     30  C   UNL     1       3.313   5.631  18.857  0.00  0.00    +0.000 C 
ATOM     31  O   UNL     1       3.790   4.901  19.722  0.00  0.00    +0.000 OA
ATOM     32  N   UNL     1       3.414   5.340  17.514  0.00  0.00    +0.000 N 
ATOM     33  H   UNL     1       2.865   5.850  16.832  0.00  0.00    +0.000 HD
BRANCH  32  34
ATOM     34  C   UNL     1       4.033   4.124  17.018  0.00  0.00    +0.000 C 
BRANCH  34  35
ATOM     35  C   UNL     1       5.460   4.359  16.535  0.00  0.00    +0.000 C 
BRANCH  35  36
ATOM     36  C   UNL     1       5.696   5.814  16.203  0.00  0.00    +0.000 C 
ATOM     37  O   UNL     1       5.318   6.375  15.189  0.00  0.00    +0.000 OA
BRANCH  36  38
ATOM     38  O   UNL     1       6.391   6.459  17.166  0.00  0.00    +0.000 OA
ATOM     39  H   UNL     1       5.930   6.502  18.025  0.00  0.00    +0.000 HD
ENDBRANCH  36  38
ENDBRANCH  35  36
ENDBRANCH  34  35
ENDBRANCH  32  34
ENDBRANCH  27  30
ENDBRANCH  22  24
ENDBRANCH   5  22
TORSDOF 10
ENDMDL
MODEL 9
REMARK VINA RESULT:      -8.2      0.966      1.297
REMARK  Name = 
REMARK  15 active torsions:
REMARK  status: ('A' for Active; 'I' for Inactive)
REMARK    1  A    between atoms: C_1  and  O_2
REMARK    2  A    between atoms: O_2  and  C_3
REMARK    3  A    between atoms: C_8  and  C_9
REMARK    4  A    between atoms: C_11  and  C_12
REMARK    5  A    between atoms: C_12  and  C_13
REMARK    6  A    between atoms: C_12  and  C_14
REMARK    7  A    between atoms: C_12  and  C_15
REMARK    8  A    between atoms: N_17  and  C_18
REMARK    9  A    between atoms: C_18  and  C_19
REMARK   10  A    between atoms: C_18  and  C_20
REMARK   11  A    between atoms: C_23  and  C_24
REMARK   12  A    between atoms: N_26  and  C_27
REMARK   13  A    between atoms: C_27  and  C_28
REMARK   14  A    between atoms: C_28  and  C_29
REMARK   15  A    between atoms: C_29  and  O_31
REMARK                            x       y       z     vdW  Elec       q    Type
REMARK                         _______ _______ _______ _____ _____    ______ ____
ROOT
ATOM      1  C   UNL     1      -0.270  12.321  18.557  0.00  0.00    +0.000 A 
ATOM      2  C   UNL     1      -1.394  12.335  17.747  0.00  0.00    +0.000 A 
ATOM      3  C   UNL     1      -2.040  11.095  17.914  0.00  0.00    +0.000 A 
ATOM      4  N   UNL     1      -1.343  10.312  18.738  0.00  0.00    +0.000 NA
ATOM      5  N   UNL     1      -0.283  11.063  19.142  0.00  0.00    +0.000 N 
ENDROOT
BRANCH   1  11
ATOM      6  C   UNL     1       4.586  16.641  19.129  0.00  0.00    +0.000 A 
ATOM      7  C   UNL     1       5.013  15.582  18.328  0.00  0.00    +0.000 A 
ATOM      8  C   UNL     1       4.131  14.547  18.004  0.00  0.00    +0.000 A 
ATOM      9  C   UNL     1       2.820  14.545  18.498  0.00  0.00    +0.000 A 
ATOM     10  C   UNL     1       1.936  13.490  18.212  0.00  0.00    +0.000 A 
ATOM     11  C   UNL     1       0.662  13.433  18.781  0.00  0.00    +0.000 A 
ATOM     12  C   UNL     1       0.247  14.515  19.575  0.00  0.00    +0.000 A 
ATOM     13  C   UNL     1       1.088  15.600  19.821  0.00  0.00    +0.000 A 
ATOM     14  C   UNL     1       2.388  15.614  19.309  0.00  0.00    +0.000 A 
ATOM     15  C   UNL     1       3.272  16.661  19.598  0.00  0.00    +0.000 A 
BRANCH   6  17
ATOM     16  C   UNL     1       5.028  18.275  20.790  0.00  0.00    +0.000 C 
ATOM     17  O   UNL     1       5.349  17.703  19.530  0.00  0.00    +0.000 OA
ENDBRANCH   6  17
ENDBRANCH   1  11
BRANCH   3  18
ATOM     18  C   UNL     1      -3.339  10.646  17.272  0.00  0.00    +0.000 C 
ATOM     19  C   UNL     1      -3.170  10.622  15.739  0.00  0.00    +0.000 C 
ATOM     20  C   UNL     1      -3.764   9.240  17.739  0.00  0.00    +0.000 C 
ATOM     21  C   UNL     1      -4.476  11.627  17.629  0.00  0.00    +0.000 C 
ENDBRANCH   3  18
BRANCH   5  22
ATOM     22  C   UNL     1       0.619  10.492  20.163  0.00  0.00    +0.000 C 
ATOM     23  C   UNL     1      -0.088  10.263  21.510  0.00  0.00    +0.000 C 
BRANCH  22  24
ATOM     24  C   UNL     1       1.302   9.196  19.717  0.00  0.00    +0.000 A 
ATOM     25  C   UNL     1       1.824   9.101  18.413  0.00  0.00    +0.000 A 
ATOM     26  C   UNL     1       2.509   7.954  17.993  0.00  0.00    +0.000 A 
ATOM     27  C   UNL     1       2.696   6.870  18.863  0.00  0.00    +0.000 A 
ATOM     28  C   UNL     1       2.153   6.947  20.151  0.00  0.00    +0.000 A 
ATOM     29  C   UNL     1       1.477   8.100  20.573  0.00  0.00    +0.000 A 
BRANCH  27  30
ATOM     30  C   UNL     1       3.479   5.691  18.368  0.00  0.00    +0.000 C 
ATOM     31  O   UNL     1       4.066   5.745  17.290  0.00  0.00    +0.000 OA
ATOM     32  N   UNL     1       3.539   4.580  19.180  0.00  0.00    +0.000 N 
ATOM     33  H   UNL     1       3.203   4.619  20.135  0.00  0.00    +0.000 HD
BRANCH  32  34
ATOM     34  C   UNL     1       4.346   3.416  18.862  0.00  0.00    +0.000 C 
BRANCH  34  35
ATOM     35  C   UNL     1       3.494   2.180  18.590  0.00  0.00    +0.000 C 
BRANCH  35  36
ATOM     36  C   UNL     1       2.090   2.559  18.183  0.00  0.00    +0.000 C 
ATOM     37  O   UNL     1       1.103   2.478  18.896  0.00  0.00    +0.000 OA
BRANCH  36  38
ATOM     38  O   UNL     1       2.023   3.010  16.910  0.00  0.00    +0.000 OA
ATOM     39  H   UNL     1       1.689   3.924  16.832  0.00  0.00    +0.000 HD
ENDBRANCH  36  38
ENDBRANCH  35  36
ENDBRANCH  34  35
ENDBRANCH  32  34
ENDBRANCH  27  30
ENDBRANCH  22  24
ENDBRANCH   5  22
TORSDOF 10
ENDMDL
