MODEL 1
REMARK VINA RESULT:      -6.7      0.000      0.000
REMARK  Name = 
REMARK  12 active torsions:
REMARK  status: ('A' for Active; 'I' for Inactive)
REMARK    1  A    between atoms: C_1  and  O_2
REMARK    2  A    between atoms: O_2  and  C_3
REMARK    3  A    between atoms: C_6  and  N_7
REMARK    4  A    between atoms: N_7  and  C_8
REMARK    5  A    between atoms: N_7  and  S_18
REMARK    6  A    between atoms: C_8  and  C_9
REMARK    7  A    between atoms: N_11  and  C_12
REMARK    8  A    between atoms: C_12  and  C_13
REMARK    9  A    between atoms: S_18  and  C_21
REMARK   10  A    between atoms: C_24  and  C_25
REMARK   11  A    between atoms: C_29  and  O_30
REMARK   12  A    between atoms: O_30  and  C_31
REMARK                            x       y       z     vdW  Elec       q    Type
REMARK                         _______ _______ _______ _____ _____    ______ ____
ROOT
ATOM      1  N   UNL     1       0.705  10.887  20.120  0.00  0.00    +0.000 N 
ENDROOT
BRANCH   1   5
ATOM      2  C   UNL     1      -3.119  11.398  18.325  0.00  0.00    +0.000 A 
ATOM      3  C   UNL     1      -2.125  10.601  17.733  0.00  0.00    +0.000 A 
ATOM      4  C   UNL     1      -0.876  10.446  18.333  0.00  0.00    +0.000 A 
ATOM      5  C   UNL     1      -0.572  11.141  19.499  0.00  0.00    +0.000 A 
ATOM      6  C   UNL     1      -1.526  12.001  20.053  0.00  0.00    +0.000 A 
ATOM      7  C   UNL     1      -2.807  12.130  19.481  0.00  0.00    +0.000 A 
BRANCH   2   9
ATOM      8  C   UNL     1      -4.441  11.258  16.360  0.00  0.00    +0.000 C 
ATOM      9  O   UNL     1      -4.365  11.499  17.767  0.00  0.00    +0.000 OA
ENDBRANCH   2   9
BRANCH   7  10
ATOM     10  O   UNL     1      -3.607  12.975  20.206  0.00  0.00    +0.000 OA
ATOM     11  C   UNL     1      -3.012  13.947  21.052  0.00  0.00    +0.000 C 
ENDBRANCH   7  10
ENDBRANCH   1   5
BRANCH   1  12
ATOM     12  S   UNL     1       0.783   9.474  21.098  0.00  0.00    +0.000 S 
ATOM     13  O   UNL     1       1.616   9.748  22.251  0.00  0.00    +0.000 OA
ATOM     14  O   UNL     1      -0.577   9.008  21.278  0.00  0.00    +0.000 OA
BRANCH  12  15
ATOM     15  C   UNL     1       1.627   8.251  20.100  0.00  0.00    +0.000 A 
ATOM     16  C   UNL     1       1.778   6.938  20.555  0.00  0.00    +0.000 A 
ATOM     17  C   UNL     1       2.442   5.999  19.755  0.00  0.00    +0.000 A 
ATOM     18  C   UNL     1       2.936   6.357  18.493  0.00  0.00    +0.000 A 
ATOM     19  C   UNL     1       3.667   5.368  17.633  0.00  0.00    +0.000 C 
ATOM     20  C   UNL     1       2.732   7.662  18.026  0.00  0.00    +0.000 A 
ATOM     21  C   UNL     1       2.063   8.600  18.815  0.00  0.00    +0.000 A 
ENDBRANCH  12  15
ENDBRANCH   1  12
BRANCH   1  22
ATOM     22  C   UNL     1       1.460  12.065  20.620  0.00  0.00    +0.000 C 
BRANCH  22  23
ATOM     23  C   UNL     1       1.971  13.069  19.601  0.00  0.00    +0.000 C 
ATOM     24  O   UNL     1       2.357  12.678  18.498  0.00  0.00    +0.000 OA
ATOM     25  N   UNL     1       2.037  14.389  19.968  0.00  0.00    +0.000 N 
ATOM     26  H   UNL     1       1.620  14.679  20.846  0.00  0.00    +0.000 HD
BRANCH  25  27
ATOM     27  C   UNL     1       2.515  15.429  19.059  0.00  0.00    +0.000 C 
BRANCH  27  28
ATOM     28  C   UNL     1       1.579  16.640  18.988  0.00  0.00    +0.000 C 
ATOM     29  C   UNL     1       0.161  16.325  18.534  0.00  0.00    +0.000 C 
ATOM     30  C   UNL     1      -0.266  17.626  17.904  0.00  0.00    +0.000 C 
ATOM     31  C   UNL     1       1.019  18.113  17.269  0.00  0.00    +0.000 C 
ATOM     32  O   UNL     1       2.100  17.624  18.072  0.00  0.00    +0.000 OA
ENDBRANCH  27  28
ENDBRANCH  25  27
ENDBRANCH  22  23
ENDBRANCH   1  22
TORSDOF 9
ENDMDL
MODEL 2
REMARK VINA RESULT:      -6.7      2.913      7.382
REMARK  Name = 
REMARK  12 active torsions:
REMARK  status: ('A' for Active; 'I' for Inactive)
REMARK    1  A    between atoms: C_1  and  O_2
REMARK    2  A    between atoms: O_2  and  C_3
REMARK    3  A    between atoms: C_6  and  N_7
REMARK    4  A    between atoms: N_7  and  C_8
REMARK    5  A    between atoms: N_7  and  S_18
REMARK    6  A    between atoms: C_8  and  C_9
REMARK    7  A    between atoms: N_11  and  C_12
REMARK    8  A    between atoms: C_12  and  C_13
REMARK    9  A    between atoms: S_18  and  C_21
REMARK   10  A    between atoms: C_24  and  C_25
REMARK   11  A    between atoms: C_29  and  O_30
REMARK   12  A    between atoms: O_30  and  C_31
REMARK                            x       y       z     vdW  Elec       q    Type
REMARK                         _______ _______ _______ _____ _____    ______ ____
ROOT
ATOM      1  N   UNL     1      -0.024  10.733  19.812  0.00  0.00    +0.000 N 
ENDROOT
BRANCH   1   5
ATOM      2  C   UNL     1      -3.078  10.577  16.853  0.00  0.00    +0.000 A 
ATOM      3  C   UNL     1      -1.862   9.890  16.698  0.00  0.00    +0.000 A 
ATOM      4  C   UNL     1      -0.870   9.953  17.676  0.00  0.00    +0.000 A 
ATOM      5  C   UNL     1      -1.046  10.762  18.795  0.00  0.00    +0.000 A 
ATOM      6  C   UNL     1      -2.218  11.514  18.920  0.00  0.00    +0.000 A 
ATOM      7  C   UNL     1      -3.247  11.421  17.961  0.00  0.00    +0.000 A 
BRANCH   2   9
ATOM      8  C   UNL     1      -3.651  10.203  14.581  0.00  0.00    +0.000 C 
ATOM      9  O   UNL     1      -4.074  10.463  15.921  0.00  0.00    +0.000 OA
ENDBRANCH   2   9
BRANCH   7  10
ATOM     10  O   UNL     1      -4.330  12.191  18.298  0.00  0.00    +0.000 OA
ATOM     11  C   UNL     1      -4.684  12.340  19.664  0.00  0.00    +0.000 C 
ENDBRANCH   7  10
ENDBRANCH   1   5
BRANCH   1  12
ATOM     12  S   UNL     1       0.322  12.246  20.554  0.00  0.00    +0.000 S 
ATOM     13  O   UNL     1       1.550  12.124  21.314  0.00  0.00    +0.000 OA
ATOM     14  O   UNL     1       0.201  13.259  19.526  0.00  0.00    +0.000 OA
BRANCH  12  15
ATOM     15  C   UNL     1      -1.009  12.521  21.719  0.00  0.00    +0.000 A 
ATOM     16  C   UNL     1      -1.717  13.726  21.723  0.00  0.00    +0.000 A 
ATOM     17  C   UNL     1      -2.755  13.917  22.644  0.00  0.00    +0.000 A 
ATOM     18  C   UNL     1      -3.106  12.903  23.546  0.00  0.00    +0.000 A 
ATOM     19  C   UNL     1      -4.202  13.100  24.552  0.00  0.00    +0.000 C 
ATOM     20  C   UNL     1      -2.423  11.680  23.497  0.00  0.00    +0.000 A 
ATOM     21  C   UNL     1      -1.394  11.481  22.574  0.00  0.00    +0.000 A 
ENDBRANCH  12  15
ENDBRANCH   1  12
BRANCH   1  22
ATOM     22  C   UNL     1       1.142   9.845  19.576  0.00  0.00    +0.000 C 
BRANCH  22  23
ATOM     23  C   UNL     1       1.262   8.586  20.419  0.00  0.00    +0.000 C 
ATOM     24  O   UNL     1       0.861   8.591  21.584  0.00  0.00    +0.000 OA
ATOM     25  N   UNL     1       1.871   7.489  19.865  0.00  0.00    +0.000 N 
ATOM     26  H   UNL     1       2.097   7.497  18.876  0.00  0.00    +0.000 HD
BRANCH  25  27
ATOM     27  C   UNL     1       2.034   6.235  20.596  0.00  0.00    +0.000 C 
BRANCH  27  28
ATOM     28  C   UNL     1       2.399   5.055  19.688  0.00  0.00    +0.000 C 
ATOM     29  C   UNL     1       2.330   5.350  18.197  0.00  0.00    +0.000 C 
ATOM     30  C   UNL     1       2.031   3.991  17.619  0.00  0.00    +0.000 C 
ATOM     31  C   UNL     1       1.130   3.383  18.672  0.00  0.00    +0.000 C 
ATOM     32  O   UNL     1       1.516   3.942  19.934  0.00  0.00    +0.000 OA
ENDBRANCH  27  28
ENDBRANCH  25  27
ENDBRANCH  22  23
ENDBRANCH   1  22
TORSDOF 9
ENDMDL
MODEL 3
REMARK VINA RESULT:      -6.7      1.294      2.281
REMARK  Name = 
REMARK  12 active torsions:
REMARK  status: ('A' for Active; 'I' for Inactive)
REMARK    1  A    between atoms: C_1  and  O_2
REMARK    2  A    between atoms: O_2  and  C_3
REMARK    3  A    between atoms: C_6  and  N_7
REMARK    4  A    between atoms: N_7  and  C_8
REMARK    5  A    between atoms: N_7  and  S_18
REMARK    6  A    between atoms: C_8  and  C_9
REMARK    7  A    between atoms: N_11  and  C_12
REMARK    8  A    between atoms: C_12  and  C_13
REMARK    9  A    between atoms: S_18  and  C_21
REMARK   10  A    between atoms: C_24  and  C_25
REMARK   11  A    between atoms: C_29  and  O_30
REMARK   12  A    between atoms: O_30  and  C_31
REMARK                            x       y       z     vdW  Elec       q    Type
REMARK                         _______ _______ _______ _____ _____    ______ ____
ROOT
ATOM      1  N   UNL     1      -0.155  11.417  19.845  0.00  0.00    +0.000 N 
ENDROOT
BRANCH   1   5
ATOM      2  C   UNL     1      -3.839  11.224  17.725  0.00  0.00    +0.000 A 
ATOM      3  C   UNL     1      -3.718  11.927  18.934  0.00  0.00    +0.000 A 
ATOM      4  C   UNL     1      -2.505  11.979  19.619  0.00  0.00    +0.000 A 
ATOM      5  C   UNL     1      -1.406  11.270  19.144  0.00  0.00    +0.000 A 
ATOM      6  C   UNL     1      -1.537  10.500  17.983  0.00  0.00    +0.000 A 
ATOM      7  C   UNL     1      -2.745  10.478  17.258  0.00  0.00    +0.000 A 
BRANCH   2   9
ATOM      8  C   UNL     1      -5.848  12.373  17.204  0.00  0.00    +0.000 C 
ATOM      9  O   UNL     1      -5.014  11.226  17.023  0.00  0.00    +0.000 OA
ENDBRANCH   2   9
BRANCH   7  10
ATOM     10  O   UNL     1      -2.647   9.712  16.125  0.00  0.00    +0.000 OA
ATOM     11  C   UNL     1      -2.927  10.293  14.862  0.00  0.00    +0.000 C 
ENDBRANCH   7  10
ENDBRANCH   1   5
BRANCH   1  12
ATOM     12  S   UNL     1       0.291  10.092  20.848  0.00  0.00    +0.000 S 
ATOM     13  O   UNL     1       1.139  10.580  21.917  0.00  0.00    +0.000 OA
ATOM     14  O   UNL     1      -0.925   9.368  21.157  0.00  0.00    +0.000 OA
BRANCH  12  15
ATOM     15  C   UNL     1       1.287   9.025  19.812  0.00  0.00    +0.000 A 
ATOM     16  C   UNL     1       1.656   9.422  18.524  0.00  0.00    +0.000 A 
ATOM     17  C   UNL     1       2.437   8.570  17.732  0.00  0.00    +0.000 A 
ATOM     18  C   UNL     1       2.871   7.333  18.228  0.00  0.00    +0.000 A 
ATOM     19  C   UNL     1       3.690   6.399  17.386  0.00  0.00    +0.000 C 
ATOM     20  C   UNL     1       2.538   6.969  19.540  0.00  0.00    +0.000 A 
ATOM     21  C   UNL     1       1.768   7.819  20.336  0.00  0.00    +0.000 A 
ENDBRANCH  12  15
ENDBRANCH   1  12
BRANCH   1  22
ATOM     22  C   UNL     1       0.171  12.768  20.371  0.00  0.00    +0.000 C 
BRANCH  22  23
ATOM     23  C   UNL     1       1.433  13.445  19.864  0.00  0.00    +0.000 C 
ATOM     24  O   UNL     1       2.518  13.189  20.390  0.00  0.00    +0.000 OA
ATOM     25  N   UNL     1       1.313  14.373  18.861  0.00  0.00    +0.000 N 
ATOM     26  H   UNL     1       0.420  14.481  18.393  0.00  0.00    +0.000 HD
BRANCH  25  27
ATOM     27  C   UNL     1       2.468  15.078  18.308  0.00  0.00    +0.000 C 
BRANCH  27  28
ATOM     28  C   UNL     1       2.331  16.603  18.382  0.00  0.00    +0.000 C 
ATOM     29  C   UNL     1       0.990  17.099  18.903  0.00  0.00    +0.000 C 
ATOM     30  C   UNL     1       0.871  18.446  18.236  0.00  0.00    +0.000 C 
ATOM     31  C   UNL     1       1.514  18.197  16.889  0.00  0.00    +0.000 C 
ATOM     32  O   UNL     1       2.513  17.186  17.076  0.00  0.00    +0.000 OA
ENDBRANCH  27  28
ENDBRANCH  25  27
ENDBRANCH  22  23
ENDBRANCH   1  22
TORSDOF 9
ENDMDL
MODEL 4
REMARK VINA RESULT:      -6.6      3.182      6.306
REMARK  Name = 
REMARK  12 active torsions:
REMARK  status: ('A' for Active; 'I' for Inactive)
REMARK    1  A    between atoms: C_1  and  O_2
REMARK    2  A    between atoms: O_2  and  C_3
REMARK    3  A    between atoms: C_6  and  N_7
REMARK    4  A    between atoms: N_7  and  C_8
REMARK    5  A    between atoms: N_7  and  S_18
REMARK    6  A    between atoms: C_8  and  C_9
REMARK    7  A    between atoms: N_11  and  C_12
REMARK    8  A    between atoms: C_12  and  C_13
REMARK    9  A    between atoms: S_18  and  C_21
REMARK   10  A    between atoms: C_24  and  C_25
REMARK   11  A    between atoms: C_29  and  O_30
REMARK   12  A    between atoms: O_30  and  C_31
REMARK                            x       y       z     vdW  Elec       q    Type
REMARK                         _______ _______ _______ _____ _____    ______ ____
ROOT
ATOM      1  N   UNL     1      -1.905  12.344  21.203  0.00  0.00    +0.000 N 
ENDROOT
BRANCH   1   5
ATOM      2  C   UNL     1      -4.561  14.677  23.571  0.00  0.00    +0.000 A 
ATOM      3  C   UNL     1      -3.537  15.266  22.812  0.00  0.00    +0.000 A 
ATOM      4  C   UNL     1      -2.673  14.487  22.042  0.00  0.00    +0.000 A 
ATOM      5  C   UNL     1      -2.771  13.100  22.074  0.00  0.00    +0.000 A 
ATOM      6  C   UNL     1      -3.735  12.499  22.890  0.00  0.00    +0.000 A 
ATOM      7  C   UNL     1      -4.643  13.277  23.635  0.00  0.00    +0.000 A 
BRANCH   2   9
ATOM      8  C   UNL     1      -6.408  16.164  23.497  0.00  0.00    +0.000 C 
ATOM      9  O   UNL     1      -5.447  15.447  24.275  0.00  0.00    +0.000 OA
ENDBRANCH   2   9
BRANCH   7  10
ATOM     10  O   UNL     1      -5.540  12.499  24.321  0.00  0.00    +0.000 OA
ATOM     11  C   UNL     1      -6.906  12.505  23.938  0.00  0.00    +0.000 C 
ENDBRANCH   7  10
ENDBRANCH   1   5
BRANCH   1  12
ATOM     12  S   UNL     1      -0.331  12.025  21.821  0.00  0.00    +0.000 S 
ATOM     13  O   UNL     1       0.438  13.253  21.796  0.00  0.00    +0.000 OA
ATOM     14  O   UNL     1      -0.503  11.301  23.063  0.00  0.00    +0.000 OA
BRANCH  12  15
ATOM     15  C   UNL     1       0.419  10.894  20.654  0.00  0.00    +0.000 A 
ATOM     16  C   UNL     1       0.902  11.352  19.425  0.00  0.00    +0.000 A 
ATOM     17  C   UNL     1       1.486  10.447  18.529  0.00  0.00    +0.000 A 
ATOM     18  C   UNL     1       1.611   9.091  18.863  0.00  0.00    +0.000 A 
ATOM     19  C   UNL     1       2.215   8.105  17.905  0.00  0.00    +0.000 C 
ATOM     20  C   UNL     1       1.170   8.654  20.119  0.00  0.00    +0.000 A 
ATOM     21  C   UNL     1       0.596   9.554  21.020  0.00  0.00    +0.000 A 
ENDBRANCH  12  15
ENDBRANCH   1  12
BRANCH   1  22
ATOM     22  C   UNL     1      -1.984  12.637  19.749  0.00  0.00    +0.000 C 
BRANCH  22  23
ATOM     23  C   UNL     1      -2.915  11.786  18.901  0.00  0.00    +0.000 C 
ATOM     24  O   UNL     1      -2.486  10.768  18.356  0.00  0.00    +0.000 OA
ATOM     25  N   UNL     1      -4.205  12.218  18.722  0.00  0.00    +0.000 N 
ATOM     26  H   UNL     1      -4.542  13.006  19.264  0.00  0.00    +0.000 HD
BRANCH  25  27
ATOM     27  C   UNL     1      -5.174  11.471  17.923  0.00  0.00    +0.000 C 
BRANCH  27  28
ATOM     28  C   UNL     1      -6.508  11.255  18.646  0.00  0.00    +0.000 C 
ATOM     29  C   UNL     1      -6.561  11.800  20.066  0.00  0.00    +0.000 C 
ATOM     30  C   UNL     1      -7.579  10.895  20.713  0.00  0.00    +0.000 C 
ATOM     31  C   UNL     1      -7.301   9.566  20.044  0.00  0.00    +0.000 C 
ATOM     32  O   UNL     1      -6.813   9.849  18.727  0.00  0.00    +0.000 OA
ENDBRANCH  27  28
ENDBRANCH  25  27
ENDBRANCH  22  23
ENDBRANCH   1  22
TORSDOF 9
ENDMDL
MODEL 5
REMARK VINA RESULT:      -6.5      2.616      5.302
REMARK  Name = 
REMARK  12 active torsions:
REMARK  status: ('A' for Active; 'I' for Inactive)
REMARK    1  A    between atoms: C_1  and  O_2
REMARK    2  A    between atoms: O_2  and  C_3
REMARK    3  A    between atoms: C_6  and  N_7
REMARK    4  A    between atoms: N_7  and  C_8
REMARK    5  A    between atoms: N_7  and  S_18
REMARK    6  A    between atoms: C_8  and  C_9
REMARK    7  A    between atoms: N_11  and  C_12
REMARK    8  A    between atoms: C_12  and  C_13
REMARK    9  A    between atoms: S_18  and  C_21
REMARK   10  A    between atoms: C_24  and  C_25
REMARK   11  A    between atoms: C_29  and  O_30
REMARK   12  A    between atoms: O_30  and  C_31
REMARK                            x       y       z     vdW  Elec       q    Type
REMARK                         _______ _______ _______ _____ _____    ______ ____
ROOT
ATOM      1  N   UNL     1      -0.942  11.825  19.681  0.00  0.00    +0.000 N 
ENDROOT
BRANCH   1   5
ATOM      2  C   UNL     1      -3.458  14.476  21.860  0.00  0.00    +0.000 A 
ATOM      3  C   UNL     1      -2.497  14.948  20.952  0.00  0.00    +0.000 A 
ATOM      4  C   UNL     1      -1.678  14.067  20.247  0.00  0.00    +0.000 A 
ATOM      5  C   UNL     1      -1.756  12.699  20.489  0.00  0.00    +0.000 A 
ATOM      6  C   UNL     1      -2.653  12.223  21.451  0.00  0.00    +0.000 A 
ATOM      7  C   UNL     1      -3.518  13.101  22.135  0.00  0.00    +0.000 A 
BRANCH   2   9
ATOM      8  C   UNL     1      -3.740  16.065  23.599  0.00  0.00    +0.000 C 
ATOM      9  O   UNL     1      -4.303  15.339  22.504  0.00  0.00    +0.000 OA
ENDBRANCH   2   9
BRANCH   7  10
ATOM     10  O   UNL     1      -4.355  12.430  22.989  0.00  0.00    +0.000 OA
ATOM     11  C   UNL     1      -4.070  12.417  24.380  0.00  0.00    +0.000 C 
ENDBRANCH   7  10
ENDBRANCH   1   5
BRANCH   1  12
ATOM     12  S   UNL     1       0.727  11.777  20.094  0.00  0.00    +0.000 S 
ATOM     13  O   UNL     1       1.431  12.773  19.311  0.00  0.00    +0.000 OA
ATOM     14  O   UNL     1       0.806  11.802  21.540  0.00  0.00    +0.000 OA
BRANCH  12  15
ATOM     15  C   UNL     1       1.303  10.167  19.565  0.00  0.00    +0.000 A 
ATOM     16  C   UNL     1       1.256   9.072  20.431  0.00  0.00    +0.000 A 
ATOM     17  C   UNL     1       1.712   7.821  19.994  0.00  0.00    +0.000 A 
ATOM     18  C   UNL     1       2.193   7.654  18.688  0.00  0.00    +0.000 A 
ATOM     19  C   UNL     1       2.704   6.326  18.211  0.00  0.00    +0.000 C 
ATOM     20  C   UNL     1       2.187   8.747  17.813  0.00  0.00    +0.000 A 
ATOM     21  C   UNL     1       1.724   9.994  18.241  0.00  0.00    +0.000 A 
ENDBRANCH  12  15
ENDBRANCH   1  12
BRANCH   1  22
ATOM     22  C   UNL     1      -1.254  11.761  18.230  0.00  0.00    +0.000 C 
BRANCH  22  23
ATOM     23  C   UNL     1      -2.567  11.119  17.811  0.00  0.00    +0.000 C 
ATOM     24  O   UNL     1      -2.667   9.891  17.789  0.00  0.00    +0.000 OA
ATOM     25  N   UNL     1      -3.592  11.940  17.413  0.00  0.00    +0.000 N 
ATOM     26  H   UNL     1      -3.499  12.942  17.539  0.00  0.00    +0.000 HD
BRANCH  25  27
ATOM     27  C   UNL     1      -4.890  11.418  16.992  0.00  0.00    +0.000 C 
BRANCH  27  28
ATOM     28  C   UNL     1      -5.994  11.645  18.031  0.00  0.00    +0.000 C 
ATOM     29  C   UNL     1      -7.134  12.540  17.567  0.00  0.00    +0.000 C 
ATOM     30  C   UNL     1      -7.620  13.131  18.865  0.00  0.00    +0.000 C 
ATOM     31  C   UNL     1      -6.335  13.288  19.650  0.00  0.00    +0.000 C 
ATOM     32  O   UNL     1      -5.446  12.250  19.219  0.00  0.00    +0.000 OA
ENDBRANCH  27  28
ENDBRANCH  25  27
ENDBRANCH  22  23
ENDBRANCH   1  22
TORSDOF 9
ENDMDL
MODEL 6
REMARK VINA RESULT:      -6.5      6.837     11.271
REMARK  Name = 
REMARK  12 active torsions:
REMARK  status: ('A' for Active; 'I' for Inactive)
REMARK    1  A    between atoms: C_1  and  O_2
REMARK    2  A    between atoms: O_2  and  C_3
REMARK    3  A    between atoms: C_6  and  N_7
REMARK    4  A    between atoms: N_7  and  C_8
REMARK    5  A    between atoms: N_7  and  S_18
REMARK    6  A    between atoms: C_8  and  C_9
REMARK    7  A    between atoms: N_11  and  C_12
REMARK    8  A    between atoms: C_12  and  C_13
REMARK    9  A    between atoms: S_18  and  C_21
REMARK   10  A    between atoms: C_24  and  C_25
REMARK   11  A    between atoms: C_29  and  O_30
REMARK   12  A    between atoms: O_30  and  C_31
REMARK                            x       y       z     vdW  Elec       q    Type
REMARK                         _______ _______ _______ _____ _____    ______ ____
ROOT
ATOM      1  N   UNL     1       5.001   5.004  15.883  0.00  0.00    +0.000 N 
ENDROOT
BRANCH   1   5
ATOM      2  C   UNL     1       6.736   3.619  12.253  0.00  0.00    +0.000 A 
ATOM      3  C   UNL     1       7.486   4.322  13.210  0.00  0.00    +0.000 A 
ATOM      4  C   UNL     1       6.903   4.772  14.394  0.00  0.00    +0.000 A 
ATOM      5  C   UNL     1       5.541   4.590  14.612  0.00  0.00    +0.000 A 
ATOM      6  C   UNL     1       4.767   3.963  13.630  0.00  0.00    +0.000 A 
ATOM      7  C   UNL     1       5.355   3.463  12.451  0.00  0.00    +0.000 A 
BRANCH   2   9
ATOM      8  C   UNL     1       7.419   1.701  11.036  0.00  0.00    +0.000 C 
ATOM      9  O   UNL     1       7.325   3.125  11.121  0.00  0.00    +0.000 OA
ENDBRANCH   2   9
BRANCH   7  10
ATOM     10  O   UNL     1       4.438   2.835  11.648  0.00  0.00    +0.000 OA
ATOM     11  C   UNL     1       3.704   3.595  10.700  0.00  0.00    +0.000 C 
ENDBRANCH   7  10
ENDBRANCH   1   5
BRANCH   1  12
ATOM     12  S   UNL     1       5.202   6.670  16.263  0.00  0.00    +0.000 S 
ATOM     13  O   UNL     1       6.526   6.867  16.818  0.00  0.00    +0.000 OA
ATOM     14  O   UNL     1       4.784   7.423  15.099  0.00  0.00    +0.000 OA
BRANCH  12  15
ATOM     15  C   UNL     1       4.016   7.009  17.561  0.00  0.00    +0.000 A 
ATOM     16  C   UNL     1       3.046   8.002  17.400  0.00  0.00    +0.000 A 
ATOM     17  C   UNL     1       2.128   8.248  18.429  0.00  0.00    +0.000 A 
ATOM     18  C   UNL     1       2.160   7.493  19.610  0.00  0.00    +0.000 A 
ATOM     19  C   UNL     1       1.197   7.759  20.730  0.00  0.00    +0.000 C 
ATOM     20  C   UNL     1       3.104   6.466  19.738  0.00  0.00    +0.000 A 
ATOM     21  C   UNL     1       4.015   6.210  18.710  0.00  0.00    +0.000 A 
ENDBRANCH  12  15
ENDBRANCH   1  12
BRANCH   1  22
ATOM     22  C   UNL     1       5.142   4.058  17.019  0.00  0.00    +0.000 C 
BRANCH  22  23
ATOM     23  C   UNL     1       3.966   3.151  17.342  0.00  0.00    +0.000 C 
ATOM     24  O   UNL     1       2.921   3.253  16.697  0.00  0.00    +0.000 OA
ATOM     25  N   UNL     1       4.091   2.276  18.390  0.00  0.00    +0.000 N 
ATOM     26  H   UNL     1       4.997   2.157  18.830  0.00  0.00    +0.000 HD
BRANCH  25  27
ATOM     27  C   UNL     1       3.016   1.365  18.778  0.00  0.00    +0.000 C 
BRANCH  27  28
ATOM     28  C   UNL     1       2.157   1.906  19.927  0.00  0.00    +0.000 C 
ATOM     29  C   UNL     1       1.129   2.951  19.519  0.00  0.00    +0.000 C 
ATOM     30  C   UNL     1       0.976   3.755  20.785  0.00  0.00    +0.000 C 
ATOM     31  C   UNL     1       2.381   3.741  21.348  0.00  0.00    +0.000 C 
ATOM     32  O   UNL     1       2.991   2.513  20.934  0.00  0.00    +0.000 OA
ENDBRANCH  27  28
ENDBRANCH  25  27
ENDBRANCH  22  23
ENDBRANCH   1  22
TORSDOF 9
ENDMDL
MODEL 7
REMARK VINA RESULT:      -6.5      3.403      7.202
REMARK  Name = 
REMARK  12 active torsions:
REMARK  status: ('A' for Active; 'I' for Inactive)
REMARK    1  A    between atoms: C_1  and  O_2
REMARK    2  A    between atoms: O_2  and  C_3
REMARK    3  A    between atoms: C_6  and  N_7
REMARK    4  A    between atoms: N_7  and  C_8
REMARK    5  A    between atoms: N_7  and  S_18
REMARK    6  A    between atoms: C_8  and  C_9
REMARK    7  A    between atoms: N_11  and  C_12
REMARK    8  A    between atoms: C_12  and  C_13
REMARK    9  A    between atoms: S_18  and  C_21
REMARK   10  A    between atoms: C_24  and  C_25
REMARK   11  A    between atoms: C_29  and  O_30
REMARK   12  A    between atoms: O_30  and  C_31
REMARK                            x       y       z     vdW  Elec       q    Type
REMARK                         _______ _______ _______ _____ _____    ______ ____
ROOT
ATOM      1  N   UNL     1       1.255   8.859  19.735  0.00  0.00    +0.000 N 
ENDROOT
BRANCH   1   5
ATOM      2  C   UNL     1       3.734   5.613  18.542  0.00  0.00    +0.000 A 
ATOM      3  C   UNL     1       3.625   6.781  17.771  0.00  0.00    +0.000 A 
ATOM      4  C   UNL     1       2.806   7.836  18.174  0.00  0.00    +0.000 A 
ATOM      5  C   UNL     1       2.026   7.713  19.320  0.00  0.00    +0.000 A 
ATOM      6  C   UNL     1       2.065   6.522  20.051  0.00  0.00    +0.000 A 
ATOM      7  C   UNL     1       2.924   5.468  19.679  0.00  0.00    +0.000 A 
BRANCH   2   9
ATOM      8  C   UNL     1       4.894   4.521  16.784  0.00  0.00    +0.000 C 
ATOM      9  O   UNL     1       4.586   4.605  18.177  0.00  0.00    +0.000 OA
ENDBRANCH   2   9
BRANCH   7  10
ATOM     10  O   UNL     1       2.853   4.417  20.557  0.00  0.00    +0.000 OA
ATOM     11  C   UNL     1       1.598   3.808  20.818  0.00  0.00    +0.000 C 
ENDBRANCH   7  10
ENDBRANCH   1   5
BRANCH   1  12
ATOM     12  S   UNL     1       1.199  10.159  18.609  0.00  0.00    +0.000 S 
ATOM     13  O   UNL     1       1.785  11.334  19.222  0.00  0.00    +0.000 OA
ATOM     14  O   UNL     1       1.723   9.656  17.356  0.00  0.00    +0.000 OA
BRANCH  12  15
ATOM     15  C   UNL     1      -0.541  10.494  18.354  0.00  0.00    +0.000 A 
ATOM     16  C   UNL     1      -1.291   9.727  17.458  0.00  0.00    +0.000 A 
ATOM     17  C   UNL     1      -2.652  10.008  17.277  0.00  0.00    +0.000 A 
ATOM     18  C   UNL     1      -3.272  11.035  18.001  0.00  0.00    +0.000 A 
ATOM     19  C   UNL     1      -4.724  11.361  17.803  0.00  0.00    +0.000 C 
ATOM     20  C   UNL     1      -2.521  11.762  18.934  0.00  0.00    +0.000 A 
ATOM     21  C   UNL     1      -1.167  11.480  19.127  0.00  0.00    +0.000 A 
ENDBRANCH  12  15
ENDBRANCH   1  12
BRANCH   1  22
ATOM     22  C   UNL     1       1.333   9.244  21.167  0.00  0.00    +0.000 C 
BRANCH  22  23
ATOM     23  C   UNL     1       0.032   9.368  21.943  0.00  0.00    +0.000 C 
ATOM     24  O   UNL     1      -0.730   8.403  22.018  0.00  0.00    +0.000 OA
ATOM     25  N   UNL     1      -0.279  10.585  22.496  0.00  0.00    +0.000 N 
ATOM     26  H   UNL     1       0.418  11.321  22.493  0.00  0.00    +0.000 HD
BRANCH  25  27
ATOM     27  C   UNL     1      -1.506  10.805  23.258  0.00  0.00    +0.000 C 
BRANCH  27  28
ATOM     28  C   UNL     1      -2.190  12.135  22.923  0.00  0.00    +0.000 C 
ATOM     29  C   UNL     1      -1.328  13.370  23.144  0.00  0.00    +0.000 C 
ATOM     30  C   UNL     1      -2.362  14.429  23.429  0.00  0.00    +0.000 C 
ATOM     31  C   UNL     1      -3.411  13.657  24.200  0.00  0.00    +0.000 C 
ATOM     32  O   UNL     1      -3.375  12.305  23.726  0.00  0.00    +0.000 OA
ENDBRANCH  27  28
ENDBRANCH  25  27
ENDBRANCH  22  23
ENDBRANCH   1  22
TORSDOF 9
ENDMDL
MODEL 8
REMARK VINA RESULT:      -6.5      1.983      3.046
REMARK  Name = 
REMARK  12 active torsions:
REMARK  status: ('A' for Active; 'I' for Inactive)
REMARK    1  A    between atoms: C_1  and  O_2
REMARK    2  A    between atoms: O_2  and  C_3
REMARK    3  A    between atoms: C_6  and  N_7
REMARK    4  A    between atoms: N_7  and  C_8
REMARK    5  A    between atoms: N_7  and  S_18
REMARK    6  A    between atoms: C_8  and  C_9
REMARK    7  A    between atoms: N_11  and  C_12
REMARK    8  A    between atoms: C_12  and  C_13
REMARK    9  A    between atoms: S_18  and  C_21
REMARK   10  A    between atoms: C_24  and  C_25
REMARK   11  A    between atoms: C_29  and  O_30
REMARK   12  A    between atoms: O_30  and  C_31
REMARK                            x       y       z     vdW  Elec       q    Type
REMARK                         _______ _______ _______ _____ _____    ______ ____
ROOT
ATOM      1  N   UNL     1      -0.300  11.681  19.743  0.00  0.00    +0.000 N 
ENDROOT
BRANCH   1   5
ATOM      2  C   UNL     1      -4.088  11.253  17.853  0.00  0.00    +0.000 A 
ATOM      3  C   UNL     1      -3.923  12.034  19.008  0.00  0.00    +0.000 A 
ATOM      4  C   UNL     1      -2.675  12.162  19.618  0.00  0.00    +0.000 A 
ATOM      5  C   UNL     1      -1.583  11.455  19.125  0.00  0.00    +0.000 A 
ATOM      6  C   UNL     1      -1.754  10.610  18.023  0.00  0.00    +0.000 A 
ATOM      7  C   UNL     1      -3.000  10.509  17.371  0.00  0.00    +0.000 A 
BRANCH   2   9
ATOM      8  C   UNL     1      -6.264  12.163  17.600  0.00  0.00    +0.000 C 
ATOM      9  O   UNL     1      -5.300  11.179  17.221  0.00  0.00    +0.000 OA
ENDBRANCH   2   9
BRANCH   7  10
ATOM     10  O   UNL     1      -2.941   9.676  16.284  0.00  0.00    +0.000 OA
ATOM     11  C   UNL     1      -2.904  10.232  14.979  0.00  0.00    +0.000 C 
ENDBRANCH   7  10
ENDBRANCH   1   5
BRANCH   1  12
ATOM     12  S   UNL     1       0.215  10.462  20.843  0.00  0.00    +0.000 S 
ATOM     13  O   UNL     1       1.090  11.063  21.830  0.00  0.00    +0.000 OA
ATOM     14  O   UNL     1      -0.971   9.744  21.264  0.00  0.00    +0.000 OA
BRANCH  12  15
ATOM     15  C   UNL     1       1.198   9.326  19.870  0.00  0.00    +0.000 A 
ATOM     16  C   UNL     1       1.566   8.079  20.383  0.00  0.00    +0.000 A 
ATOM     17  C   UNL     1       2.334   7.207  19.602  0.00  0.00    +0.000 A 
ATOM     18  C   UNL     1       2.719   7.564  18.302  0.00  0.00    +0.000 A 
ATOM     19  C   UNL     1       3.560   6.649  17.459  0.00  0.00    +0.000 C 
ATOM     20  C   UNL     1       2.300   8.794  17.779  0.00  0.00    +0.000 A 
ATOM     21  C   UNL     1       1.525   9.664  18.551  0.00  0.00    +0.000 A 
ENDBRANCH  12  15
ENDBRANCH   1  12
BRANCH   1  22
ATOM     22  C   UNL     1       0.032  13.078  20.120  0.00  0.00    +0.000 C 
BRANCH  22  23
ATOM     23  C   UNL     1       0.840  13.909  19.136  0.00  0.00    +0.000 C 
ATOM     24  O   UNL     1       0.279  14.776  18.464  0.00  0.00    +0.000 OA
ATOM     25  N   UNL     1       2.174  13.624  18.988  0.00  0.00    +0.000 N 
ATOM     26  H   UNL     1       2.613  12.971  19.628  0.00  0.00    +0.000 HD
BRANCH  25  27
ATOM     27  C   UNL     1       3.032  14.365  18.067  0.00  0.00    +0.000 C 
BRANCH  27  28
ATOM     28  C   UNL     1       4.385  14.743  18.681  0.00  0.00    +0.000 C 
ATOM     29  C   UNL     1       4.661  16.238  18.748  0.00  0.00    +0.000 C 
ATOM     30  C   UNL     1       6.167  16.283  18.693  0.00  0.00    +0.000 C 
ATOM     31  C   UNL     1       6.491  15.136  17.761  0.00  0.00    +0.000 C 
ATOM     32  O   UNL     1       5.461  14.153  17.924  0.00  0.00    +0.000 OA
ENDBRANCH  27  28
ENDBRANCH  25  27
ENDBRANCH  22  23
ENDBRANCH   1  22
TORSDOF 9
ENDMDL
MODEL 9
REMARK VINA RESULT:      -6.5      2.720      6.331
REMARK  Name = 
REMARK  12 active torsions:
REMARK  status: ('A' for Active; 'I' for Inactive)
REMARK    1  A    between atoms: C_1  and  O_2
REMARK    2  A    between atoms: O_2  and  C_3
REMARK    3  A    between atoms: C_6  and  N_7
REMARK    4  A    between atoms: N_7  and  C_8
REMARK    5  A    between atoms: N_7  and  S_18
REMARK    6  A    between atoms: C_8  and  C_9
REMARK    7  A    between atoms: N_11  and  C_12
REMARK    8  A    between atoms: C_12  and  C_13
REMARK    9  A    between atoms: S_18  and  C_21
REMARK   10  A    between atoms: C_24  and  C_25
REMARK   11  A    between atoms: C_29  and  O_30
REMARK   12  A    between atoms: O_30  and  C_31
REMARK                            x       y       z     vdW  Elec       q    Type
REMARK                         _______ _______ _______ _____ _____    ______ ____
ROOT
ATOM      1  N   UNL     1       0.782  11.285  19.540  0.00  0.00    +0.000 N 
ENDROOT
BRANCH   1   5
ATOM      2  C   UNL     1       2.446   7.494  18.561  0.00  0.00    +0.000 A 
ATOM      3  C   UNL     1       2.370   8.533  17.620  0.00  0.00    +0.000 A 
ATOM      4  C   UNL     1       1.820   9.769  17.955  0.00  0.00    +0.000 A 
ATOM      5  C   UNL     1       1.269   9.967  19.218  0.00  0.00    +0.000 A 
ATOM      6  C   UNL     1       1.265   8.913  20.137  0.00  0.00    +0.000 A 
ATOM      7  C   UNL     1       1.861   7.675  19.824  0.00  0.00    +0.000 A 
BRANCH   2   9
ATOM      8  C   UNL     1       4.298   6.391  17.571  0.00  0.00    +0.000 C 
ATOM      9  O   UNL     1       3.043   6.302  18.248  0.00  0.00    +0.000 OA
ENDBRANCH   2   9
BRANCH   7  10
ATOM     10  O   UNL     1       1.802   6.799  20.877  0.00  0.00    +0.000 OA
ATOM     11  C   UNL     1       1.492   5.435  20.636  0.00  0.00    +0.000 C 
ENDBRANCH   7  10
ENDBRANCH   1   5
BRANCH   1  12
ATOM     12  S   UNL     1      -0.837  11.614  19.057  0.00  0.00    +0.000 S 
ATOM     13  O   UNL     1      -0.852  12.832  18.273  0.00  0.00    +0.000 OA
ATOM     14  O   UNL     1      -1.369  10.386  18.502  0.00  0.00    +0.000 OA
BRANCH  12  15
ATOM     15  C   UNL     1      -1.731  11.935  20.574  0.00  0.00    +0.000 A 
ATOM     16  C   UNL     1      -2.995  12.530  20.545  0.00  0.00    +0.000 A 
ATOM     17  C   UNL     1      -3.676  12.770  21.746  0.00  0.00    +0.000 A 
ATOM     18  C   UNL     1      -3.111  12.399  22.974  0.00  0.00    +0.000 A 
ATOM     19  C   UNL     1      -3.818  12.669  24.270  0.00  0.00    +0.000 C 
ATOM     20  C   UNL     1      -1.866  11.756  22.986  0.00  0.00    +0.000 A 
ATOM     21  C   UNL     1      -1.188  11.505  21.791  0.00  0.00    +0.000 A 
ENDBRANCH  12  15
ENDBRANCH   1  12
BRANCH   1  22
ATOM     22  C   UNL     1       1.740  12.412  19.407  0.00  0.00    +0.000 C 
BRANCH  22  23
ATOM     23  C   UNL     1       1.805  13.429  20.536  0.00  0.00    +0.000 C 
ATOM     24  O   UNL     1       2.634  13.289  21.437  0.00  0.00    +0.000 OA
ATOM     25  N   UNL     1       0.891  14.451  20.541  0.00  0.00    +0.000 N 
ATOM     26  H   UNL     1       0.292  14.583  19.733  0.00  0.00    +0.000 HD
BRANCH  25  27
ATOM     27  C   UNL     1       0.872  15.475  21.583  0.00  0.00    +0.000 C 
BRANCH  27  28
ATOM     28  C   UNL     1      -0.175  15.207  22.669  0.00  0.00    +0.000 C 
ATOM     29  C   UNL     1      -1.573  15.719  22.350  0.00  0.00    +0.000 C 
ATOM     30  C   UNL     1      -2.139  15.967  23.725  0.00  0.00    +0.000 C 
ATOM     31  C   UNL     1      -0.928  16.454  24.491  0.00  0.00    +0.000 C 
ATOM     32  O   UNL     1       0.221  15.823  23.911  0.00  0.00    +0.000 OA
ENDBRANCH  27  28
ENDBRANCH  25  27
ENDBRANCH  22  23
ENDBRANCH   1  22
TORSDOF 9
ENDMDL
