MODEL 1
REMARK VINA RESULT:      -8.2      0.000      0.000
REMARK  Name = 
REMARK  6 active torsions:
REMARK  status: ('A' for Active; 'I' for Inactive)
REMARK    1  A    between atoms: C_1  and  O_2
REMARK    2  A    between atoms: O_2  and  C_3
REMARK    3  A    between atoms: C_7  and  C_8
REMARK    4  A    between atoms: C_9  and  N_10
REMARK    5  A    between atoms: N_10  and  C_11
REMARK    6  A    between atoms: N_10  and  C_12
REMARK                            x       y       z     vdW  Elec       q    Type
REMARK                         _______ _______ _______ _____ _____    ______ ____
ROOT
ATOM      1  C   UNL     1       4.419   4.916  17.824  0.00  0.00    +0.000 C 
ATOM      2  C   UNL     1       3.216   4.995  18.427  0.00  0.00    +0.000 C 
ATOM      3  C   UNL     1       2.324   4.065  17.654  0.00  0.00    +0.000 C 
ATOM      4  O   UNL     1       1.125   3.906  17.800  0.00  0.00    +0.000 OA
ATOM      5  N   UNL     1       3.079   3.456  16.718  0.00  0.00    +0.000 N 
ATOM      6  C   UNL     1       4.332   3.947  16.716  0.00  0.00    +0.000 C 
ATOM      7  O   UNL     1       5.224   3.657  15.942  0.00  0.00    +0.000 OA
ATOM      8  H   UNL     1       2.717   2.813  16.034  0.00  0.00    +0.000 HD
ENDROOT
BRANCH   1  13
ATOM      9  C   UNL     1       7.303   7.313  17.760  0.00  0.00    +0.000 A 
ATOM     10  C   UNL     1       8.118   6.767  18.755  0.00  0.00    +0.000 A 
ATOM     11  C   UNL     1       7.692   5.668  19.501  0.00  0.00    +0.000 A 
ATOM     12  C   UNL     1       6.451   5.090  19.241  0.00  0.00    +0.000 A 
ATOM     13  C   UNL     1       5.644   5.602  18.217  0.00  0.00    +0.000 A 
ATOM     14  C   UNL     1       6.063   6.731  17.499  0.00  0.00    +0.000 A 
BRANCH   9  16
ATOM     15  C   UNL     1       8.286   9.474  17.899  0.00  0.00    +0.000 C 
ATOM     16  O   UNL     1       7.840   8.384  17.099  0.00  0.00    +0.000 OA
ENDBRANCH   9  16
ENDBRANCH   1  13
BRANCH   2  17
ATOM     17  N   UNL     1       2.733   5.770  19.481  0.00  0.00    +0.000 N 
ATOM     18  C   UNL     1       2.305   5.176  20.755  0.00  0.00    +0.000 C 
BRANCH  17  19
ATOM     19  C   UNL     1       2.244   7.096  19.293  0.00  0.00    +0.000 A 
ATOM     20  C   UNL     1       1.637   7.813  20.339  0.00  0.00    +0.000 A 
ATOM     21  C   UNL     1       1.164   9.118  20.150  0.00  0.00    +0.000 A 
ATOM     22  C   UNL     1       1.287   9.735  18.909  0.00  0.00    +0.000 A 
ATOM     23  C   UNL     1       1.879   9.047  17.857  0.00  0.00    +0.000 A 
ATOM     24  C   UNL     1       2.348   7.742  18.048  0.00  0.00    +0.000 A 
ENDBRANCH  17  19
ENDBRANCH   2  17
TORSDOF 4
ENDMDL
MODEL 2
REMARK VINA RESULT:      -8.1      0.057      1.003
REMARK  Name = 
REMARK  6 active torsions:
REMARK  status: ('A' for Active; 'I' for Inactive)
REMARK    1  A    between atoms: C_1  and  O_2
REMARK    2  A    between atoms: O_2  and  C_3
REMARK    3  A    between atoms: C_7  and  C_8
REMARK    4  A    between atoms: C_9  and  N_10
REMARK    5  A    between atoms: N_10  and  C_11
REMARK    6  A    between atoms: N_10  and  C_12
REMARK                            x       y       z     vdW  Elec       q    Type
REMARK                         _______ _______ _______ _____ _____    ______ ____
ROOT
ATOM      1  C   UNL     1       4.391   4.884  17.851  0.00  0.00    +0.000 C 
ATOM      2  C   UNL     1       3.186   4.980  18.448  0.00  0.00    +0.000 C 
ATOM      3  C   UNL     1       2.290   4.048  17.682  0.00  0.00    +0.000 C 
ATOM      4  O   UNL     1       1.089   3.900  17.825  0.00  0.00    +0.000 OA
ATOM      5  N   UNL     1       3.044   3.422  16.757  0.00  0.00    +0.000 N 
ATOM      6  C   UNL     1       4.301   3.903  16.754  0.00  0.00    +0.000 C 
ATOM      7  O   UNL     1       5.193   3.597  15.988  0.00  0.00    +0.000 OA
ATOM      8  H   UNL     1       2.679   2.774  16.079  0.00  0.00    +0.000 HD
ENDROOT
BRANCH   1  13
ATOM      9  C   UNL     1       7.304   7.245  17.762  0.00  0.00    +0.000 A 
ATOM     10  C   UNL     1       8.101   6.714  18.779  0.00  0.00    +0.000 A 
ATOM     11  C   UNL     1       7.654   5.637  19.546  0.00  0.00    +0.000 A 
ATOM     12  C   UNL     1       6.410   5.068  19.286  0.00  0.00    +0.000 A 
ATOM     13  C   UNL     1       5.620   5.565  18.242  0.00  0.00    +0.000 A 
ATOM     14  C   UNL     1       6.059   6.672  17.502  0.00  0.00    +0.000 A 
BRANCH   9  16
ATOM     15  C   UNL     1       8.203   9.445  17.847  0.00  0.00    +0.000 C 
ATOM     16  O   UNL     1       7.860   8.294  17.083  0.00  0.00    +0.000 OA
ENDBRANCH   9  16
ENDBRANCH   1  13
BRANCH   2  17
ATOM     17  N   UNL     1       2.705   5.771  19.492  0.00  0.00    +0.000 N 
ATOM     18  C   UNL     1       2.253   5.194  20.765  0.00  0.00    +0.000 C 
BRANCH  17  19
ATOM     19  C   UNL     1       2.241   7.104  19.289  0.00  0.00    +0.000 A 
ATOM     20  C   UNL     1       2.378   7.751  18.048  0.00  0.00    +0.000 A 
ATOM     21  C   UNL     1       1.915   9.058  17.853  0.00  0.00    +0.000 A 
ATOM     22  C   UNL     1       1.305   9.749  18.895  0.00  0.00    +0.000 A 
ATOM     23  C   UNL     1       1.160   9.134  20.133  0.00  0.00    +0.000 A 
ATOM     24  C   UNL     1       1.627   7.829  20.326  0.00  0.00    +0.000 A 
ENDBRANCH  17  19
ENDBRANCH   2  17
TORSDOF 4
ENDMDL
MODEL 3
REMARK VINA RESULT:      -7.9      2.418      5.244
REMARK  Name = 
REMARK  6 active torsions:
REMARK  status: ('A' for Active; 'I' for Inactive)
REMARK    1  A    between atoms: C_1  and  O_2
REMARK    2  A    between atoms: O_2  and  C_3
REMARK    3  A    between atoms: C_7  and  C_8
REMARK    4  A    between atoms: C_9  and  N_10
REMARK    5  A    between atoms: N_10  and  C_11
REMARK    6  A    between atoms: N_10  and  C_12
REMARK                            x       y       z     vdW  Elec       q    Type
REMARK                         _______ _______ _______ _____ _____    ______ ____
ROOT
ATOM      1  C   UNL     1       2.503   3.904  18.899  0.00  0.00    +0.000 C 
ATOM      2  C   UNL     1       3.689   3.384  18.521  0.00  0.00    +0.000 C 
ATOM      3  C   UNL     1       3.439   1.913  18.350  0.00  0.00    +0.000 C 
ATOM      4  O   UNL     1       4.265   1.050  18.109  0.00  0.00    +0.000 OA
ATOM      5  N   UNL     1       2.125   1.692  18.558  0.00  0.00    +0.000 N 
ATOM      6  C   UNL     1       1.503   2.821  18.944  0.00  0.00    +0.000 C 
ATOM      7  O   UNL     1       0.340   2.931  19.279  0.00  0.00    +0.000 OA
ATOM      8  H   UNL     1       1.699   0.781  18.546  0.00  0.00    +0.000 HD
ENDROOT
BRANCH   1  13
ATOM      9  C   UNL     1       2.243   7.612  18.401  0.00  0.00    +0.000 A 
ATOM     10  C   UNL     1       1.917   8.027  19.694  0.00  0.00    +0.000 A 
ATOM     11  C   UNL     1       1.703   7.093  20.709  0.00  0.00    +0.000 A 
ATOM     12  C   UNL     1       1.835   5.733  20.441  0.00  0.00    +0.000 A 
ATOM     13  C   UNL     1       2.203   5.307  19.158  0.00  0.00    +0.000 A 
ATOM     14  C   UNL     1       2.378   6.250  18.135  0.00  0.00    +0.000 A 
BRANCH   9  16
ATOM     15  C   UNL     1       1.919   9.905  17.858  0.00  0.00    +0.000 C 
ATOM     16  O   UNL     1       2.432   8.626  17.502  0.00  0.00    +0.000 OA
ENDBRANCH   9  16
ENDBRANCH   1  13
BRANCH   2  17
ATOM     17  N   UNL     1       4.959   3.939  18.359  0.00  0.00    +0.000 N 
ATOM     18  C   UNL     1       5.645   4.649  19.446  0.00  0.00    +0.000 C 
BRANCH  17  19
ATOM     19  C   UNL     1       5.512   4.217  17.075  0.00  0.00    +0.000 A 
ATOM     20  C   UNL     1       4.729   4.170  15.909  0.00  0.00    +0.000 A 
ATOM     21  C   UNL     1       5.278   4.451  14.651  0.00  0.00    +0.000 A 
ATOM     22  C   UNL     1       6.623   4.783  14.531  0.00  0.00    +0.000 A 
ATOM     23  C   UNL     1       7.421   4.833  15.667  0.00  0.00    +0.000 A 
ATOM     24  C   UNL     1       6.871   4.549  16.923  0.00  0.00    +0.000 A 
ENDBRANCH  17  19
ENDBRANCH   2  17
TORSDOF 4
ENDMDL
MODEL 4
REMARK VINA RESULT:      -7.8      2.662      5.569
REMARK  Name = 
REMARK  6 active torsions:
REMARK  status: ('A' for Active; 'I' for Inactive)
REMARK    1  A    between atoms: C_1  and  O_2
REMARK    2  A    between atoms: O_2  and  C_3
REMARK    3  A    between atoms: C_7  and  C_8
REMARK    4  A    between atoms: C_9  and  N_10
REMARK    5  A    between atoms: N_10  and  C_11
REMARK    6  A    between atoms: N_10  and  C_12
REMARK                            x       y       z     vdW  Elec       q    Type
REMARK                         _______ _______ _______ _____ _____    ______ ____
ROOT
ATOM      1  C   UNL     1       3.160   4.860  19.568  0.00  0.00    +0.000 C 
ATOM      2  C   UNL     1       4.314   4.208  19.322  0.00  0.00    +0.000 C 
ATOM      3  C   UNL     1       4.108   2.822  19.863  0.00  0.00    +0.000 C 
ATOM      4  O   UNL     1       4.936   1.931  19.937  0.00  0.00    +0.000 OA
ATOM      5  N   UNL     1       2.838   2.739  20.307  0.00  0.00    +0.000 N 
ATOM      6  C   UNL     1       2.218   3.930  20.217  0.00  0.00    +0.000 C 
ATOM      7  O   UNL     1       1.097   4.196  20.606  0.00  0.00    +0.000 OA
ATOM      8  H   UNL     1       2.452   1.927  20.759  0.00  0.00    +0.000 HD
ENDROOT
BRANCH   1  13
ATOM      9  C   UNL     1       1.758   8.333  19.772  0.00  0.00    +0.000 A 
ATOM     10  C   UNL     1       1.938   8.765  18.455  0.00  0.00    +0.000 A 
ATOM     11  C   UNL     1       2.588   7.955  17.523  0.00  0.00    +0.000 A 
ATOM     12  C   UNL     1       3.046   6.694  17.897  0.00  0.00    +0.000 A 
ATOM     13  C   UNL     1       2.833   6.233  19.202  0.00  0.00    +0.000 A 
ATOM     14  C   UNL     1       2.215   7.069  20.143  0.00  0.00    +0.000 A 
BRANCH   9  16
ATOM     15  C   UNL     1       1.112   8.939  21.979  0.00  0.00    +0.000 C 
ATOM     16  O   UNL     1       1.102   9.218  20.583  0.00  0.00    +0.000 OA
ENDBRANCH   9  16
ENDBRANCH   1  13
BRANCH   2  17
ATOM     17  N   UNL     1       5.532   4.610  18.774  0.00  0.00    +0.000 N 
ATOM     18  C   UNL     1       6.456   5.499  19.491  0.00  0.00    +0.000 C 
BRANCH  17  19
ATOM     19  C   UNL     1       5.801   4.540  17.375  0.00  0.00    +0.000 A 
ATOM     20  C   UNL     1       7.020   4.988  16.835  0.00  0.00    +0.000 A 
ATOM     21  C   UNL     1       7.280   4.911  15.461  0.00  0.00    +0.000 A 
ATOM     22  C   UNL     1       6.327   4.385  14.596  0.00  0.00    +0.000 A 
ATOM     23  C   UNL     1       5.113   3.939  15.102  0.00  0.00    +0.000 A 
ATOM     24  C   UNL     1       4.853   4.020  16.475  0.00  0.00    +0.000 A 
ENDBRANCH  17  19
ENDBRANCH   2  17
TORSDOF 4
ENDMDL
MODEL 5
REMARK VINA RESULT:      -7.7      2.663      5.604
REMARK  Name = 
REMARK  6 active torsions:
REMARK  status: ('A' for Active; 'I' for Inactive)
REMARK    1  A    between atoms: C_1  and  O_2
REMARK    2  A    between atoms: O_2  and  C_3
REMARK    3  A    between atoms: C_7  and  C_8
REMARK    4  A    between atoms: C_9  and  N_10
REMARK    5  A    between atoms: N_10  and  C_11
REMARK    6  A    between atoms: N_10  and  C_12
REMARK                            x       y       z     vdW  Elec       q    Type
REMARK                         _______ _______ _______ _____ _____    ______ ____
ROOT
ATOM      1  C   UNL     1       3.159   4.882  19.567  0.00  0.00    +0.000 C 
ATOM      2  C   UNL     1       4.308   4.221  19.319  0.00  0.00    +0.000 C 
ATOM      3  C   UNL     1       4.094   2.837  19.862  0.00  0.00    +0.000 C 
ATOM      4  O   UNL     1       4.916   1.941  19.936  0.00  0.00    +0.000 OA
ATOM      5  N   UNL     1       2.824   2.764  20.310  0.00  0.00    +0.000 N 
ATOM      6  C   UNL     1       2.213   3.959  20.220  0.00  0.00    +0.000 C 
ATOM      7  O   UNL     1       1.095   4.234  20.611  0.00  0.00    +0.000 OA
ATOM      8  H   UNL     1       2.434   1.956  20.764  0.00  0.00    +0.000 HD
ENDROOT
BRANCH   1  13
ATOM      9  C   UNL     1       1.721   8.342  19.736  0.00  0.00    +0.000 A 
ATOM     10  C   UNL     1       1.967   8.790  18.435  0.00  0.00    +0.000 A 
ATOM     11  C   UNL     1       2.672   7.996  17.530  0.00  0.00    +0.000 A 
ATOM     12  C   UNL     1       3.119   6.734  17.913  0.00  0.00    +0.000 A 
ATOM     13  C   UNL     1       2.842   6.257  19.200  0.00  0.00    +0.000 A 
ATOM     14  C   UNL     1       2.167   7.077  20.116  0.00  0.00    +0.000 A 
BRANCH   9  16
ATOM     15  C   UNL     1       0.169   8.641  21.512  0.00  0.00    +0.000 C 
ATOM     16  O   UNL     1       1.015   9.212  20.521  0.00  0.00    +0.000 OA
ENDBRANCH   9  16
ENDBRANCH   1  13
BRANCH   2  17
ATOM     17  N   UNL     1       5.528   4.614  18.767  0.00  0.00    +0.000 N 
ATOM     18  C   UNL     1       6.456   5.503  19.477  0.00  0.00    +0.000 C 
BRANCH  17  19
ATOM     19  C   UNL     1       5.795   4.532  17.369  0.00  0.00    +0.000 A 
ATOM     20  C   UNL     1       4.841   4.035  16.464  0.00  0.00    +0.000 A 
ATOM     21  C   UNL     1       5.107   3.963  15.090  0.00  0.00    +0.000 A 
ATOM     22  C   UNL     1       6.335   4.385  14.592  0.00  0.00    +0.000 A 
ATOM     23  C   UNL     1       7.298   4.876  15.465  0.00  0.00    +0.000 A 
ATOM     24  C   UNL     1       7.030   4.944  16.837  0.00  0.00    +0.000 A 
ENDBRANCH  17  19
ENDBRANCH   2  17
TORSDOF 4
ENDMDL
MODEL 6
REMARK VINA RESULT:      -7.5      2.645      5.537
REMARK  Name = 
REMARK  6 active torsions:
REMARK  status: ('A' for Active; 'I' for Inactive)
REMARK    1  A    between atoms: C_1  and  O_2
REMARK    2  A    between atoms: O_2  and  C_3
REMARK    3  A    between atoms: C_7  and  C_8
REMARK    4  A    between atoms: C_9  and  N_10
REMARK    5  A    between atoms: N_10  and  C_11
REMARK    6  A    between atoms: N_10  and  C_12
REMARK                            x       y       z     vdW  Elec       q    Type
REMARK                         _______ _______ _______ _____ _____    ______ ____
ROOT
ATOM      1  C   UNL     1       2.614   4.710  19.360  0.00  0.00    +0.000 C 
ATOM      2  C   UNL     1       3.733   4.062  18.975  0.00  0.00    +0.000 C 
ATOM      3  C   UNL     1       3.444   2.605  19.202  0.00  0.00    +0.000 C 
ATOM      4  O   UNL     1       4.220   1.674  19.078  0.00  0.00    +0.000 OA
ATOM      5  N   UNL     1       2.167   2.500  19.621  0.00  0.00    +0.000 N 
ATOM      6  C   UNL     1       1.615   3.715  19.793  0.00  0.00    +0.000 C 
ATOM      7  O   UNL     1       0.508   3.954  20.233  0.00  0.00    +0.000 OA
ATOM      8  H   UNL     1       1.731   1.633  19.886  0.00  0.00    +0.000 HD
ENDROOT
BRANCH   1  13
ATOM      9  C   UNL     1       1.640   8.173  20.420  0.00  0.00    +0.000 A 
ATOM     10  C   UNL     1       1.616   8.827  19.185  0.00  0.00    +0.000 A 
ATOM     11  C   UNL     1       1.995   8.160  18.019  0.00  0.00    +0.000 A 
ATOM     12  C   UNL     1       2.382   6.824  18.077  0.00  0.00    +0.000 A 
ATOM     13  C   UNL     1       2.369   6.146  19.303  0.00  0.00    +0.000 A 
ATOM     14  C   UNL     1       2.025   6.834  20.475  0.00  0.00    +0.000 A 
BRANCH   9  16
ATOM     15  C   UNL     1      -0.161   9.031  21.715  0.00  0.00    +0.000 C 
ATOM     16  O   UNL     1       1.241   8.936  21.483  0.00  0.00    +0.000 OA
ENDBRANCH   9  16
ENDBRANCH   1  13
BRANCH   2  17
ATOM     17  N   UNL     1       4.977   4.504  18.525  0.00  0.00    +0.000 N 
ATOM     18  C   UNL     1       5.921   5.207  19.404  0.00  0.00    +0.000 C 
BRANCH  17  19
ATOM     19  C   UNL     1       5.271   4.676  17.141  0.00  0.00    +0.000 A 
ATOM     20  C   UNL     1       5.144   5.926  16.510  0.00  0.00    +0.000 A 
ATOM     21  C   UNL     1       5.441   6.091  15.151  0.00  0.00    +0.000 A 
ATOM     22  C   UNL     1       5.869   5.007  14.391  0.00  0.00    +0.000 A 
ATOM     23  C   UNL     1       5.999   3.760  14.988  0.00  0.00    +0.000 A 
ATOM     24  C   UNL     1       5.699   3.598  16.346  0.00  0.00    +0.000 A 
ENDBRANCH  17  19
ENDBRANCH   2  17
TORSDOF 4
ENDMDL
MODEL 7
REMARK VINA RESULT:      -7.4      2.072      5.429
REMARK  Name = 
REMARK  6 active torsions:
REMARK  status: ('A' for Active; 'I' for Inactive)
REMARK    1  A    between atoms: C_1  and  O_2
REMARK    2  A    between atoms: O_2  and  C_3
REMARK    3  A    between atoms: C_7  and  C_8
REMARK    4  A    between atoms: C_9  and  N_10
REMARK    5  A    between atoms: N_10  and  C_11
REMARK    6  A    between atoms: N_10  and  C_12
REMARK                            x       y       z     vdW  Elec       q    Type
REMARK                         _______ _______ _______ _____ _____    ______ ____
ROOT
ATOM      1  C   UNL     1       2.666   5.252  19.106  0.00  0.00    +0.000 C 
ATOM      2  C   UNL     1       3.578   4.567  18.386  0.00  0.00    +0.000 C 
ATOM      3  C   UNL     1       3.436   3.137  18.824  0.00  0.00    +0.000 C 
ATOM      4  O   UNL     1       4.136   2.195  18.497  0.00  0.00    +0.000 OA
ATOM      5  N   UNL     1       2.410   3.076  19.697  0.00  0.00    +0.000 N 
ATOM      6  C   UNL     1       1.929   4.304  19.962  0.00  0.00    +0.000 C 
ATOM      7  O   UNL     1       1.059   4.586  20.763  0.00  0.00    +0.000 OA
ATOM      8  H   UNL     1       2.129   2.237  20.177  0.00  0.00    +0.000 HD
ENDROOT
BRANCH   1  13
ATOM      9  C   UNL     1       1.488   8.678  20.075  0.00  0.00    +0.000 A 
ATOM     10  C   UNL     1       1.546   9.332  18.842  0.00  0.00    +0.000 A 
ATOM     11  C   UNL     1       2.044   8.681  17.713  0.00  0.00    +0.000 A 
ATOM     12  C   UNL     1       2.470   7.358  17.805  0.00  0.00    +0.000 A 
ATOM     13  C   UNL     1       2.378   6.679  19.026  0.00  0.00    +0.000 A 
ATOM     14  C   UNL     1       1.912   7.353  20.164  0.00  0.00    +0.000 A 
BRANCH   9  16
ATOM     15  C   UNL     1      -0.106   8.856  21.831  0.00  0.00    +0.000 C 
ATOM     16  O   UNL     1       0.974   9.426  21.099  0.00  0.00    +0.000 OA
ENDBRANCH   9  16
ENDBRANCH   1  13
BRANCH   2  17
ATOM     17  N   UNL     1       4.552   4.962  17.469  0.00  0.00    +0.000 N 
ATOM     18  C   UNL     1       4.632   4.387  16.119  0.00  0.00    +0.000 C 
BRANCH  17  19
ATOM     19  C   UNL     1       5.752   5.622  17.865  0.00  0.00    +0.000 A 
ATOM     20  C   UNL     1       6.496   5.194  18.978  0.00  0.00    +0.000 A 
ATOM     21  C   UNL     1       7.678   5.843  19.359  0.00  0.00    +0.000 A 
ATOM     22  C   UNL     1       8.141   6.936  18.635  0.00  0.00    +0.000 A 
ATOM     23  C   UNL     1       7.423   7.383  17.533  0.00  0.00    +0.000 A 
ATOM     24  C   UNL     1       6.241   6.735  17.157  0.00  0.00    +0.000 A 
ENDBRANCH  17  19
ENDBRANCH   2  17
TORSDOF 4
ENDMDL
MODEL 8
REMARK VINA RESULT:      -7.4      2.101      2.914
REMARK  Name = 
REMARK  6 active torsions:
REMARK  status: ('A' for Active; 'I' for Inactive)
REMARK    1  A    between atoms: C_1  and  O_2
REMARK    2  A    between atoms: O_2  and  C_3
REMARK    3  A    between atoms: C_7  and  C_8
REMARK    4  A    between atoms: C_9  and  N_10
REMARK    5  A    between atoms: N_10  and  C_11
REMARK    6  A    between atoms: N_10  and  C_12
REMARK                            x       y       z     vdW  Elec       q    Type
REMARK                         _______ _______ _______ _____ _____    ______ ____
ROOT
ATOM      1  C   UNL     1       3.997   3.399  19.480  0.00  0.00    +0.000 C 
ATOM      2  C   UNL     1       2.711   3.782  19.610  0.00  0.00    +0.000 C 
ATOM      3  C   UNL     1       2.163   2.956  20.738  0.00  0.00    +0.000 C 
ATOM      4  O   UNL     1       1.008   2.912  21.123  0.00  0.00    +0.000 OA
ATOM      5  N   UNL     1       3.175   2.216  21.234  0.00  0.00    +0.000 N 
ATOM      6  C   UNL     1       4.294   2.381  20.506  0.00  0.00    +0.000 C 
ATOM      7  O   UNL     1       5.349   1.796  20.653  0.00  0.00    +0.000 OA
ATOM      8  H   UNL     1       3.069   1.541  21.972  0.00  0.00    +0.000 HD
ENDROOT
BRANCH   1  13
ATOM      9  C   UNL     1       6.773   5.501  18.086  0.00  0.00    +0.000 A 
ATOM     10  C   UNL     1       6.688   5.178  16.730  0.00  0.00    +0.000 A 
ATOM     11  C   UNL     1       5.782   4.217  16.281  0.00  0.00    +0.000 A 
ATOM     12  C   UNL     1       4.935   3.584  17.188  0.00  0.00    +0.000 A 
ATOM     13  C   UNL     1       4.981   3.930  18.545  0.00  0.00    +0.000 A 
ATOM     14  C   UNL     1       5.922   4.868  18.992  0.00  0.00    +0.000 A 
BRANCH   9  16
ATOM     15  C   UNL     1       7.672   7.650  17.611  0.00  0.00    +0.000 C 
ATOM     16  O   UNL     1       7.698   6.461  18.393  0.00  0.00    +0.000 OA
ENDBRANCH   9  16
ENDBRANCH   1  13
BRANCH   2  17
ATOM     17  N   UNL     1       1.909   4.669  18.890  0.00  0.00    +0.000 N 
ATOM     18  C   UNL     1       1.347   4.324  17.577  0.00  0.00    +0.000 C 
BRANCH  17  19
ATOM     19  C   UNL     1       1.896   6.070  19.150  0.00  0.00    +0.000 A 
ATOM     20  C   UNL     1       2.202   7.009  18.149  0.00  0.00    +0.000 A 
ATOM     21  C   UNL     1       2.181   8.385  18.410  0.00  0.00    +0.000 A 
ATOM     22  C   UNL     1       1.856   8.853  19.678  0.00  0.00    +0.000 A 
ATOM     23  C   UNL     1       1.554   7.947  20.687  0.00  0.00    +0.000 A 
ATOM     24  C   UNL     1       1.578   6.573  20.425  0.00  0.00    +0.000 A 
ENDBRANCH  17  19
ENDBRANCH   2  17
TORSDOF 4
ENDMDL
MODEL 9
REMARK VINA RESULT:      -7.4      2.086      5.452
REMARK  Name = 
REMARK  6 active torsions:
REMARK  status: ('A' for Active; 'I' for Inactive)
REMARK    1  A    between atoms: C_1  and  O_2
REMARK    2  A    between atoms: O_2  and  C_3
REMARK    3  A    between atoms: C_7  and  C_8
REMARK    4  A    between atoms: C_9  and  N_10
REMARK    5  A    between atoms: N_10  and  C_11
REMARK    6  A    between atoms: N_10  and  C_12
REMARK                            x       y       z     vdW  Elec       q    Type
REMARK                         _______ _______ _______ _____ _____    ______ ____
ROOT
ATOM      1  C   UNL     1       2.680   5.195  19.098  0.00  0.00    +0.000 C 
ATOM      2  C   UNL     1       3.584   4.513  18.366  0.00  0.00    +0.000 C 
ATOM      3  C   UNL     1       3.434   3.080  18.789  0.00  0.00    +0.000 C 
ATOM      4  O   UNL     1       4.127   2.137  18.447  0.00  0.00    +0.000 OA
ATOM      5  N   UNL     1       2.413   3.015  19.667  0.00  0.00    +0.000 N 
ATOM      6  C   UNL     1       1.942   4.243  19.948  0.00  0.00    +0.000 C 
ATOM      7  O   UNL     1       1.078   4.521  20.757  0.00  0.00    +0.000 OA
ATOM      8  H   UNL     1       2.130   2.173  20.138  0.00  0.00    +0.000 HD
ENDROOT
BRANCH   1  13
ATOM      9  C   UNL     1       1.544   8.622  20.118  0.00  0.00    +0.000 A 
ATOM     10  C   UNL     1       1.583   9.285  18.889  0.00  0.00    +0.000 A 
ATOM     11  C   UNL     1       2.055   8.640  17.746  0.00  0.00    +0.000 A 
ATOM     12  C   UNL     1       2.474   7.314  17.819  0.00  0.00    +0.000 A 
ATOM     13  C   UNL     1       2.400   6.625  19.036  0.00  0.00    +0.000 A 
ATOM     14  C   UNL     1       1.961   7.293  20.188  0.00  0.00    +0.000 A 
BRANCH   9  16
ATOM     15  C   UNL     1      -0.127  10.116  20.911  0.00  0.00    +0.000 C 
ATOM     16  O   UNL     1       1.056   9.364  21.158  0.00  0.00    +0.000 OA
ENDBRANCH   9  16
ENDBRANCH   1  13
BRANCH   2  17
ATOM     17  N   UNL     1       4.555   4.912  17.447  0.00  0.00    +0.000 N 
ATOM     18  C   UNL     1       4.644   4.329  16.102  0.00  0.00    +0.000 C 
BRANCH  17  19
ATOM     19  C   UNL     1       5.748   5.587  17.841  0.00  0.00    +0.000 A 
ATOM     20  C   UNL     1       6.245   6.687  17.120  0.00  0.00    +0.000 A 
ATOM     21  C   UNL     1       7.414   7.350  17.515  0.00  0.00    +0.000 A 
ATOM     22  C   UNL     1       8.113   6.927  18.641  0.00  0.00    +0.000 A 
ATOM     23  C   UNL     1       7.646   5.840  19.370  0.00  0.00    +0.000 A 
ATOM     24  C   UNL     1       6.479   5.177  18.971  0.00  0.00    +0.000 A 
ENDBRANCH  17  19
ENDBRANCH   2  17
TORSDOF 4
ENDMDL
