MODEL 1
REMARK VINA RESULT:      -7.2      0.000      0.000
REMARK  Name = 
REMARK  13 active torsions:
REMARK  status: ('A' for Active; 'I' for Inactive)
REMARK    1  A    between atoms: C_1  and  O_2
REMARK    2  A    between atoms: O_2  and  C_3
REMARK    3  A    between atoms: C_5  and  O_6
REMARK    4  A    between atoms: O_6  and  C_7
REMARK    5  A    between atoms: C_9  and  C_10
REMARK    6  A    between atoms: C_10  and  P_11
REMARK    7  A    between atoms: C_10  and  S_15
REMARK    8  A    between atoms: P_11  and  O_13
REMARK    9  A    between atoms: P_11  and  O_14
REMARK   10  A    between atoms: S_15  and  C_18
REMARK   11  A    between atoms: C_18  and  C_19
REMARK   12  A    between atoms: N_21  and  C_22
REMARK   13  A    between atoms: N_21  and  O_23
REMARK                            x       y       z     vdW  Elec       q    Type
REMARK                         _______ _______ _______ _____ _____    ______ ____
ROOT
ATOM      1  C   UNL     1       2.666   4.209  19.664  0.00  0.00    +0.000 C 
ENDROOT
BRANCH   1   6
ATOM      2  C   UNL     1       2.223   7.838  18.545  0.00  0.00    +0.000 A 
ATOM      3  C   UNL     1       1.721   8.409  19.715  0.00  0.00    +0.000 A 
ATOM      4  C   UNL     1       1.564   7.651  20.876  0.00  0.00    +0.000 A 
ATOM      5  C   UNL     1       1.879   6.293  20.851  0.00  0.00    +0.000 A 
ATOM      6  C   UNL     1       2.404   5.697  19.692  0.00  0.00    +0.000 A 
ATOM      7  C   UNL     1       2.590   6.492  18.549  0.00  0.00    +0.000 A 
BRANCH   2   9
ATOM      8  C   UNL     1       2.003  10.053  17.701  0.00  0.00    +0.000 C 
ATOM      9  O   UNL     1       2.303   8.679  17.469  0.00  0.00    +0.000 OA
ENDBRANCH   2   9
BRANCH   4  10
ATOM     10  O   UNL     1       1.087   8.332  21.962  0.00  0.00    +0.000 OA
ATOM     11  C   UNL     1      -0.128   9.055  21.787  0.00  0.00    +0.000 C 
ENDBRANCH   4  10
ENDBRANCH   1   6
BRANCH   1  12
ATOM     12  S   UNL     1       4.262   3.830  18.973  0.00  0.00    +0.000 S 
ATOM     13  O   UNL     1       4.850   2.771  19.784  0.00  0.00    +0.000 OA
ATOM     14  O   UNL     1       4.122   3.621  17.541  0.00  0.00    +0.000 OA
BRANCH  12  15
ATOM     15  C   UNL     1       5.297   5.263  19.139  0.00  0.00    +0.000 C 
BRANCH  15  16
ATOM     16  C   UNL     1       6.485   5.232  18.229  0.00  0.00    +0.000 C 
ATOM     17  O   UNL     1       7.535   4.652  18.508  0.00  0.00    +0.000 OA
ATOM     18  N   UNL     1       6.390   5.931  17.049  0.00  0.00    +0.000 N 
ATOM     19  C   UNL     1       5.351   6.785  16.507  0.00  0.00    +0.000 C 
BRANCH  18  20
ATOM     20  O   UNL     1       7.557   5.955  16.254  0.00  0.00    +0.000 OA
ATOM     21  H   UNL     1       7.448   6.781  15.734  0.00  0.00    +0.000 HD
ENDBRANCH  18  20
ENDBRANCH  15  16
ENDBRANCH  12  15
ENDBRANCH   1  12
BRANCH   1  22
ATOM     22  P   UNL     1       1.592   3.146  18.725  0.00  0.00    +0.000 P 
ATOM     23  O   UNL     1       1.003   3.616  17.436  0.00  0.00    +0.000 OA
BRANCH  22  24
ATOM     24  O   UNL     1       2.276   1.694  18.643  0.00  0.00    +0.000 OA
ATOM     25  H   UNL     1       3.240   1.688  18.856  0.00  0.00    +0.000 HD
ENDBRANCH  22  24
BRANCH  22  26
ATOM     26  O   UNL     1       0.425   2.798  19.780  0.00  0.00    +0.000 OA
ATOM     27  H   UNL     1       0.804   2.573  20.652  0.00  0.00    +0.000 HD
ENDBRANCH  22  26
ENDBRANCH   1  22
TORSDOF 10
ENDMDL
MODEL 2
REMARK VINA RESULT:      -6.9      0.137      2.167
REMARK  Name = 
REMARK  13 active torsions:
REMARK  status: ('A' for Active; 'I' for Inactive)
REMARK    1  A    between atoms: C_1  and  O_2
REMARK    2  A    between atoms: O_2  and  C_3
REMARK    3  A    between atoms: C_5  and  O_6
REMARK    4  A    between atoms: O_6  and  C_7
REMARK    5  A    between atoms: C_9  and  C_10
REMARK    6  A    between atoms: C_10  and  P_11
REMARK    7  A    between atoms: C_10  and  S_15
REMARK    8  A    between atoms: P_11  and  O_13
REMARK    9  A    between atoms: P_11  and  O_14
REMARK   10  A    between atoms: S_15  and  C_18
REMARK   11  A    between atoms: C_18  and  C_19
REMARK   12  A    between atoms: N_21  and  C_22
REMARK   13  A    between atoms: N_21  and  O_23
REMARK                            x       y       z     vdW  Elec       q    Type
REMARK                         _______ _______ _______ _____ _____    ______ ____
ROOT
ATOM      1  C   UNL     1       2.633   4.182  19.715  0.00  0.00    +0.000 C 
ENDROOT
BRANCH   1   6
ATOM      2  C   UNL     1       1.602   7.670  20.893  0.00  0.00    +0.000 A 
ATOM      3  C   UNL     1       1.806   8.408  19.726  0.00  0.00    +0.000 A 
ATOM      4  C   UNL     1       2.229   7.789  18.549  0.00  0.00    +0.000 A 
ATOM      5  C   UNL     1       2.489   6.419  18.555  0.00  0.00    +0.000 A 
ATOM      6  C   UNL     1       2.273   5.650  19.710  0.00  0.00    +0.000 A 
ATOM      7  C   UNL     1       1.807   6.291  20.871  0.00  0.00    +0.000 A 
BRANCH   2   9
ATOM      8  C   UNL     1      -0.025   9.094  21.889  0.00  0.00    +0.000 C 
ATOM      9  O   UNL     1       1.214   8.397  21.986  0.00  0.00    +0.000 OA
ENDBRANCH   2   9
BRANCH   4  10
ATOM     10  O   UNL     1       2.369   8.615  17.468  0.00  0.00    +0.000 OA
ATOM     11  C   UNL     1       2.064   9.992  17.666  0.00  0.00    +0.000 C 
ENDBRANCH   4  10
ENDBRANCH   1   6
BRANCH   1  12
ATOM     12  S   UNL     1       4.241   3.891  19.009  0.00  0.00    +0.000 S 
ATOM     13  O   UNL     1       4.890   2.862  19.811  0.00  0.00    +0.000 OA
ATOM     14  O   UNL     1       4.100   3.680  17.577  0.00  0.00    +0.000 OA
BRANCH  12  15
ATOM     15  C   UNL     1       5.199   5.376  19.172  0.00  0.00    +0.000 C 
BRANCH  15  16
ATOM     16  C   UNL     1       6.429   5.373  18.319  0.00  0.00    +0.000 C 
ATOM     17  O   UNL     1       7.489   4.846  18.662  0.00  0.00    +0.000 OA
ATOM     18  N   UNL     1       6.361   6.035  17.117  0.00  0.00    +0.000 N 
ATOM     19  C   UNL     1       5.313   6.829  16.503  0.00  0.00    +0.000 C 
BRANCH  18  20
ATOM     20  O   UNL     1       7.561   6.089  16.375  0.00  0.00    +0.000 OA
ATOM     21  H   UNL     1       7.592   7.025  16.080  0.00  0.00    +0.000 HD
ENDBRANCH  18  20
ENDBRANCH  15  16
ENDBRANCH  12  15
ENDBRANCH   1  12
BRANCH   1  22
ATOM     22  P   UNL     1       1.618   3.028  18.818  0.00  0.00    +0.000 P 
ATOM     23  O   UNL     1       1.017   3.411  17.506  0.00  0.00    +0.000 OA
BRANCH  22  24
ATOM     24  O   UNL     1       2.372   1.609  18.804  0.00  0.00    +0.000 OA
ATOM     25  H   UNL     1       1.779   0.833  18.943  0.00  0.00    +0.000 HD
ENDBRANCH  22  24
BRANCH  22  26
ATOM     26  O   UNL     1       0.461   2.670  19.881  0.00  0.00    +0.000 OA
ATOM     27  H   UNL     1      -0.402   3.019  19.582  0.00  0.00    +0.000 HD
ENDBRANCH  22  26
ENDBRANCH   1  22
TORSDOF 10
ENDMDL
MODEL 3
REMARK VINA RESULT:      -6.8      2.181      5.697
REMARK  Name = 
REMARK  13 active torsions:
REMARK  status: ('A' for Active; 'I' for Inactive)
REMARK    1  A    between atoms: C_1  and  O_2
REMARK    2  A    between atoms: O_2  and  C_3
REMARK    3  A    between atoms: C_5  and  O_6
REMARK    4  A    between atoms: O_6  and  C_7
REMARK    5  A    between atoms: C_9  and  C_10
REMARK    6  A    between atoms: C_10  and  P_11
REMARK    7  A    between atoms: C_10  and  S_15
REMARK    8  A    between atoms: P_11  and  O_13
REMARK    9  A    between atoms: P_11  and  O_14
REMARK   10  A    between atoms: S_15  and  C_18
REMARK   11  A    between atoms: C_18  and  C_19
REMARK   12  A    between atoms: N_21  and  C_22
REMARK   13  A    between atoms: N_21  and  O_23
REMARK                            x       y       z     vdW  Elec       q    Type
REMARK                         _______ _______ _______ _____ _____    ______ ____
ROOT
ATOM      1  C   UNL     1       3.262   3.293  17.820  0.00  0.00    +0.000 C 
ENDROOT
BRANCH   1   6
ATOM      2  C   UNL     1       6.875   4.540  17.761  0.00  0.00    +0.000 A 
ATOM      3  C   UNL     1       7.046   4.771  16.395  0.00  0.00    +0.000 A 
ATOM      4  C   UNL     1       5.998   4.572  15.495  0.00  0.00    +0.000 A 
ATOM      5  C   UNL     1       4.775   4.099  15.968  0.00  0.00    +0.000 A 
ATOM      6  C   UNL     1       4.570   3.877  17.340  0.00  0.00    +0.000 A 
ATOM      7  C   UNL     1       5.629   4.124  18.230  0.00  0.00    +0.000 A 
BRANCH   2   9
ATOM      8  C   UNL     1       7.954   5.855  19.427  0.00  0.00    +0.000 C 
ATOM      9  O   UNL     1       7.985   4.745  18.534  0.00  0.00    +0.000 OA
ENDBRANCH   2   9
BRANCH   4  10
ATOM     10  O   UNL     1       6.285   4.857  14.189  0.00  0.00    +0.000 OA
ATOM     11  C   UNL     1       6.253   3.769  13.270  0.00  0.00    +0.000 C 
ENDBRANCH   4  10
ENDBRANCH   1   6
BRANCH   1  12
ATOM     12  S   UNL     1       2.184   4.541  18.492  0.00  0.00    +0.000 S 
ATOM     13  O   UNL     1       1.378   5.060  17.394  0.00  0.00    +0.000 OA
ATOM     14  O   UNL     1       1.511   4.007  19.665  0.00  0.00    +0.000 OA
BRANCH  12  15
ATOM     15  C   UNL     1       3.186   5.877  19.094  0.00  0.00    +0.000 C 
BRANCH  15  16
ATOM     16  C   UNL     1       3.092   7.105  18.245  0.00  0.00    +0.000 C 
ATOM     17  O   UNL     1       3.735   7.259  17.205  0.00  0.00    +0.000 OA
ATOM     18  N   UNL     1       2.274   8.116  18.691  0.00  0.00    +0.000 N 
ATOM     19  C   UNL     1       1.496   8.272  19.906  0.00  0.00    +0.000 C 
BRANCH  18  20
ATOM     20  O   UNL     1       2.275   9.295  17.914  0.00  0.00    +0.000 OA
ATOM     21  H   UNL     1       2.475   9.992  18.576  0.00  0.00    +0.000 HD
ENDBRANCH  18  20
ENDBRANCH  15  16
ENDBRANCH  12  15
ENDBRANCH   1  12
BRANCH   1  22
ATOM     22  P   UNL     1       3.269   2.072  19.115  0.00  0.00    +0.000 P 
ATOM     23  O   UNL     1       3.805   2.408  20.467  0.00  0.00    +0.000 OA
BRANCH  22  24
ATOM     24  O   UNL     1       1.826   1.364  19.139  0.00  0.00    +0.000 OA
ATOM     25  H   UNL     1       1.101   1.908  18.750  0.00  0.00    +0.000 HD
ENDBRANCH  22  24
BRANCH  22  26
ATOM     26  O   UNL     1       4.113   0.865  18.462  0.00  0.00    +0.000 OA
ATOM     27  H   UNL     1       3.854   0.009  18.856  0.00  0.00    +0.000 HD
ENDBRANCH  22  26
ENDBRANCH   1  22
TORSDOF 10
ENDMDL
MODEL 4
REMARK VINA RESULT:      -6.7      2.139      5.738
REMARK  Name = 
REMARK  13 active torsions:
REMARK  status: ('A' for Active; 'I' for Inactive)
REMARK    1  A    between atoms: C_1  and  O_2
REMARK    2  A    between atoms: O_2  and  C_3
REMARK    3  A    between atoms: C_5  and  O_6
REMARK    4  A    between atoms: O_6  and  C_7
REMARK    5  A    between atoms: C_9  and  C_10
REMARK    6  A    between atoms: C_10  and  P_11
REMARK    7  A    between atoms: C_10  and  S_15
REMARK    8  A    between atoms: P_11  and  O_13
REMARK    9  A    between atoms: P_11  and  O_14
REMARK   10  A    between atoms: S_15  and  C_18
REMARK   11  A    between atoms: C_18  and  C_19
REMARK   12  A    between atoms: N_21  and  C_22
REMARK   13  A    between atoms: N_21  and  O_23
REMARK                            x       y       z     vdW  Elec       q    Type
REMARK                         _______ _______ _______ _____ _____    ______ ____
ROOT
ATOM      1  C   UNL     1       3.237   3.350  17.845  0.00  0.00    +0.000 C 
ENDROOT
BRANCH   1   6
ATOM      2  C   UNL     1       6.839   4.629  17.936  0.00  0.00    +0.000 A 
ATOM      3  C   UNL     1       6.990   5.070  16.621  0.00  0.00    +0.000 A 
ATOM      4  C   UNL     1       5.931   5.003  15.714  0.00  0.00    +0.000 A 
ATOM      5  C   UNL     1       4.719   4.449  16.122  0.00  0.00    +0.000 A 
ATOM      6  C   UNL     1       4.534   4.015  17.446  0.00  0.00    +0.000 A 
ATOM      7  C   UNL     1       5.603   4.133  18.350  0.00  0.00    +0.000 A 
BRANCH   2   9
ATOM      8  C   UNL     1       8.086   5.892  19.523  0.00  0.00    +0.000 C 
ATOM      9  O   UNL     1       7.958   4.723  18.718  0.00  0.00    +0.000 OA
ENDBRANCH   2   9
BRANCH   4  10
ATOM     10  O   UNL     1       6.198   5.488  14.464  0.00  0.00    +0.000 OA
ATOM     11  C   UNL     1       7.161   4.781  13.688  0.00  0.00    +0.000 C 
ENDBRANCH   4  10
ENDBRANCH   1   6
BRANCH   1  12
ATOM     12  S   UNL     1       2.100   4.505  18.584  0.00  0.00    +0.000 S 
ATOM     13  O   UNL     1       1.315   5.095  17.507  0.00  0.00    +0.000 OA
ATOM     14  O   UNL     1       1.406   3.851  19.681  0.00  0.00    +0.000 OA
BRANCH  12  15
ATOM     15  C   UNL     1       3.039   5.810  19.335  0.00  0.00    +0.000 C 
BRANCH  15  16
ATOM     16  C   UNL     1       2.183   6.930  19.837  0.00  0.00    +0.000 C 
ATOM     17  O   UNL     1       1.525   6.865  20.877  0.00  0.00    +0.000 OA
ATOM     18  N   UNL     1       2.107   8.060  19.058  0.00  0.00    +0.000 N 
ATOM     19  C   UNL     1       2.662   8.381  17.757  0.00  0.00    +0.000 C 
BRANCH  18  20
ATOM     20  O   UNL     1       1.224   9.063  19.513  0.00  0.00    +0.000 OA
ATOM     21  H   UNL     1       0.392   8.565  19.671  0.00  0.00    +0.000 HD
ENDBRANCH  18  20
ENDBRANCH  15  16
ENDBRANCH  12  15
ENDBRANCH   1  12
BRANCH   1  22
ATOM     22  P   UNL     1       3.259   2.033  19.042  0.00  0.00    +0.000 P 
ATOM     23  O   UNL     1       3.758   2.279  20.427  0.00  0.00    +0.000 OA
BRANCH  22  24
ATOM     24  O   UNL     1       1.841   1.281  18.979  0.00  0.00    +0.000 OA
ATOM     25  H   UNL     1       1.323   1.461  18.159  0.00  0.00    +0.000 HD
ENDBRANCH  22  24
BRANCH  22  26
ATOM     26  O   UNL     1       4.156   0.908  18.315  0.00  0.00    +0.000 OA
ATOM     27  H   UNL     1       4.841   1.322  17.754  0.00  0.00    +0.000 HD
ENDBRANCH  22  26
ENDBRANCH   1  22
TORSDOF 10
ENDMDL
MODEL 5
REMARK VINA RESULT:      -6.7      0.945      2.369
REMARK  Name = 
REMARK  13 active torsions:
REMARK  status: ('A' for Active; 'I' for Inactive)
REMARK    1  A    between atoms: C_1  and  O_2
REMARK    2  A    between atoms: O_2  and  C_3
REMARK    3  A    between atoms: C_5  and  O_6
REMARK    4  A    between atoms: O_6  and  C_7
REMARK    5  A    between atoms: C_9  and  C_10
REMARK    6  A    between atoms: C_10  and  P_11
REMARK    7  A    between atoms: C_10  and  S_15
REMARK    8  A    between atoms: P_11  and  O_13
REMARK    9  A    between atoms: P_11  and  O_14
REMARK   10  A    between atoms: S_15  and  C_18
REMARK   11  A    between atoms: C_18  and  C_19
REMARK   12  A    between atoms: N_21  and  C_22
REMARK   13  A    between atoms: N_21  and  O_23
REMARK                            x       y       z     vdW  Elec       q    Type
REMARK                         _______ _______ _______ _____ _____    ______ ____
ROOT
ATOM      1  C   UNL     1       2.852   4.036  19.450  0.00  0.00    +0.000 C 
ENDROOT
BRANCH   1   6
ATOM      2  C   UNL     1       1.459   7.358  20.730  0.00  0.00    +0.000 A 
ATOM      3  C   UNL     1       1.703   8.182  19.630  0.00  0.00    +0.000 A 
ATOM      4  C   UNL     1       2.271   7.671  18.462  0.00  0.00    +0.000 A 
ATOM      5  C   UNL     1       2.635   6.326  18.412  0.00  0.00    +0.000 A 
ATOM      6  C   UNL     1       2.382   5.471  19.498  0.00  0.00    +0.000 A 
ATOM      7  C   UNL     1       1.771   6.001  20.647  0.00  0.00    +0.000 A 
BRANCH   2   9
ATOM      8  C   UNL     1       1.296   9.343  22.034  0.00  0.00    +0.000 C 
ATOM      9  O   UNL     1       0.924   7.984  21.823  0.00  0.00    +0.000 OA
ENDBRANCH   2   9
BRANCH   4  10
ATOM     10  O   UNL     1       2.437   8.573  17.447  0.00  0.00    +0.000 OA
ATOM     11  C   UNL     1       2.044   9.917  17.708  0.00  0.00    +0.000 C 
ENDBRANCH   4  10
ENDBRANCH   1   6
BRANCH   1  12
ATOM     12  S   UNL     1       4.621   3.923  19.282  0.00  0.00    +0.000 S 
ATOM     13  O   UNL     1       5.196   5.114  19.894  0.00  0.00    +0.000 OA
ATOM     14  O   UNL     1       5.059   2.615  19.744  0.00  0.00    +0.000 OA
BRANCH  12  15
ATOM     15  C   UNL     1       5.021   3.967  17.554  0.00  0.00    +0.000 C 
BRANCH  15  16
ATOM     16  C   UNL     1       6.324   4.648  17.274  0.00  0.00    +0.000 C 
ATOM     17  O   UNL     1       7.394   4.290  17.769  0.00  0.00    +0.000 OA
ATOM     18  N   UNL     1       6.292   5.752  16.456  0.00  0.00    +0.000 N 
ATOM     19  C   UNL     1       5.195   6.466  15.830  0.00  0.00    +0.000 C 
BRANCH  18  20
ATOM     20  O   UNL     1       7.522   6.424  16.282  0.00  0.00    +0.000 OA
ATOM     21  H   UNL     1       7.325   7.052  15.553  0.00  0.00    +0.000 HD
ENDBRANCH  18  20
ENDBRANCH  15  16
ENDBRANCH  12  15
ENDBRANCH   1  12
BRANCH   1  22
ATOM     22  P   UNL     1       2.285   2.970  18.143  0.00  0.00    +0.000 P 
ATOM     23  O   UNL     1       2.291   3.443  16.727  0.00  0.00    +0.000 OA
BRANCH  22  24
ATOM     24  O   UNL     1       2.954   1.524  18.355  0.00  0.00    +0.000 OA
ATOM     25  H   UNL     1       2.842   1.155  19.263  0.00  0.00    +0.000 HD
ENDBRANCH  22  24
BRANCH  22  26
ATOM     26  O   UNL     1       0.785   2.607  18.606  0.00  0.00    +0.000 OA
ATOM     27  H   UNL     1       0.136   2.903  17.938  0.00  0.00    +0.000 HD
ENDBRANCH  22  26
ENDBRANCH   1  22
TORSDOF 10
ENDMDL
MODEL 6
REMARK VINA RESULT:      -6.6      2.306      5.841
REMARK  Name = 
REMARK  13 active torsions:
REMARK  status: ('A' for Active; 'I' for Inactive)
REMARK    1  A    between atoms: C_1  and  O_2
REMARK    2  A    between atoms: O_2  and  C_3
REMARK    3  A    between atoms: C_5  and  O_6
REMARK    4  A    between atoms: O_6  and  C_7
REMARK    5  A    between atoms: C_9  and  C_10
REMARK    6  A    between atoms: C_10  and  P_11
REMARK    7  A    between atoms: C_10  and  S_15
REMARK    8  A    between atoms: P_11  and  O_13
REMARK    9  A    between atoms: P_11  and  O_14
REMARK   10  A    between atoms: S_15  and  C_18
REMARK   11  A    between atoms: C_18  and  C_19
REMARK   12  A    between atoms: N_21  and  C_22
REMARK   13  A    between atoms: N_21  and  O_23
REMARK                            x       y       z     vdW  Elec       q    Type
REMARK                         _______ _______ _______ _____ _____    ______ ____
ROOT
ATOM      1  C   UNL     1       3.107   3.828  17.867  0.00  0.00    +0.000 C 
ENDROOT
BRANCH   1   6
ATOM      2  C   UNL     1       6.853   4.579  17.732  0.00  0.00    +0.000 A 
ATOM      3  C   UNL     1       7.034   4.744  16.357  0.00  0.00    +0.000 A 
ATOM      4  C   UNL     1       5.956   4.660  15.475  0.00  0.00    +0.000 A 
ATOM      5  C   UNL     1       4.687   4.369  15.975  0.00  0.00    +0.000 A 
ATOM      6  C   UNL     1       4.475   4.217  17.356  0.00  0.00    +0.000 A 
ATOM      7  C   UNL     1       5.570   4.347  18.226  0.00  0.00    +0.000 A 
BRANCH   2   9
ATOM      8  C   UNL     1       8.048   5.691  19.465  0.00  0.00    +0.000 C 
ATOM      9  O   UNL     1       7.992   4.656  18.486  0.00  0.00    +0.000 OA
ENDBRANCH   2   9
BRANCH   4  10
ATOM     10  O   UNL     1       6.259   4.865  14.157  0.00  0.00    +0.000 OA
ATOM     11  C   UNL     1       6.275   3.717  13.314  0.00  0.00    +0.000 C 
ENDBRANCH   4  10
ENDBRANCH   1   6
BRANCH   1  12
ATOM     12  S   UNL     1       2.564   4.894  19.185  0.00  0.00    +0.000 S 
ATOM     13  O   UNL     1       1.162   4.591  19.443  0.00  0.00    +0.000 OA
ATOM     14  O   UNL     1       3.513   4.813  20.284  0.00  0.00    +0.000 OA
BRANCH  12  15
ATOM     15  C   UNL     1       2.649   6.573  18.616  0.00  0.00    +0.000 C 
BRANCH  15  16
ATOM     16  C   UNL     1       2.009   7.542  19.560  0.00  0.00    +0.000 C 
ATOM     17  O   UNL     1       1.726   7.263  20.726  0.00  0.00    +0.000 OA
ATOM     18  N   UNL     1       1.691   8.784  19.065  0.00  0.00    +0.000 N 
ATOM     19  C   UNL     1       1.794   9.355  17.735  0.00  0.00    +0.000 C 
BRANCH  18  20
ATOM     20  O   UNL     1       1.010   9.644  19.953  0.00  0.00    +0.000 OA
ATOM     21  H   UNL     1       0.853  10.444  19.404  0.00  0.00    +0.000 HD
ENDBRANCH  18  20
ENDBRANCH  15  16
ENDBRANCH  12  15
ENDBRANCH   1  12
BRANCH   1  22
ATOM     22  P   UNL     1       2.862   2.212  18.571  0.00  0.00    +0.000 P 
ATOM     23  O   UNL     1       3.799   1.096  18.247  0.00  0.00    +0.000 OA
BRANCH  22  24
ATOM     24  O   UNL     1       2.573   2.392  20.142  0.00  0.00    +0.000 OA
ATOM     25  H   UNL     1       2.995   1.706  20.712  0.00  0.00    +0.000 HD
ENDBRANCH  22  24
BRANCH  22  26
ATOM     26  O   UNL     1       1.366   1.841  18.098  0.00  0.00    +0.000 OA
ATOM     27  H   UNL     1       0.770   1.763  18.868  0.00  0.00    +0.000 HD
ENDBRANCH  22  26
ENDBRANCH   1  22
TORSDOF 10
ENDMDL
MODEL 7
REMARK VINA RESULT:      -6.6      0.887      1.539
REMARK  Name = 
REMARK  13 active torsions:
REMARK  status: ('A' for Active; 'I' for Inactive)
REMARK    1  A    between atoms: C_1  and  O_2
REMARK    2  A    between atoms: O_2  and  C_3
REMARK    3  A    between atoms: C_5  and  O_6
REMARK    4  A    between atoms: O_6  and  C_7
REMARK    5  A    between atoms: C_9  and  C_10
REMARK    6  A    between atoms: C_10  and  P_11
REMARK    7  A    between atoms: C_10  and  S_15
REMARK    8  A    between atoms: P_11  and  O_13
REMARK    9  A    between atoms: P_11  and  O_14
REMARK   10  A    between atoms: S_15  and  C_18
REMARK   11  A    between atoms: C_18  and  C_19
REMARK   12  A    between atoms: N_21  and  C_22
REMARK   13  A    between atoms: N_21  and  O_23
REMARK                            x       y       z     vdW  Elec       q    Type
REMARK                         _______ _______ _______ _____ _____    ______ ____
ROOT
ATOM      1  C   UNL     1       2.812   4.639  19.434  0.00  0.00    +0.000 C 
ENDROOT
BRANCH   1   6
ATOM      2  C   UNL     1       2.059   8.268  18.499  0.00  0.00    +0.000 A 
ATOM      3  C   UNL     1       1.547   8.745  19.707  0.00  0.00    +0.000 A 
ATOM      4  C   UNL     1       1.482   7.925  20.834  0.00  0.00    +0.000 A 
ATOM      5  C   UNL     1       1.900   6.599  20.737  0.00  0.00    +0.000 A 
ATOM      6  C   UNL     1       2.437   6.099  19.539  0.00  0.00    +0.000 A 
ATOM      7  C   UNL     1       2.529   6.957  18.431  0.00  0.00    +0.000 A 
BRANCH   2   9
ATOM      8  C   UNL     1       2.019  10.545  17.803  0.00  0.00    +0.000 C 
ATOM      9  O   UNL     1       2.043   9.161  17.462  0.00  0.00    +0.000 OA
ENDBRANCH   2   9
BRANCH   4  10
ATOM     10  O   UNL     1       0.984   8.517  21.962  0.00  0.00    +0.000 OA
ATOM     11  C   UNL     1      -0.352   9.006  21.897  0.00  0.00    +0.000 C 
ENDBRANCH   4  10
ENDBRANCH   1   6
BRANCH   1  12
ATOM     12  S   UNL     1       4.232   4.393  18.389  0.00  0.00    +0.000 S 
ATOM     13  O   UNL     1       4.998   3.285  18.946  0.00  0.00    +0.000 OA
ATOM     14  O   UNL     1       3.795   4.318  17.004  0.00  0.00    +0.000 OA
BRANCH  12  15
ATOM     15  C   UNL     1       5.251   5.843  18.481  0.00  0.00    +0.000 C 
BRANCH  15  16
ATOM     16  C   UNL     1       5.904   6.180  17.178  0.00  0.00    +0.000 C 
ATOM     17  O   UNL     1       5.424   6.972  16.365  0.00  0.00    +0.000 OA
ATOM     18  N   UNL     1       7.076   5.528  16.875  0.00  0.00    +0.000 N 
ATOM     19  C   UNL     1       7.811   4.483  17.563  0.00  0.00    +0.000 C 
BRANCH  18  20
ATOM     20  O   UNL     1       7.621   5.802  15.602  0.00  0.00    +0.000 OA
ATOM     21  H   UNL     1       6.952   5.422  14.992  0.00  0.00    +0.000 HD
ENDBRANCH  18  20
ENDBRANCH  15  16
ENDBRANCH  12  15
ENDBRANCH   1  12
BRANCH   1  22
ATOM     22  P   UNL     1       1.646   3.479  18.756  0.00  0.00    +0.000 P 
ATOM     23  O   UNL     1       0.542   2.935  19.602  0.00  0.00    +0.000 OA
BRANCH  22  24
ATOM     24  O   UNL     1       1.164   4.035  17.327  0.00  0.00    +0.000 OA
ATOM     25  H   UNL     1       1.662   3.666  16.560  0.00  0.00    +0.000 HD
ENDBRANCH  22  24
BRANCH  22  26
ATOM     26  O   UNL     1       2.594   2.284  18.237  0.00  0.00    +0.000 OA
ATOM     27  H   UNL     1       2.058   1.533  17.914  0.00  0.00    +0.000 HD
ENDBRANCH  22  26
ENDBRANCH   1  22
TORSDOF 10
ENDMDL
MODEL 8
REMARK VINA RESULT:      -6.5      0.902      1.037
REMARK  Name = 
REMARK  13 active torsions:
REMARK  status: ('A' for Active; 'I' for Inactive)
REMARK    1  A    between atoms: C_1  and  O_2
REMARK    2  A    between atoms: O_2  and  C_3
REMARK    3  A    between atoms: C_5  and  O_6
REMARK    4  A    between atoms: O_6  and  C_7
REMARK    5  A    between atoms: C_9  and  C_10
REMARK    6  A    between atoms: C_10  and  P_11
REMARK    7  A    between atoms: C_10  and  S_15
REMARK    8  A    between atoms: P_11  and  O_13
REMARK    9  A    between atoms: P_11  and  O_14
REMARK   10  A    between atoms: S_15  and  C_18
REMARK   11  A    between atoms: C_18  and  C_19
REMARK   12  A    between atoms: N_21  and  C_22
REMARK   13  A    between atoms: N_21  and  O_23
REMARK                            x       y       z     vdW  Elec       q    Type
REMARK                         _______ _______ _______ _____ _____    ______ ____
ROOT
ATOM      1  C   UNL     1       2.944   4.201  19.506  0.00  0.00    +0.000 C 
ENDROOT
BRANCH   1   6
ATOM      2  C   UNL     1       2.266   7.816  18.463  0.00  0.00    +0.000 A 
ATOM      3  C   UNL     1       1.667   8.311  19.623  0.00  0.00    +0.000 A 
ATOM      4  C   UNL     1       1.517   7.509  20.754  0.00  0.00    +0.000 A 
ATOM      5  C   UNL     1       1.939   6.180  20.708  0.00  0.00    +0.000 A 
ATOM      6  C   UNL     1       2.563   5.663  19.560  0.00  0.00    +0.000 A 
ATOM      7  C   UNL     1       2.739   6.504  18.449  0.00  0.00    +0.000 A 
BRANCH   2   9
ATOM      8  C   UNL     1       1.975  10.047  17.685  0.00  0.00    +0.000 C 
ATOM      9  O   UNL     1       2.329   8.694  17.415  0.00  0.00    +0.000 OA
ENDBRANCH   2   9
BRANCH   4  10
ATOM     10  O   UNL     1       0.937   8.117  21.833  0.00  0.00    +0.000 OA
ATOM     11  C   UNL     1       0.691   9.516  21.729  0.00  0.00    +0.000 C 
ENDBRANCH   4  10
ENDBRANCH   1   6
BRANCH   1  12
ATOM     12  S   UNL     1       4.687   3.980  19.221  0.00  0.00    +0.000 S 
ATOM     13  O   UNL     1       5.375   5.122  19.810  0.00  0.00    +0.000 OA
ATOM     14  O   UNL     1       5.070   2.640  19.635  0.00  0.00    +0.000 OA
BRANCH  12  15
ATOM     15  C   UNL     1       4.977   4.030  17.470  0.00  0.00    +0.000 C 
BRANCH  15  16
ATOM     16  C   UNL     1       6.288   4.656  17.114  0.00  0.00    +0.000 C 
ATOM     17  O   UNL     1       7.372   4.238  17.526  0.00  0.00    +0.000 OA
ATOM     18  N   UNL     1       6.253   5.779  16.322  0.00  0.00    +0.000 N 
ATOM     19  C   UNL     1       5.151   6.556  15.787  0.00  0.00    +0.000 C 
BRANCH  18  20
ATOM     20  O   UNL     1       7.499   6.397  16.075  0.00  0.00    +0.000 OA
ATOM     21  H   UNL     1       8.108   5.632  15.987  0.00  0.00    +0.000 HD
ENDBRANCH  18  20
ENDBRANCH  15  16
ENDBRANCH  12  15
ENDBRANCH   1  12
BRANCH   1  22
ATOM     22  P   UNL     1       2.227   3.154  18.259  0.00  0.00    +0.000 P 
ATOM     23  O   UNL     1       2.140   3.616  16.842  0.00  0.00    +0.000 OA
BRANCH  22  24
ATOM     24  O   UNL     1       2.845   1.680  18.432  0.00  0.00    +0.000 OA
ATOM     25  H   UNL     1       2.333   1.094  19.038  0.00  0.00    +0.000 HD
ENDBRANCH  22  24
BRANCH  22  26
ATOM     26  O   UNL     1       0.754   2.862  18.844  0.00  0.00    +0.000 OA
ATOM     27  H   UNL     1       0.122   3.545  18.545  0.00  0.00    +0.000 HD
ENDBRANCH  22  26
ENDBRANCH   1  22
TORSDOF 10
ENDMDL
MODEL 9
REMARK VINA RESULT:      -6.5      2.197      5.358
REMARK  Name = 
REMARK  13 active torsions:
REMARK  status: ('A' for Active; 'I' for Inactive)
REMARK    1  A    between atoms: C_1  and  O_2
REMARK    2  A    between atoms: O_2  and  C_3
REMARK    3  A    between atoms: C_5  and  O_6
REMARK    4  A    between atoms: O_6  and  C_7
REMARK    5  A    between atoms: C_9  and  C_10
REMARK    6  A    between atoms: C_10  and  P_11
REMARK    7  A    between atoms: C_10  and  S_15
REMARK    8  A    between atoms: P_11  and  O_13
REMARK    9  A    between atoms: P_11  and  O_14
REMARK   10  A    between atoms: S_15  and  C_18
REMARK   11  A    between atoms: C_18  and  C_19
REMARK   12  A    between atoms: N_21  and  C_22
REMARK   13  A    between atoms: N_21  and  O_23
REMARK                            x       y       z     vdW  Elec       q    Type
REMARK                         _______ _______ _______ _____ _____    ______ ____
ROOT
ATOM      1  C   UNL     1       3.318   3.192  17.852  0.00  0.00    +0.000 C 
ENDROOT
BRANCH   1   6
ATOM      2  C   UNL     1       6.104   4.704  15.716  0.00  0.00    +0.000 A 
ATOM      3  C   UNL     1       6.997   5.113  16.708  0.00  0.00    +0.000 A 
ATOM      4  C   UNL     1       6.735   4.868  18.056  0.00  0.00    +0.000 A 
ATOM      5  C   UNL     1       5.543   4.240  18.416  0.00  0.00    +0.000 A 
ATOM      6  C   UNL     1       4.636   3.802  17.436  0.00  0.00    +0.000 A 
ATOM      7  C   UNL     1       4.944   4.023  16.084  0.00  0.00    +0.000 A 
BRANCH   2   9
ATOM      8  C   UNL     1       6.318   4.009  13.449  0.00  0.00    +0.000 C 
ATOM      9  O   UNL     1       6.463   5.027  14.435  0.00  0.00    +0.000 OA
ENDBRANCH   2   9
BRANCH   4  10
ATOM     10  O   UNL     1       7.698   5.295  18.928  0.00  0.00    +0.000 OA
ATOM     11  C   UNL     1       8.111   6.654  18.818  0.00  0.00    +0.000 C 
ENDBRANCH   4  10
ENDBRANCH   1   6
BRANCH   1  12
ATOM     12  S   UNL     1       2.190   4.416  18.483  0.00  0.00    +0.000 S 
ATOM     13  O   UNL     1       1.493   4.998  17.343  0.00  0.00    +0.000 OA
ATOM     14  O   UNL     1       1.408   3.831  19.560  0.00  0.00    +0.000 OA
BRANCH  12  15
ATOM     15  C   UNL     1       3.139   5.710  19.243  0.00  0.00    +0.000 C 
BRANCH  15  16
ATOM     16  C   UNL     1       2.290   6.821  19.775  0.00  0.00    +0.000 C 
ATOM     17  O   UNL     1       1.648   6.740  20.824  0.00  0.00    +0.000 OA
ATOM     18  N   UNL     1       2.201   7.963  19.015  0.00  0.00    +0.000 N 
ATOM     19  C   UNL     1       2.735   8.304  17.710  0.00  0.00    +0.000 C 
BRANCH  18  20
ATOM     20  O   UNL     1       1.324   8.957  19.499  0.00  0.00    +0.000 OA
ATOM     21  H   UNL     1       1.422   9.675  18.836  0.00  0.00    +0.000 HD
ENDBRANCH  18  20
ENDBRANCH  15  16
ENDBRANCH  12  15
ENDBRANCH   1  12
BRANCH   1  22
ATOM     22  P   UNL     1       3.286   1.960  19.136  0.00  0.00    +0.000 P 
ATOM     23  O   UNL     1       3.738   2.298  20.518  0.00  0.00    +0.000 OA
BRANCH  22  24
ATOM     24  O   UNL     1       1.865   1.214  19.074  0.00  0.00    +0.000 OA
ATOM     25  H   UNL     1       1.583   0.953  18.165  0.00  0.00    +0.000 HD
ENDBRANCH  22  24
BRANCH  22  26
ATOM     26  O   UNL     1       4.199   0.782  18.521  0.00  0.00    +0.000 OA
ATOM     27  H   UNL     1       5.096   0.803  18.908  0.00  0.00    +0.000 HD
ENDBRANCH  22  26
ENDBRANCH   1  22
TORSDOF 10
ENDMDL
