MODEL 1
REMARK VINA RESULT:      -8.8      0.000      0.000
REMARK  Name = 
REMARK  6 active torsions:
REMARK  status: ('A' for Active; 'I' for Inactive)
REMARK    1  A    between atoms: C_1  and  C_2
REMARK    2  A    between atoms: C_2  and  C_3
REMARK    3  A    between atoms: C_2  and  N_15
REMARK    4  A    between atoms: C_3  and  N_4
REMARK    5  A    between atoms: C_5  and  C_7
REMARK    6  A    between atoms: N_25  and  C_26
REMARK                            x       y       z     vdW  Elec       q    Type
REMARK                         _______ _______ _______ _____ _____    ______ ____
ROOT
ATOM      1  N   UNL     1       2.817   6.950  19.261  0.00  0.00    +0.000 NA
ATOM      2  C   UNL     1       3.229   5.955  20.257  0.00  0.00    +0.000 C 
ATOM      3  C   UNL     1       2.670   4.548  20.112  0.00  0.00    +0.000 C 
ATOM      4  C   UNL     1       2.590   4.039  18.675  0.00  0.00    +0.000 C 
ATOM      5  C   UNL     1       2.164   5.098  17.659  0.00  0.00    +0.000 C 
ATOM      6  C   UNL     1       2.848   6.434  17.883  0.00  0.00    +0.000 C 
ATOM      7  C   UNL     1       1.495   2.952  18.631  0.00  0.00    +0.000 C 
ATOM      8  O   UNL     1       0.306   3.063  18.886  0.00  0.00    +0.000 OA
ATOM      9  N   UNL     1       2.087   1.776  18.249  0.00  0.00    +0.000 N 
ATOM     10  C   UNL     1       3.507   1.830  18.290  0.00  0.00    +0.000 C 
ATOM     11  N   UNL     1       3.818   3.250  18.310  0.00  0.00    +0.000 N 
ATOM     12  H   UNL     1       1.548   0.924  18.234  0.00  0.00    +0.000 HD
ENDROOT
BRANCH  11  13
ATOM     13  C   UNL     1       4.884   3.770  17.602  0.00  0.00    +0.000 A 
ATOM     14  C   UNL     1       5.978   4.392  18.201  0.00  0.00    +0.000 A 
ATOM     15  C   UNL     1       7.100   4.786  17.454  0.00  0.00    +0.000 A 
ATOM     16  C   UNL     1       7.173   4.537  16.086  0.00  0.00    +0.000 A 
ATOM     17  C   UNL     1       6.091   3.962  15.458  0.00  0.00    +0.000 A 
ATOM     18  C   UNL     1       4.955   3.663  16.208  0.00  0.00    +0.000 A 
ENDBRANCH  11  13
BRANCH   1  20
ATOM     19  C   UNL     1       1.431   7.713  21.170  0.00  0.00    +0.000 C 
ATOM     20  C   UNL     1       1.574   7.656  19.629  0.00  0.00    +0.000 C 
BRANCH  20  21
ATOM     21  C   UNL     1       1.582   9.119  19.106  0.00  0.00    +0.000 C 
BRANCH  21  22
ATOM     22  N   UNL     1       0.381   9.489  18.418  0.00  0.00    +0.000 N 
ATOM     23  C   UNL     1      -0.443  10.433  18.999  0.00  0.00    +0.000 C 
ATOM     24  O   UNL     1      -0.206  11.011  20.045  0.00  0.00    +0.000 OA
ATOM     25  H   UNL     1       0.061   8.901  17.666  0.00  0.00    +0.000 HD
BRANCH  23  26
ATOM     26  C   UNL     1      -1.703  10.687  18.289  0.00  0.00    +0.000 A 
ATOM     27  C   UNL     1      -2.670  11.550  18.835  0.00  0.00    +0.000 A 
ATOM     28  C   UNL     1      -3.867  11.725  18.165  0.00  0.00    +0.000 A 
ATOM     29  C   UNL     1      -4.095  11.048  16.970  0.00  0.00    +0.000 A 
ATOM     30  F   UNL     1      -5.260  11.219  16.333  0.00  0.00    +0.000 F 
ATOM     31  C   UNL     1      -3.133  10.203  16.434  0.00  0.00    +0.000 A 
ATOM     32  F   UNL     1      -3.358   9.561  15.278  0.00  0.00    +0.000 F 
ATOM     33  C   UNL     1      -1.922  10.013  17.086  0.00  0.00    +0.000 A 
ENDBRANCH  23  26
ENDBRANCH  21  22
ENDBRANCH  20  21
ENDBRANCH   1  20
TORSDOF 5
ENDMDL
MODEL 2
REMARK VINA RESULT:      -8.7      0.529      1.235
REMARK  Name = 
REMARK  6 active torsions:
REMARK  status: ('A' for Active; 'I' for Inactive)
REMARK    1  A    between atoms: C_1  and  C_2
REMARK    2  A    between atoms: C_2  and  C_3
REMARK    3  A    between atoms: C_2  and  N_15
REMARK    4  A    between atoms: C_3  and  N_4
REMARK    5  A    between atoms: C_5  and  C_7
REMARK    6  A    between atoms: N_25  and  C_26
REMARK                            x       y       z     vdW  Elec       q    Type
REMARK                         _______ _______ _______ _____ _____    ______ ____
ROOT
ATOM      1  N   UNL     1       2.803   6.977  19.229  0.00  0.00    +0.000 NA
ATOM      2  C   UNL     1       3.207   5.995  20.241  0.00  0.00    +0.000 C 
ATOM      3  C   UNL     1       2.646   4.587  20.113  0.00  0.00    +0.000 C 
ATOM      4  C   UNL     1       2.574   4.058  18.683  0.00  0.00    +0.000 C 
ATOM      5  C   UNL     1       2.155   5.103  17.650  0.00  0.00    +0.000 C 
ATOM      6  C   UNL     1       2.841   6.441  17.858  0.00  0.00    +0.000 C 
ATOM      7  C   UNL     1       1.477   2.973  18.648  0.00  0.00    +0.000 C 
ATOM      8  O   UNL     1       0.287   3.089  18.895  0.00  0.00    +0.000 OA
ATOM      9  N   UNL     1       2.068   1.790  18.286  0.00  0.00    +0.000 N 
ATOM     10  C   UNL     1       3.488   1.842  18.334  0.00  0.00    +0.000 C 
ATOM     11  N   UNL     1       3.802   3.262  18.336  0.00  0.00    +0.000 N 
ATOM     12  H   UNL     1       1.528   0.939  18.281  0.00  0.00    +0.000 HD
ENDROOT
BRANCH  11  13
ATOM     13  C   UNL     1       4.873   3.769  17.627  0.00  0.00    +0.000 A 
ATOM     14  C   UNL     1       5.967   4.394  18.223  0.00  0.00    +0.000 A 
ATOM     15  C   UNL     1       7.094   4.775  17.477  0.00  0.00    +0.000 A 
ATOM     16  C   UNL     1       7.171   4.511  16.111  0.00  0.00    +0.000 A 
ATOM     17  C   UNL     1       6.089   3.933  15.486  0.00  0.00    +0.000 A 
ATOM     18  C   UNL     1       4.948   3.648  16.234  0.00  0.00    +0.000 A 
ENDBRANCH  11  13
BRANCH   1  20
ATOM     19  C   UNL     1       1.409   7.773  21.120  0.00  0.00    +0.000 C 
ATOM     20  C   UNL     1       1.560   7.690  19.580  0.00  0.00    +0.000 C 
BRANCH  20  21
ATOM     21  C   UNL     1       1.571   9.144  19.034  0.00  0.00    +0.000 C 
BRANCH  21  22
ATOM     22  N   UNL     1       0.362   9.515  18.362  0.00  0.00    +0.000 N 
ATOM     23  C   UNL     1      -0.545  10.311  19.035  0.00  0.00    +0.000 C 
ATOM     24  O   UNL     1      -0.376  10.759  20.156  0.00  0.00    +0.000 OA
ATOM     25  H   UNL     1       0.104   9.011  17.529  0.00  0.00    +0.000 HD
BRANCH  23  26
ATOM     26  C   UNL     1      -1.804  10.565  18.325  0.00  0.00    +0.000 A 
ATOM     27  C   UNL     1      -2.043   9.993  17.063  0.00  0.00    +0.000 A 
ATOM     28  C   UNL     1      -3.217  10.296  16.400  0.00  0.00    +0.000 A 
ATOM     29  C   UNL     1      -4.138  11.161  16.986  0.00  0.00    +0.000 A 
ATOM     30  F   UNL     1      -5.268  11.454  16.332  0.00  0.00    +0.000 F 
ATOM     31  C   UNL     1      -3.899  11.717  18.235  0.00  0.00    +0.000 A 
ATOM     32  F   UNL     1      -4.795  12.543  18.796  0.00  0.00    +0.000 F 
ATOM     33  C   UNL     1      -2.728  11.426  18.922  0.00  0.00    +0.000 A 
ENDBRANCH  23  26
ENDBRANCH  21  22
ENDBRANCH  20  21
ENDBRANCH   1  20
TORSDOF 5
ENDMDL
MODEL 3
REMARK VINA RESULT:      -8.2      2.961      3.396
REMARK  Name = 
REMARK  6 active torsions:
REMARK  status: ('A' for Active; 'I' for Inactive)
REMARK    1  A    between atoms: C_1  and  C_2
REMARK    2  A    between atoms: C_2  and  C_3
REMARK    3  A    between atoms: C_2  and  N_15
REMARK    4  A    between atoms: C_3  and  N_4
REMARK    5  A    between atoms: C_5  and  C_7
REMARK    6  A    between atoms: N_25  and  C_26
REMARK                            x       y       z     vdW  Elec       q    Type
REMARK                         _______ _______ _______ _____ _____    ______ ____
ROOT
ATOM      1  N   UNL     1       2.746   6.830  19.292  0.00  0.00    +0.000 NA
ATOM      2  C   UNL     1       3.235   5.833  20.250  0.00  0.00    +0.000 C 
ATOM      3  C   UNL     1       2.733   4.406  20.092  0.00  0.00    +0.000 C 
ATOM      4  C   UNL     1       2.625   3.925  18.647  0.00  0.00    +0.000 C 
ATOM      5  C   UNL     1       2.118   4.986  17.671  0.00  0.00    +0.000 C 
ATOM      6  C   UNL     1       2.751   6.346  17.903  0.00  0.00    +0.000 C 
ATOM      7  C   UNL     1       1.577   2.793  18.615  0.00  0.00    +0.000 C 
ATOM      8  O   UNL     1       0.394   2.846  18.913  0.00  0.00    +0.000 OA
ATOM      9  N   UNL     1       2.205   1.653  18.186  0.00  0.00    +0.000 N 
ATOM     10  C   UNL     1       3.621   1.768  18.179  0.00  0.00    +0.000 C 
ATOM     11  N   UNL     1       3.871   3.199  18.222  0.00  0.00    +0.000 N 
ATOM     12  H   UNL     1       1.703   0.778  18.170  0.00  0.00    +0.000 HD
ENDROOT
BRANCH  11  13
ATOM     13  C   UNL     1       4.889   3.781  17.490  0.00  0.00    +0.000 A 
ATOM     14  C   UNL     1       5.973   4.440  18.066  0.00  0.00    +0.000 A 
ATOM     15  C   UNL     1       7.051   4.900  17.291  0.00  0.00    +0.000 A 
ATOM     16  C   UNL     1       7.089   4.681  15.916  0.00  0.00    +0.000 A 
ATOM     17  C   UNL     1       6.013   4.070  15.312  0.00  0.00    +0.000 A 
ATOM     18  C   UNL     1       4.917   3.705  16.093  0.00  0.00    +0.000 A 
ENDBRANCH  11  13
BRANCH   1  20
ATOM     19  C   UNL     1       1.336   7.377  21.258  0.00  0.00    +0.000 C 
ATOM     20  C   UNL     1       1.488   7.473  19.719  0.00  0.00    +0.000 C 
BRANCH  20  21
ATOM     21  C   UNL     1       1.469   8.979  19.341  0.00  0.00    +0.000 C 
BRANCH  21  22
ATOM     22  N   UNL     1       0.724   9.792  20.256  0.00  0.00    +0.000 N 
ATOM     23  C   UNL     1       0.756  11.163  20.091  0.00  0.00    +0.000 C 
ATOM     24  O   UNL     1       1.344  11.740  19.193  0.00  0.00    +0.000 OA
ATOM     25  H   UNL     1       0.396   9.372  21.110  0.00  0.00    +0.000 HD
BRANCH  23  26
ATOM     26  C   UNL     1       0.055  11.935  21.124  0.00  0.00    +0.000 A 
ATOM     27  C   UNL     1       0.383  13.283  21.356  0.00  0.00    +0.000 A 
ATOM     28  C   UNL     1      -0.261  13.965  22.372  0.00  0.00    +0.000 A 
ATOM     29  C   UNL     1      -1.215  13.311  23.146  0.00  0.00    +0.000 A 
ATOM     30  F   UNL     1      -1.827  13.977  24.132  0.00  0.00    +0.000 F 
ATOM     31  C   UNL     1      -1.539  11.982  22.907  0.00  0.00    +0.000 A 
ATOM     32  F   UNL     1      -2.465  11.362  23.653  0.00  0.00    +0.000 F 
ATOM     33  C   UNL     1      -0.908  11.277  21.891  0.00  0.00    +0.000 A 
ENDBRANCH  23  26
ENDBRANCH  21  22
ENDBRANCH  20  21
ENDBRANCH   1  20
TORSDOF 5
ENDMDL
MODEL 4
REMARK VINA RESULT:      -8.1      2.316      2.807
REMARK  Name = 
REMARK  6 active torsions:
REMARK  status: ('A' for Active; 'I' for Inactive)
REMARK    1  A    between atoms: C_1  and  C_2
REMARK    2  A    between atoms: C_2  and  C_3
REMARK    3  A    between atoms: C_2  and  N_15
REMARK    4  A    between atoms: C_3  and  N_4
REMARK    5  A    between atoms: C_5  and  C_7
REMARK    6  A    between atoms: N_25  and  C_26
REMARK                            x       y       z     vdW  Elec       q    Type
REMARK                         _______ _______ _______ _____ _____    ______ ____
ROOT
ATOM      1  N   UNL     1       2.692   6.966  19.386  0.00  0.00    +0.000 NA
ATOM      2  C   UNL     1       3.108   5.971  20.381  0.00  0.00    +0.000 C 
ATOM      3  C   UNL     1       2.576   4.555  20.218  0.00  0.00    +0.000 C 
ATOM      4  C   UNL     1       2.524   4.056  18.776  0.00  0.00    +0.000 C 
ATOM      5  C   UNL     1       2.094   5.115  17.763  0.00  0.00    +0.000 C 
ATOM      6  C   UNL     1       2.752   6.461  18.005  0.00  0.00    +0.000 C 
ATOM      7  C   UNL     1       1.450   2.951  18.709  0.00  0.00    +0.000 C 
ATOM      8  O   UNL     1       0.255   3.039  18.949  0.00  0.00    +0.000 OA
ATOM      9  N   UNL     1       2.067   1.788  18.327  0.00  0.00    +0.000 N 
ATOM     10  C   UNL     1       3.485   1.866  18.388  0.00  0.00    +0.000 C 
ATOM     11  N   UNL     1       3.771   3.291  18.423  0.00  0.00    +0.000 N 
ATOM     12  H   UNL     1       1.543   0.927  18.299  0.00  0.00    +0.000 HD
ENDROOT
BRANCH  11  13
ATOM     13  C   UNL     1       4.837   3.835  17.733  0.00  0.00    +0.000 A 
ATOM     14  C   UNL     1       5.916   4.463  18.352  0.00  0.00    +0.000 A 
ATOM     15  C   UNL     1       7.041   4.882  17.623  0.00  0.00    +0.000 A 
ATOM     16  C   UNL     1       7.132   4.653  16.252  0.00  0.00    +0.000 A 
ATOM     17  C   UNL     1       6.064   4.073  15.605  0.00  0.00    +0.000 A 
ATOM     18  C   UNL     1       4.924   3.749  16.339  0.00  0.00    +0.000 A 
ENDBRANCH  11  13
BRANCH   1  20
ATOM     19  C   UNL     1       1.204   7.579  21.273  0.00  0.00    +0.000 C 
ATOM     20  C   UNL     1       1.433   7.648  19.743  0.00  0.00    +0.000 C 
BRANCH  20  21
ATOM     21  C   UNL     1       1.472   9.148  19.344  0.00  0.00    +0.000 C 
BRANCH  21  22
ATOM     22  N   UNL     1       0.270   9.859  19.661  0.00  0.00    +0.000 N 
ATOM     23  C   UNL     1       0.327  10.852  20.619  0.00  0.00    +0.000 C 
ATOM     24  O   UNL     1       1.343  11.201  21.196  0.00  0.00    +0.000 OA
ATOM     25  H   UNL     1      -0.608   9.472  19.356  0.00  0.00    +0.000 HD
BRANCH  23  26
ATOM     26  C   UNL     1      -0.960  11.466  20.965  0.00  0.00    +0.000 A 
ATOM     27  C   UNL     1      -1.770  12.039  19.968  0.00  0.00    +0.000 A 
ATOM     28  C   UNL     1      -2.952  12.655  20.336  0.00  0.00    +0.000 A 
ATOM     29  C   UNL     1      -3.318  12.700  21.679  0.00  0.00    +0.000 A 
ATOM     30  F   UNL     1      -4.461  13.305  22.025  0.00  0.00    +0.000 F 
ATOM     31  C   UNL     1      -2.517  12.126  22.657  0.00  0.00    +0.000 A 
ATOM     32  F   UNL     1      -2.882  12.167  23.947  0.00  0.00    +0.000 F 
ATOM     33  C   UNL     1      -1.327  11.500  22.312  0.00  0.00    +0.000 A 
ENDBRANCH  23  26
ENDBRANCH  21  22
ENDBRANCH  20  21
ENDBRANCH   1  20
TORSDOF 5
ENDMDL
MODEL 5
REMARK VINA RESULT:      -8.1      2.146      2.659
REMARK  Name = 
REMARK  6 active torsions:
REMARK  status: ('A' for Active; 'I' for Inactive)
REMARK    1  A    between atoms: C_1  and  C_2
REMARK    2  A    between atoms: C_2  and  C_3
REMARK    3  A    between atoms: C_2  and  N_15
REMARK    4  A    between atoms: C_3  and  N_4
REMARK    5  A    between atoms: C_5  and  C_7
REMARK    6  A    between atoms: N_25  and  C_26
REMARK                            x       y       z     vdW  Elec       q    Type
REMARK                         _______ _______ _______ _____ _____    ______ ____
ROOT
ATOM      1  N   UNL     1       2.643   6.922  19.413  0.00  0.00    +0.000 NA
ATOM      2  C   UNL     1       3.081   5.913  20.384  0.00  0.00    +0.000 C 
ATOM      3  C   UNL     1       2.567   4.493  20.195  0.00  0.00    +0.000 C 
ATOM      4  C   UNL     1       2.512   4.023  18.744  0.00  0.00    +0.000 C 
ATOM      5  C   UNL     1       2.059   5.096  17.756  0.00  0.00    +0.000 C 
ATOM      6  C   UNL     1       2.700   6.446  18.022  0.00  0.00    +0.000 C 
ATOM      7  C   UNL     1       1.453   2.904  18.661  0.00  0.00    +0.000 C 
ATOM      8  O   UNL     1       0.259   2.970  18.911  0.00  0.00    +0.000 OA
ATOM      9  N   UNL     1       2.084   1.759  18.250  0.00  0.00    +0.000 N 
ATOM     10  C   UNL     1       3.501   1.856  18.303  0.00  0.00    +0.000 C 
ATOM     11  N   UNL     1       3.767   3.284  18.365  0.00  0.00    +0.000 N 
ATOM     12  H   UNL     1       1.572   0.891  18.208  0.00  0.00    +0.000 HD
ENDROOT
BRANCH  11  13
ATOM     13  C   UNL     1       4.820   3.856  17.680  0.00  0.00    +0.000 A 
ATOM     14  C   UNL     1       5.878   4.517  18.303  0.00  0.00    +0.000 A 
ATOM     15  C   UNL     1       6.994   4.968  17.578  0.00  0.00    +0.000 A 
ATOM     16  C   UNL     1       7.097   4.739  16.208  0.00  0.00    +0.000 A 
ATOM     17  C   UNL     1       6.050   4.126  15.557  0.00  0.00    +0.000 A 
ATOM     18  C   UNL     1       4.916   3.770  16.286  0.00  0.00    +0.000 A 
ENDBRANCH  11  13
BRANCH   1  20
ATOM     19  C   UNL     1       1.180   7.509  21.328  0.00  0.00    +0.000 C 
ATOM     20  C   UNL     1       1.377   7.578  19.793  0.00  0.00    +0.000 C 
BRANCH  20  21
ATOM     21  C   UNL     1       1.377   9.078  19.389  0.00  0.00    +0.000 C 
BRANCH  21  22
ATOM     22  N   UNL     1       0.237   9.801  19.867  0.00  0.00    +0.000 N 
ATOM     23  C   UNL     1       0.435  10.782  20.820  0.00  0.00    +0.000 C 
ATOM     24  O   UNL     1       1.522  11.110  21.261  0.00  0.00    +0.000 OA
ATOM     25  H   UNL     1      -0.679   9.430  19.676  0.00  0.00    +0.000 HD
BRANCH  23  26
ATOM     26  C   UNL     1      -0.787  11.410  21.337  0.00  0.00    +0.000 A 
ATOM     27  C   UNL     1      -1.105  11.338  22.704  0.00  0.00    +0.000 A 
ATOM     28  C   UNL     1      -2.290  11.895  23.148  0.00  0.00    +0.000 A 
ATOM     29  C   UNL     1      -3.146  12.512  22.240  0.00  0.00    +0.000 A 
ATOM     30  F   UNL     1      -4.294  13.042  22.678  0.00  0.00    +0.000 F 
ATOM     31  C   UNL     1      -2.822  12.586  20.892  0.00  0.00    +0.000 A 
ATOM     32  F   UNL     1      -3.649  13.190  20.025  0.00  0.00    +0.000 F 
ATOM     33  C   UNL     1      -1.637  12.036  20.422  0.00  0.00    +0.000 A 
ENDBRANCH  23  26
ENDBRANCH  21  22
ENDBRANCH  20  21
ENDBRANCH   1  20
TORSDOF 5
ENDMDL
MODEL 6
REMARK VINA RESULT:      -8.1      1.362      1.802
REMARK  Name = 
REMARK  6 active torsions:
REMARK  status: ('A' for Active; 'I' for Inactive)
REMARK    1  A    between atoms: C_1  and  C_2
REMARK    2  A    between atoms: C_2  and  C_3
REMARK    3  A    between atoms: C_2  and  N_15
REMARK    4  A    between atoms: C_3  and  N_4
REMARK    5  A    between atoms: C_5  and  C_7
REMARK    6  A    between atoms: N_25  and  C_26
REMARK                            x       y       z     vdW  Elec       q    Type
REMARK                         _______ _______ _______ _____ _____    ______ ____
ROOT
ATOM      1  N   UNL     1       2.653   6.937  19.405  0.00  0.00    +0.000 NA
ATOM      2  C   UNL     1       3.031   5.931  20.404  0.00  0.00    +0.000 C 
ATOM      3  C   UNL     1       2.483   4.524  20.221  0.00  0.00    +0.000 C 
ATOM      4  C   UNL     1       2.460   4.032  18.776  0.00  0.00    +0.000 C 
ATOM      5  C   UNL     1       2.068   5.102  17.758  0.00  0.00    +0.000 C 
ATOM      6  C   UNL     1       2.739   6.438  18.024  0.00  0.00    +0.000 C 
ATOM      7  C   UNL     1       1.372   2.943  18.677  0.00  0.00    +0.000 C 
ATOM      8  O   UNL     1       0.174   3.046  18.888  0.00  0.00    +0.000 OA
ATOM      9  N   UNL     1       1.982   1.773  18.303  0.00  0.00    +0.000 N 
ATOM     10  C   UNL     1       3.399   1.831  18.399  0.00  0.00    +0.000 C 
ATOM     11  N   UNL     1       3.704   3.252  18.448  0.00  0.00    +0.000 N 
ATOM     12  H   UNL     1       1.447   0.920  18.258  0.00  0.00    +0.000 HD
ENDROOT
BRANCH  11  13
ATOM     13  C   UNL     1       4.794   3.784  17.787  0.00  0.00    +0.000 A 
ATOM     14  C   UNL     1       5.844   4.435  18.432  0.00  0.00    +0.000 A 
ATOM     15  C   UNL     1       6.995   4.843  17.737  0.00  0.00    +0.000 A 
ATOM     16  C   UNL     1       7.141   4.578  16.377  0.00  0.00    +0.000 A 
ATOM     17  C   UNL     1       6.103   3.974  15.704  0.00  0.00    +0.000 A 
ATOM     18  C   UNL     1       4.936   3.663  16.400  0.00  0.00    +0.000 A 
ENDBRANCH  11  13
BRANCH   1  20
ATOM     19  C   UNL     1       1.301   7.870  21.263  0.00  0.00    +0.000 C 
ATOM     20  C   UNL     1       1.395   7.634  19.735  0.00  0.00    +0.000 C 
BRANCH  20  21
ATOM     21  C   UNL     1       1.323   9.023  19.043  0.00  0.00    +0.000 C 
BRANCH  21  22
ATOM     22  N   UNL     1       0.260   9.851  19.527  0.00  0.00    +0.000 N 
ATOM     23  C   UNL     1      -0.726  10.239  18.640  0.00  0.00    +0.000 C 
ATOM     24  O   UNL     1      -0.782   9.893  17.472  0.00  0.00    +0.000 OA
ATOM     25  H   UNL     1       0.377  10.309  20.416  0.00  0.00    +0.000 HD
BRANCH  23  26
ATOM     26  C   UNL     1      -1.725  11.169  19.180  0.00  0.00    +0.000 A 
ATOM     27  C   UNL     1      -1.473  11.881  20.365  0.00  0.00    +0.000 A 
ATOM     28  C   UNL     1      -2.457  12.709  20.873  0.00  0.00    +0.000 A 
ATOM     29  C   UNL     1      -3.676  12.821  20.209  0.00  0.00    +0.000 A 
ATOM     30  F   UNL     1      -4.625  13.619  20.712  0.00  0.00    +0.000 F 
ATOM     31  C   UNL     1      -3.915  12.119  19.035  0.00  0.00    +0.000 A 
ATOM     32  F   UNL     1      -5.089  12.240  18.397  0.00  0.00    +0.000 F 
ATOM     33  C   UNL     1      -2.942  11.284  18.504  0.00  0.00    +0.000 A 
ENDBRANCH  23  26
ENDBRANCH  21  22
ENDBRANCH  20  21
ENDBRANCH   1  20
TORSDOF 5
ENDMDL
MODEL 7
REMARK VINA RESULT:      -8.0      2.383      2.979
REMARK  Name = 
REMARK  6 active torsions:
REMARK  status: ('A' for Active; 'I' for Inactive)
REMARK    1  A    between atoms: C_1  and  C_2
REMARK    2  A    between atoms: C_2  and  C_3
REMARK    3  A    between atoms: C_2  and  N_15
REMARK    4  A    between atoms: C_3  and  N_4
REMARK    5  A    between atoms: C_5  and  C_7
REMARK    6  A    between atoms: N_25  and  C_26
REMARK                            x       y       z     vdW  Elec       q    Type
REMARK                         _______ _______ _______ _____ _____    ______ ____
ROOT
ATOM      1  N   UNL     1       2.739   6.947  19.315  0.00  0.00    +0.000 NA
ATOM      2  C   UNL     1       3.163   5.955  20.308  0.00  0.00    +0.000 C 
ATOM      3  C   UNL     1       2.638   4.536  20.148  0.00  0.00    +0.000 C 
ATOM      4  C   UNL     1       2.584   4.035  18.707  0.00  0.00    +0.000 C 
ATOM      5  C   UNL     1       2.144   5.091  17.695  0.00  0.00    +0.000 C 
ATOM      6  C   UNL     1       2.796   6.441  17.934  0.00  0.00    +0.000 C 
ATOM      7  C   UNL     1       1.515   2.925  18.645  0.00  0.00    +0.000 C 
ATOM      8  O   UNL     1       0.321   3.006  18.889  0.00  0.00    +0.000 OA
ATOM      9  N   UNL     1       2.137   1.765  18.261  0.00  0.00    +0.000 N 
ATOM     10  C   UNL     1       3.555   1.850  18.317  0.00  0.00    +0.000 C 
ATOM     11  N   UNL     1       3.833   3.277  18.350  0.00  0.00    +0.000 N 
ATOM     12  H   UNL     1       1.618   0.901  18.235  0.00  0.00    +0.000 HD
ENDROOT
BRANCH  11  13
ATOM     13  C   UNL     1       4.894   3.826  17.656  0.00  0.00    +0.000 A 
ATOM     14  C   UNL     1       5.009   3.790  16.267  0.00  0.00    +0.000 A 
ATOM     15  C   UNL     1       6.035   4.476  15.596  0.00  0.00    +0.000 A 
ATOM     16  C   UNL     1       6.959   5.246  16.298  0.00  0.00    +0.000 A 
ATOM     17  C   UNL     1       6.897   5.267  17.673  0.00  0.00    +0.000 A 
ATOM     18  C   UNL     1       5.924   4.505  18.317  0.00  0.00    +0.000 A 
ENDBRANCH  11  13
BRANCH   1  20
ATOM     19  C   UNL     1       1.366   7.759  21.214  0.00  0.00    +0.000 C 
ATOM     20  C   UNL     1       1.477   7.622  19.675  0.00  0.00    +0.000 C 
BRANCH  20  21
ATOM     21  C   UNL     1       1.412   9.052  19.073  0.00  0.00    +0.000 C 
BRANCH  21  22
ATOM     22  N   UNL     1       0.637   9.970  19.855  0.00  0.00    +0.000 N 
ATOM     23  C   UNL     1      -0.563  10.419  19.340  0.00  0.00    +0.000 C 
ATOM     24  O   UNL     1      -1.039  10.061  18.277  0.00  0.00    +0.000 OA
ATOM     25  H   UNL     1       1.083  10.431  20.631  0.00  0.00    +0.000 HD
BRANCH  23  26
ATOM     26  C   UNL     1      -1.251  11.434  20.148  0.00  0.00    +0.000 A 
ATOM     27  C   UNL     1      -2.294  12.200  19.597  0.00  0.00    +0.000 A 
ATOM     28  C   UNL     1      -2.884  13.183  20.370  0.00  0.00    +0.000 A 
ATOM     29  C   UNL     1      -2.439  13.398  21.671  0.00  0.00    +0.000 A 
ATOM     30  F   UNL     1      -3.012  14.357  22.409  0.00  0.00    +0.000 F 
ATOM     31  C   UNL     1      -1.413  12.633  22.211  0.00  0.00    +0.000 A 
ATOM     32  F   UNL     1      -0.996  12.842  23.468  0.00  0.00    +0.000 F 
ATOM     33  C   UNL     1      -0.807  11.639  21.455  0.00  0.00    +0.000 A 
ENDBRANCH  23  26
ENDBRANCH  21  22
ENDBRANCH  20  21
ENDBRANCH   1  20
TORSDOF 5
ENDMDL
MODEL 8
REMARK VINA RESULT:      -7.9      1.843      2.281
REMARK  Name = 
REMARK  6 active torsions:
REMARK  status: ('A' for Active; 'I' for Inactive)
REMARK    1  A    between atoms: C_1  and  C_2
REMARK    2  A    between atoms: C_2  and  C_3
REMARK    3  A    between atoms: C_2  and  N_15
REMARK    4  A    between atoms: C_3  and  N_4
REMARK    5  A    between atoms: C_5  and  C_7
REMARK    6  A    between atoms: N_25  and  C_26
REMARK                            x       y       z     vdW  Elec       q    Type
REMARK                         _______ _______ _______ _____ _____    ______ ____
ROOT
ATOM      1  N   UNL     1       2.751   6.941  19.259  0.00  0.00    +0.000 NA
ATOM      2  C   UNL     1       3.206   5.974  20.263  0.00  0.00    +0.000 C 
ATOM      3  C   UNL     1       2.678   4.552  20.154  0.00  0.00    +0.000 C 
ATOM      4  C   UNL     1       2.582   4.016  18.728  0.00  0.00    +0.000 C 
ATOM      5  C   UNL     1       2.110   5.046  17.703  0.00  0.00    +0.000 C 
ATOM      6  C   UNL     1       2.767   6.402  17.890  0.00  0.00    +0.000 C 
ATOM      7  C   UNL     1       1.513   2.903  18.725  0.00  0.00    +0.000 C 
ATOM      8  O   UNL     1       0.327   2.990  19.003  0.00  0.00    +0.000 OA
ATOM      9  N   UNL     1       2.124   1.735  18.351  0.00  0.00    +0.000 N 
ATOM     10  C   UNL     1       3.543   1.823  18.362  0.00  0.00    +0.000 C 
ATOM     11  N   UNL     1       3.820   3.250  18.351  0.00  0.00    +0.000 N 
ATOM     12  H   UNL     1       1.605   0.870  18.362  0.00  0.00    +0.000 HD
ENDROOT
BRANCH  11  13
ATOM     13  C   UNL     1       4.859   3.782  17.613  0.00  0.00    +0.000 A 
ATOM     14  C   UNL     1       5.957   4.427  18.179  0.00  0.00    +0.000 A 
ATOM     15  C   UNL     1       7.054   4.834  17.402  0.00  0.00    +0.000 A 
ATOM     16  C   UNL     1       7.096   4.576  16.034  0.00  0.00    +0.000 A 
ATOM     17  C   UNL     1       6.009   3.978  15.438  0.00  0.00    +0.000 A 
ATOM     18  C   UNL     1       4.897   3.666  16.219  0.00  0.00    +0.000 A 
ENDBRANCH  11  13
BRANCH   1  20
ATOM     19  C   UNL     1       1.449   7.825  21.176  0.00  0.00    +0.000 C 
ATOM     20  C   UNL     1       1.500   7.624  19.640  0.00  0.00    +0.000 C 
BRANCH  20  21
ATOM     21  C   UNL     1       1.401   9.028  18.982  0.00  0.00    +0.000 C 
BRANCH  21  22
ATOM     22  N   UNL     1       0.346   9.839  19.513  0.00  0.00    +0.000 N 
ATOM     23  C   UNL     1      -0.670  10.232  18.664  0.00  0.00    +0.000 C 
ATOM     24  O   UNL     1      -0.760   9.907  17.493  0.00  0.00    +0.000 OA
ATOM     25  H   UNL     1       0.488  10.282  20.406  0.00  0.00    +0.000 HD
BRANCH  23  26
ATOM     26  C   UNL     1      -1.659  11.144  19.251  0.00  0.00    +0.000 A 
ATOM     27  C   UNL     1      -2.900  11.354  18.623  0.00  0.00    +0.000 A 
ATOM     28  C   UNL     1      -3.787  12.259  19.175  0.00  0.00    +0.000 A 
ATOM     29  C   UNL     1      -3.439  12.947  20.335  0.00  0.00    +0.000 A 
ATOM     30  F   UNL     1      -4.302  13.827  20.858  0.00  0.00    +0.000 F 
ATOM     31  C   UNL     1      -2.215  12.730  20.953  0.00  0.00    +0.000 A 
ATOM     32  F   UNL     1      -1.892  13.391  22.075  0.00  0.00    +0.000 F 
ATOM     33  C   UNL     1      -1.309  11.824  20.420  0.00  0.00    +0.000 A 
ENDBRANCH  23  26
ENDBRANCH  21  22
ENDBRANCH  20  21
ENDBRANCH   1  20
TORSDOF 5
ENDMDL
MODEL 9
REMARK VINA RESULT:      -7.9      3.207      3.533
REMARK  Name = 
REMARK  6 active torsions:
REMARK  status: ('A' for Active; 'I' for Inactive)
REMARK    1  A    between atoms: C_1  and  C_2
REMARK    2  A    between atoms: C_2  and  C_3
REMARK    3  A    between atoms: C_2  and  N_15
REMARK    4  A    between atoms: C_3  and  N_4
REMARK    5  A    between atoms: C_5  and  C_7
REMARK    6  A    between atoms: N_25  and  C_26
REMARK                            x       y       z     vdW  Elec       q    Type
REMARK                         _______ _______ _______ _____ _____    ______ ____
ROOT
ATOM      1  N   UNL     1       2.731   6.849  19.234  0.00  0.00    +0.000 NA
ATOM      2  C   UNL     1       3.246   5.864  20.192  0.00  0.00    +0.000 C 
ATOM      3  C   UNL     1       2.753   4.431  20.055  0.00  0.00    +0.000 C 
ATOM      4  C   UNL     1       2.624   3.937  18.616  0.00  0.00    +0.000 C 
ATOM      5  C   UNL     1       2.091   4.985  17.640  0.00  0.00    +0.000 C 
ATOM      6  C   UNL     1       2.717   6.352  17.848  0.00  0.00    +0.000 C 
ATOM      7  C   UNL     1       1.586   2.796  18.612  0.00  0.00    +0.000 C 
ATOM      8  O   UNL     1       0.408   2.841  18.930  0.00  0.00    +0.000 OA
ATOM      9  N   UNL     1       2.216   1.657  18.182  0.00  0.00    +0.000 N 
ATOM     10  C   UNL     1       3.631   1.784  18.150  0.00  0.00    +0.000 C 
ATOM     11  N   UNL     1       3.870   3.218  18.176  0.00  0.00    +0.000 N 
ATOM     12  H   UNL     1       1.721   0.778  18.182  0.00  0.00    +0.000 HD
ENDROOT
BRANCH  11  13
ATOM     13  C   UNL     1       4.869   3.801  17.422  0.00  0.00    +0.000 A 
ATOM     14  C   UNL     1       5.960   4.472  17.973  0.00  0.00    +0.000 A 
ATOM     15  C   UNL     1       7.020   4.933  17.175  0.00  0.00    +0.000 A 
ATOM     16  C   UNL     1       7.033   4.706  15.800  0.00  0.00    +0.000 A 
ATOM     17  C   UNL     1       5.950   4.084  15.221  0.00  0.00    +0.000 A 
ATOM     18  C   UNL     1       4.871   3.718  16.024  0.00  0.00    +0.000 A 
ENDBRANCH  11  13
BRANCH   1  20
ATOM     19  C   UNL     1       1.345   7.389  21.218  0.00  0.00    +0.000 C 
ATOM     20  C   UNL     1       1.476   7.484  19.677  0.00  0.00    +0.000 C 
BRANCH  20  21
ATOM     21  C   UNL     1       1.442   8.990  19.297  0.00  0.00    +0.000 C 
BRANCH  21  22
ATOM     22  N   UNL     1       0.723   9.802  20.233  0.00  0.00    +0.000 N 
ATOM     23  C   UNL     1       0.875  11.174  20.163  0.00  0.00    +0.000 C 
ATOM     24  O   UNL     1       1.551  11.755  19.331  0.00  0.00    +0.000 OA
ATOM     25  H   UNL     1       0.321   9.358  21.041  0.00  0.00    +0.000 HD
BRANCH  23  26
ATOM     26  C   UNL     1       0.191  11.935  21.215  0.00  0.00    +0.000 A 
ATOM     27  C   UNL     1      -0.696  11.296  22.099  0.00  0.00    +0.000 A 
ATOM     28  C   UNL     1      -1.363  12.053  23.044  0.00  0.00    +0.000 A 
ATOM     29  C   UNL     1      -1.150  13.427  23.104  0.00  0.00    +0.000 A 
ATOM     30  F   UNL     1      -1.806  14.153  24.018  0.00  0.00    +0.000 F 
ATOM     31  C   UNL     1      -0.267  14.051  22.232  0.00  0.00    +0.000 A 
ATOM     32  F   UNL     1      -0.061  15.374  22.302  0.00  0.00    +0.000 F 
ATOM     33  C   UNL     1       0.417  13.312  21.276  0.00  0.00    +0.000 A 
ENDBRANCH  23  26
ENDBRANCH  21  22
ENDBRANCH  20  21
ENDBRANCH   1  20
TORSDOF 5
ENDMDL
