MODEL 1
REMARK VINA RESULT:      -8.4      0.000      0.000
REMARK  Name = 
REMARK  5 active torsions:
REMARK  status: ('A' for Active; 'I' for Inactive)
REMARK    1  A    between atoms: C_2  and  C_14
REMARK    2  A    between atoms: N_3  and  C_4
REMARK    3  A    between atoms: C_9  and  O_10
REMARK    4  A    between atoms: C_19  and  C_20
REMARK    5  A    between atoms: C_20  and  C_21
REMARK                            x       y       z     vdW  Elec       q    Type
REMARK                         _______ _______ _______ _____ _____    ______ ____
ROOT
ATOM      1  O   UNL     1       8.175   8.048  16.752  0.00  0.00    +0.000 OA
ATOM      2  C   UNL     1       8.107   7.964  17.972  0.00  0.00    +0.000 C 
ATOM      3  N   UNL     1       8.503   8.879  18.933  0.00  0.00    +0.000 N 
ATOM      4  H   UNL     1       8.458   8.572  19.897  0.00  0.00    +0.000 HD
ENDROOT
BRANCH   3   5
ATOM      5  C   UNL     1       9.069  10.145  18.676  0.00  0.00    +0.000 A 
ATOM      6  C   UNL     1      10.408  10.439  18.966  0.00  0.00    +0.000 A 
ATOM      7  C   UNL     1      10.943  11.719  18.786  0.00  0.00    +0.000 A 
ATOM      8  C   UNL     1      10.072  12.694  18.311  0.00  0.00    +0.000 A 
ATOM      9  N   UNL     1      10.231  14.035  18.075  0.00  0.00    +0.000 N 
ATOM     10  C   UNL     1       9.034  14.521  17.629  0.00  0.00    +0.000 A 
ATOM     11  N   UNL     1       8.126  13.582  17.536  0.00  0.00    +0.000 NA
ATOM     12  C   UNL     1       8.749  12.437  17.970  0.00  0.00    +0.000 A 
ATOM     13  C   UNL     1       8.239  11.135  18.125  0.00  0.00    +0.000 A 
ATOM     14  H   UNL     1      11.075  14.562  18.234  0.00  0.00    +0.000 HD
BRANCH  10  15
ATOM     15  O   UNL     1       8.804  15.787  17.333  0.00  0.00    +0.000 OA
ATOM     16  H   UNL     1       8.168  15.834  16.604  0.00  0.00    +0.000 HD
ENDBRANCH  10  15
ENDBRANCH   3   5
BRANCH   2  17
ATOM     17  C   UNL     1       7.582   6.661  18.577  0.00  0.00    +0.000 C 
ATOM     18  O   UNL     1       8.365   5.983  19.232  0.00  0.00    +0.000 OA
ATOM     19  N   UNL     1       6.256   6.323  18.322  0.00  0.00    +0.000 N 
ATOM     20  C   UNL     1       5.654   5.222  19.061  0.00  0.00    +0.000 C 
ATOM     21  C   UNL     1       5.087   4.187  18.096  0.00  0.00    +0.000 C 
ATOM     22  C   UNL     1       4.089   4.816  17.106  0.00  0.00    +0.000 C 
ATOM     23  C   UNL     1       4.780   5.993  16.385  0.00  0.00    +0.000 C 
ATOM     24  C   UNL     1       5.393   7.006  17.357  0.00  0.00    +0.000 C 
BRANCH  22  25
ATOM     25  C   UNL     1       2.769   5.219  17.812  0.00  0.00    +0.000 C 
BRANCH  25  26
ATOM     26  C   UNL     1       2.433   4.331  18.989  0.00  0.00    +0.000 A 
ATOM     27  C   UNL     1       1.997   3.013  18.787  0.00  0.00    +0.000 A 
ATOM     28  C   UNL     1       1.570   2.239  19.866  0.00  0.00    +0.000 A 
ATOM     29  C   UNL     1       1.603   2.774  21.148  0.00  0.00    +0.000 A 
ATOM     30  F   UNL     1       1.161   2.042  22.179  0.00  0.00    +0.000 F 
ATOM     31  C   UNL     1       2.080   4.059  21.375  0.00  0.00    +0.000 A 
ATOM     32  C   UNL     1       2.500   4.838  20.296  0.00  0.00    +0.000 A 
ENDBRANCH  25  26
ENDBRANCH  22  25
ENDBRANCH   2  17
TORSDOF 5
ENDMDL
MODEL 2
REMARK VINA RESULT:      -8.4      1.003      1.061
REMARK  Name = 
REMARK  5 active torsions:
REMARK  status: ('A' for Active; 'I' for Inactive)
REMARK    1  A    between atoms: C_2  and  C_14
REMARK    2  A    between atoms: N_3  and  C_4
REMARK    3  A    between atoms: C_9  and  O_10
REMARK    4  A    between atoms: C_19  and  C_20
REMARK    5  A    between atoms: C_20  and  C_21
REMARK                            x       y       z     vdW  Elec       q    Type
REMARK                         _______ _______ _______ _____ _____    ______ ____
ROOT
ATOM      1  O   UNL     1       8.210   8.305  17.071  0.00  0.00    +0.000 OA
ATOM      2  C   UNL     1       8.203   8.021  18.262  0.00  0.00    +0.000 C 
ATOM      3  N   UNL     1       8.691   8.750  19.334  0.00  0.00    +0.000 N 
ATOM      4  H   UNL     1       8.684   8.288  20.236  0.00  0.00    +0.000 HD
ENDROOT
BRANCH   3   5
ATOM      5  C   UNL     1       9.298  10.020  19.255  0.00  0.00    +0.000 A 
ATOM      6  C   UNL     1       9.552  10.800  20.390  0.00  0.00    +0.000 A 
ATOM      7  C   UNL     1      10.079  12.093  20.301  0.00  0.00    +0.000 A 
ATOM      8  C   UNL     1      10.330  12.573  19.020  0.00  0.00    +0.000 A 
ATOM      9  N   UNL     1      10.781  13.783  18.561  0.00  0.00    +0.000 N 
ATOM     10  C   UNL     1      10.823  13.719  17.197  0.00  0.00    +0.000 A 
ATOM     11  N   UNL     1      10.458  12.544  16.749  0.00  0.00    +0.000 NA
ATOM     12  C   UNL     1      10.133  11.818  17.869  0.00  0.00    +0.000 A 
ATOM     13  C   UNL     1       9.636  10.508  17.982  0.00  0.00    +0.000 A 
ATOM     14  H   UNL     1      11.008  14.580  19.136  0.00  0.00    +0.000 HD
BRANCH  10  15
ATOM     15  O   UNL     1      11.179  14.720  16.411  0.00  0.00    +0.000 OA
ATOM     16  H   UNL     1      12.072  15.010  16.649  0.00  0.00    +0.000 HD
ENDBRANCH  10  15
ENDBRANCH   3   5
BRANCH   2  17
ATOM     17  C   UNL     1       7.654   6.656  18.676  0.00  0.00    +0.000 C 
ATOM     18  O   UNL     1       8.430   5.868  19.203  0.00  0.00    +0.000 OA
ATOM     19  N   UNL     1       6.315   6.392  18.402  0.00  0.00    +0.000 N 
ATOM     20  C   UNL     1       5.697   5.207  18.979  0.00  0.00    +0.000 C 
ATOM     21  C   UNL     1       5.084   4.343  17.883  0.00  0.00    +0.000 C 
ATOM     22  C   UNL     1       4.086   5.139  17.021  0.00  0.00    +0.000 C 
ATOM     23  C   UNL     1       4.796   6.395  16.470  0.00  0.00    +0.000 C 
ATOM     24  C   UNL     1       5.454   7.234  17.569  0.00  0.00    +0.000 C 
BRANCH  22  25
ATOM     25  C   UNL     1       2.791   5.463  17.808  0.00  0.00    +0.000 C 
BRANCH  25  26
ATOM     26  C   UNL     1       2.523   4.487  18.932  0.00  0.00    +0.000 A 
ATOM     27  C   UNL     1       2.202   3.149  18.655  0.00  0.00    +0.000 A 
ATOM     28  C   UNL     1       1.834   2.285  19.686  0.00  0.00    +0.000 A 
ATOM     29  C   UNL     1       1.812   2.751  20.994  0.00  0.00    +0.000 A 
ATOM     30  F   UNL     1       1.426   1.929  21.979  0.00  0.00    +0.000 F 
ATOM     31  C   UNL     1       2.176   4.057  21.295  0.00  0.00    +0.000 A 
ATOM     32  C   UNL     1       2.536   4.926  20.265  0.00  0.00    +0.000 A 
ENDBRANCH  25  26
ENDBRANCH  22  25
ENDBRANCH   2  17
TORSDOF 5
ENDMDL
MODEL 3
REMARK VINA RESULT:      -8.3      6.458      8.177
REMARK  Name = 
REMARK  5 active torsions:
REMARK  status: ('A' for Active; 'I' for Inactive)
REMARK    1  A    between atoms: C_2  and  C_14
REMARK    2  A    between atoms: N_3  and  C_4
REMARK    3  A    between atoms: C_9  and  O_10
REMARK    4  A    between atoms: C_19  and  C_20
REMARK    5  A    between atoms: C_20  and  C_21
REMARK                            x       y       z     vdW  Elec       q    Type
REMARK                         _______ _______ _______ _____ _____    ______ ____
ROOT
ATOM      1  O   UNL     1       0.472   5.446  20.555  0.00  0.00    +0.000 OA
ATOM      2  C   UNL     1       1.638   5.821  20.564  0.00  0.00    +0.000 C 
ATOM      3  N   UNL     1       2.137   7.112  20.609  0.00  0.00    +0.000 N 
ATOM      4  H   UNL     1       3.139   7.214  20.501  0.00  0.00    +0.000 HD
ENDROOT
BRANCH   3   5
ATOM      5  C   UNL     1       1.364   8.290  20.673  0.00  0.00    +0.000 A 
ATOM      6  C   UNL     1       1.098   9.073  19.543  0.00  0.00    +0.000 A 
ATOM      7  C   UNL     1       0.400  10.283  19.625  0.00  0.00    +0.000 A 
ATOM      8  C   UNL     1      -0.010  10.678  20.893  0.00  0.00    +0.000 A 
ATOM      9  N   UNL     1      -0.650  11.801  21.347  0.00  0.00    +0.000 N 
ATOM     10  C   UNL     1      -0.788  11.681  22.700  0.00  0.00    +0.000 A 
ATOM     11  N   UNL     1      -0.308  10.547  23.145  0.00  0.00    +0.000 NA
ATOM     12  C   UNL     1       0.195   9.912  22.036  0.00  0.00    +0.000 A 
ATOM     13  C   UNL     1       0.868   8.681  21.928  0.00  0.00    +0.000 A 
ATOM     14  H   UNL     1      -0.935  12.583  20.777  0.00  0.00    +0.000 HD
BRANCH  10  15
ATOM     15  O   UNL     1      -1.332  12.597  23.482  0.00  0.00    +0.000 OA
ATOM     16  H   UNL     1      -1.874  13.194  22.945  0.00  0.00    +0.000 HD
ENDBRANCH  10  15
ENDBRANCH   3   5
BRANCH   2  17
ATOM     17  C   UNL     1       2.737   4.765  20.443  0.00  0.00    +0.000 C 
ATOM     18  O   UNL     1       3.077   4.180  21.465  0.00  0.00    +0.000 OA
ATOM     19  N   UNL     1       3.293   4.559  19.184  0.00  0.00    +0.000 N 
ATOM     20  C   UNL     1       4.169   3.414  18.979  0.00  0.00    +0.000 C 
ATOM     21  C   UNL     1       5.515   3.871  18.428  0.00  0.00    +0.000 C 
ATOM     22  C   UNL     1       5.351   4.697  17.137  0.00  0.00    +0.000 C 
ATOM     23  C   UNL     1       4.387   5.870  17.417  0.00  0.00    +0.000 C 
ATOM     24  C   UNL     1       3.055   5.412  18.018  0.00  0.00    +0.000 C 
BRANCH  22  25
ATOM     25  C   UNL     1       4.907   3.808  15.948  0.00  0.00    +0.000 C 
BRANCH  25  26
ATOM     26  C   UNL     1       5.633   4.134  14.663  0.00  0.00    +0.000 A 
ATOM     27  C   UNL     1       5.211   3.581  13.444  0.00  0.00    +0.000 A 
ATOM     28  C   UNL     1       5.957   3.785  12.283  0.00  0.00    +0.000 A 
ATOM     29  C   UNL     1       7.108   4.560  12.335  0.00  0.00    +0.000 A 
ATOM     30  F   UNL     1       7.841   4.727  11.226  0.00  0.00    +0.000 F 
ATOM     31  C   UNL     1       7.514   5.160  13.521  0.00  0.00    +0.000 A 
ATOM     32  C   UNL     1       6.775   4.951  14.686  0.00  0.00    +0.000 A 
ENDBRANCH  25  26
ENDBRANCH  22  25
ENDBRANCH   2  17
TORSDOF 5
ENDMDL
MODEL 4
REMARK VINA RESULT:      -8.3      1.399      1.845
REMARK  Name = 
REMARK  5 active torsions:
REMARK  status: ('A' for Active; 'I' for Inactive)
REMARK    1  A    between atoms: C_2  and  C_14
REMARK    2  A    between atoms: N_3  and  C_4
REMARK    3  A    between atoms: C_9  and  O_10
REMARK    4  A    between atoms: C_19  and  C_20
REMARK    5  A    between atoms: C_20  and  C_21
REMARK                            x       y       z     vdW  Elec       q    Type
REMARK                         _______ _______ _______ _____ _____    ______ ____
ROOT
ATOM      1  O   UNL     1       8.093   6.845  18.985  0.00  0.00    +0.000 OA
ATOM      2  C   UNL     1       7.926   7.282  17.853  0.00  0.00    +0.000 C 
ATOM      3  N   UNL     1       8.097   8.574  17.383  0.00  0.00    +0.000 N 
ATOM      4  H   UNL     1       7.803   8.752  16.431  0.00  0.00    +0.000 HD
ENDROOT
BRANCH   3   5
ATOM      5  C   UNL     1       8.533   9.675  18.150  0.00  0.00    +0.000 A 
ATOM      6  C   UNL     1       9.062   9.527  19.438  0.00  0.00    +0.000 A 
ATOM      7  C   UNL     1       9.416  10.628  20.226  0.00  0.00    +0.000 A 
ATOM      8  C   UNL     1       9.205  11.884  19.668  0.00  0.00    +0.000 A 
ATOM      9  N   UNL     1       9.378  13.151  20.159  0.00  0.00    +0.000 N 
ATOM     10  C   UNL     1       8.993  14.029  19.186  0.00  0.00    +0.000 A 
ATOM     11  N   UNL     1       8.611  13.415  18.094  0.00  0.00    +0.000 NA
ATOM     12  C   UNL     1       8.723  12.076  18.378  0.00  0.00    +0.000 A 
ATOM     13  C   UNL     1       8.406  10.956  17.588  0.00  0.00    +0.000 A 
ATOM     14  H   UNL     1       9.703  13.381  21.086  0.00  0.00    +0.000 HD
BRANCH  10  15
ATOM     15  O   UNL     1       8.991  15.343  19.320  0.00  0.00    +0.000 OA
ATOM     16  H   UNL     1       8.120  15.631  19.631  0.00  0.00    +0.000 HD
ENDBRANCH  10  15
ENDBRANCH   3   5
BRANCH   2  17
ATOM     17  C   UNL     1       7.390   6.330  16.784  0.00  0.00    +0.000 C 
ATOM     18  O   UNL     1       7.834   6.445  15.647  0.00  0.00    +0.000 OA
ATOM     19  N   UNL     1       6.416   5.413  17.170  0.00  0.00    +0.000 N 
ATOM     20  C   UNL     1       6.049   4.345  16.251  0.00  0.00    +0.000 C 
ATOM     21  C   UNL     1       4.546   4.363  15.995  0.00  0.00    +0.000 C 
ATOM     22  C   UNL     1       3.743   4.282  17.307  0.00  0.00    +0.000 C 
ATOM     23  C   UNL     1       4.206   5.419  18.243  0.00  0.00    +0.000 C 
ATOM     24  C   UNL     1       5.722   5.429  18.459  0.00  0.00    +0.000 C 
BRANCH  22  25
ATOM     25  C   UNL     1       3.849   2.876  17.950  0.00  0.00    +0.000 C 
BRANCH  25  26
ATOM     26  C   UNL     1       2.989   2.725  19.184  0.00  0.00    +0.000 A 
ATOM     27  C   UNL     1       1.597   2.880  19.108  0.00  0.00    +0.000 A 
ATOM     28  C   UNL     1       0.822   2.864  20.268  0.00  0.00    +0.000 A 
ATOM     29  C   UNL     1       1.435   2.667  21.498  0.00  0.00    +0.000 A 
ATOM     30  F   UNL     1       0.694   2.684  22.614  0.00  0.00    +0.000 F 
ATOM     31  C   UNL     1       2.805   2.458  21.590  0.00  0.00    +0.000 A 
ATOM     32  C   UNL     1       3.584   2.483  20.433  0.00  0.00    +0.000 A 
ENDBRANCH  25  26
ENDBRANCH  22  25
ENDBRANCH   2  17
TORSDOF 5
ENDMDL
MODEL 5
REMARK VINA RESULT:      -8.2      1.321      1.486
REMARK  Name = 
REMARK  5 active torsions:
REMARK  status: ('A' for Active; 'I' for Inactive)
REMARK    1  A    between atoms: C_2  and  C_14
REMARK    2  A    between atoms: N_3  and  C_4
REMARK    3  A    between atoms: C_9  and  O_10
REMARK    4  A    between atoms: C_19  and  C_20
REMARK    5  A    between atoms: C_20  and  C_21
REMARK                            x       y       z     vdW  Elec       q    Type
REMARK                         _______ _______ _______ _____ _____    ______ ____
ROOT
ATOM      1  O   UNL     1       8.138   8.186  16.953  0.00  0.00    +0.000 OA
ATOM      2  C   UNL     1       8.143   7.980  18.160  0.00  0.00    +0.000 C 
ATOM      3  N   UNL     1       8.628   8.783  19.179  0.00  0.00    +0.000 N 
ATOM      4  H   UNL     1       8.633   8.381  20.109  0.00  0.00    +0.000 HD
ENDROOT
BRANCH   3   5
ATOM      5  C   UNL     1       9.217  10.054  19.013  0.00  0.00    +0.000 A 
ATOM      6  C   UNL     1       9.784  10.463  17.800  0.00  0.00    +0.000 A 
ATOM      7  C   UNL     1      10.439  11.691  17.663  0.00  0.00    +0.000 A 
ATOM      8  C   UNL     1      10.510  12.486  18.801  0.00  0.00    +0.000 A 
ATOM      9  N   UNL     1      11.108  13.695  19.045  0.00  0.00    +0.000 N 
ATOM     10  C   UNL     1      10.882  14.012  20.355  0.00  0.00    +0.000 A 
ATOM     11  N   UNL     1      10.156  13.106  20.962  0.00  0.00    +0.000 NA
ATOM     12  C   UNL     1       9.925  12.139  20.014  0.00  0.00    +0.000 A 
ATOM     13  C   UNL     1       9.240  10.915  20.122  0.00  0.00    +0.000 A 
ATOM     14  H   UNL     1      11.643  14.229  18.378  0.00  0.00    +0.000 HD
BRANCH  10  15
ATOM     15  O   UNL     1      11.343  15.096  20.953  0.00  0.00    +0.000 OA
ATOM     16  H   UNL     1      10.669  15.435  21.561  0.00  0.00    +0.000 HD
ENDBRANCH  10  15
ENDBRANCH   3   5
BRANCH   2  17
ATOM     17  C   UNL     1       7.616   6.637  18.665  0.00  0.00    +0.000 C 
ATOM     18  O   UNL     1       8.400   5.906  19.260  0.00  0.00    +0.000 OA
ATOM     19  N   UNL     1       6.286   6.325  18.393  0.00  0.00    +0.000 N 
ATOM     20  C   UNL     1       5.684   5.172  19.048  0.00  0.00    +0.000 C 
ATOM     21  C   UNL     1       5.106   4.218  18.009  0.00  0.00    +0.000 C 
ATOM     22  C   UNL     1       4.105   4.927  17.078  0.00  0.00    +0.000 C 
ATOM     23  C   UNL     1       4.798   6.153  16.446  0.00  0.00    +0.000 C 
ATOM     24  C   UNL     1       5.421   7.085  17.489  0.00  0.00    +0.000 C 
BRANCH  22  25
ATOM     25  C   UNL     1       2.791   5.279  17.821  0.00  0.00    +0.000 C 
BRANCH  25  26
ATOM     26  C   UNL     1       2.499   4.349  18.977  0.00  0.00    +0.000 A 
ATOM     27  C   UNL     1       2.156   3.008  18.746  0.00  0.00    +0.000 A 
ATOM     28  C   UNL     1       1.766   2.188  19.805  0.00  0.00    +0.000 A 
ATOM     29  C   UNL     1       1.744   2.700  21.095  0.00  0.00    +0.000 A 
ATOM     30  F   UNL     1       1.337   1.922  22.106  0.00  0.00    +0.000 F 
ATOM     31  C   UNL     1       2.129   4.010  21.352  0.00  0.00    +0.000 A 
ATOM     32  C   UNL     1       2.511   4.836  20.294  0.00  0.00    +0.000 A 
ENDBRANCH  25  26
ENDBRANCH  22  25
ENDBRANCH   2  17
TORSDOF 5
ENDMDL
MODEL 6
REMARK VINA RESULT:      -8.2      6.360      8.027
REMARK  Name = 
REMARK  5 active torsions:
REMARK  status: ('A' for Active; 'I' for Inactive)
REMARK    1  A    between atoms: C_2  and  C_14
REMARK    2  A    between atoms: N_3  and  C_4
REMARK    3  A    between atoms: C_9  and  O_10
REMARK    4  A    between atoms: C_19  and  C_20
REMARK    5  A    between atoms: C_20  and  C_21
REMARK                            x       y       z     vdW  Elec       q    Type
REMARK                         _______ _______ _______ _____ _____    ______ ____
ROOT
ATOM      1  O   UNL     1       0.342   5.553  20.444  0.00  0.00    +0.000 OA
ATOM      2  C   UNL     1       1.507   5.892  20.617  0.00  0.00    +0.000 C 
ATOM      3  N   UNL     1       2.023   7.159  20.825  0.00  0.00    +0.000 N 
ATOM      4  H   UNL     1       3.033   7.240  20.840  0.00  0.00    +0.000 HD
ENDROOT
BRANCH   3   5
ATOM      5  C   UNL     1       1.272   8.350  20.900  0.00  0.00    +0.000 A 
ATOM      6  C   UNL     1       0.727   8.817  22.103  0.00  0.00    +0.000 A 
ATOM      7  C   UNL     1      -0.087   9.954  22.159  0.00  0.00    +0.000 A 
ATOM      8  C   UNL     1      -0.337  10.596  20.952  0.00  0.00    +0.000 A 
ATOM      9  N   UNL     1      -1.114  11.678  20.627  0.00  0.00    +0.000 N 
ATOM     10  C   UNL     1      -1.014  11.869  19.278  0.00  0.00    +0.000 A 
ATOM     11  N   UNL     1      -0.206  11.005  18.717  0.00  0.00    +0.000 NA
ATOM     12  C   UNL     1       0.217  10.193  19.741  0.00  0.00    +0.000 A 
ATOM     13  C   UNL     1       1.060   9.068  19.712  0.00  0.00    +0.000 A 
ATOM     14  H   UNL     1      -1.678  12.209  21.272  0.00  0.00    +0.000 HD
BRANCH  10  15
ATOM     15  O   UNL     1      -1.659  12.806  18.605  0.00  0.00    +0.000 OA
ATOM     16  H   UNL     1      -1.086  13.144  17.901  0.00  0.00    +0.000 HD
ENDBRANCH  10  15
ENDBRANCH   3   5
BRANCH   2  17
ATOM     17  C   UNL     1       2.591   4.817  20.532  0.00  0.00    +0.000 C 
ATOM     18  O   UNL     1       2.897   4.237  21.568  0.00  0.00    +0.000 OA
ATOM     19  N   UNL     1       3.172   4.587  19.288  0.00  0.00    +0.000 N 
ATOM     20  C   UNL     1       4.034   3.427  19.117  0.00  0.00    +0.000 C 
ATOM     21  C   UNL     1       5.400   3.856  18.592  0.00  0.00    +0.000 C 
ATOM     22  C   UNL     1       5.280   4.670  17.290  0.00  0.00    +0.000 C 
ATOM     23  C   UNL     1       4.329   5.861  17.534  0.00  0.00    +0.000 C 
ATOM     24  C   UNL     1       2.976   5.432  18.109  0.00  0.00    +0.000 C 
BRANCH  22  25
ATOM     25  C   UNL     1       4.849   3.775  16.100  0.00  0.00    +0.000 C 
BRANCH  25  26
ATOM     26  C   UNL     1       5.588   4.096  14.821  0.00  0.00    +0.000 A 
ATOM     27  C   UNL     1       5.166   3.555  13.597  0.00  0.00    +0.000 A 
ATOM     28  C   UNL     1       5.922   3.753  12.441  0.00  0.00    +0.000 A 
ATOM     29  C   UNL     1       7.084   4.511  12.504  0.00  0.00    +0.000 A 
ATOM     30  F   UNL     1       7.826   4.671  11.401  0.00  0.00    +0.000 F 
ATOM     31  C   UNL     1       7.491   5.099  13.695  0.00  0.00    +0.000 A 
ATOM     32  C   UNL     1       6.742   4.896  14.855  0.00  0.00    +0.000 A 
ENDBRANCH  25  26
ENDBRANCH  22  25
ENDBRANCH   2  17
TORSDOF 5
ENDMDL
MODEL 7
REMARK VINA RESULT:      -8.1      6.058      8.602
REMARK  Name = 
REMARK  5 active torsions:
REMARK  status: ('A' for Active; 'I' for Inactive)
REMARK    1  A    between atoms: C_2  and  C_14
REMARK    2  A    between atoms: N_3  and  C_4
REMARK    3  A    between atoms: C_9  and  O_10
REMARK    4  A    between atoms: C_19  and  C_20
REMARK    5  A    between atoms: C_20  and  C_21
REMARK                            x       y       z     vdW  Elec       q    Type
REMARK                         _______ _______ _______ _____ _____    ______ ____
ROOT
ATOM      1  O   UNL     1       2.036   5.590  18.030  0.00  0.00    +0.000 OA
ATOM      2  C   UNL     1       2.645   5.981  19.017  0.00  0.00    +0.000 C 
ATOM      3  N   UNL     1       4.010   5.991  19.252  0.00  0.00    +0.000 N 
ATOM      4  H   UNL     1       4.308   6.260  20.182  0.00  0.00    +0.000 HD
ENDROOT
BRANCH   3   5
ATOM      5  C   UNL     1       5.001   5.549  18.350  0.00  0.00    +0.000 A 
ATOM      6  C   UNL     1       6.176   4.921  18.780  0.00  0.00    +0.000 A 
ATOM      7  C   UNL     1       7.193   4.559  17.890  0.00  0.00    +0.000 A 
ATOM      8  C   UNL     1       6.982   4.865  16.550  0.00  0.00    +0.000 A 
ATOM      9  N   UNL     1       7.765   4.713  15.435  0.00  0.00    +0.000 N 
ATOM     10  C   UNL     1       7.069   5.208  14.369  0.00  0.00    +0.000 A 
ATOM     11  N   UNL     1       5.882   5.641  14.715  0.00  0.00    +0.000 NA
ATOM     12  C   UNL     1       5.814   5.450  16.074  0.00  0.00    +0.000 A 
ATOM     13  C   UNL     1       4.788   5.774  16.980  0.00  0.00    +0.000 A 
ATOM     14  H   UNL     1       8.698   4.331  15.423  0.00  0.00    +0.000 HD
BRANCH  10  15
ATOM     15  O   UNL     1       7.529   5.258  13.132  0.00  0.00    +0.000 OA
ATOM     16  H   UNL     1       7.260   6.095  12.725  0.00  0.00    +0.000 HD
ENDBRANCH  10  15
ENDBRANCH   3   5
BRANCH   2  17
ATOM     17  C   UNL     1       1.835   6.474  20.216  0.00  0.00    +0.000 C 
ATOM     18  O   UNL     1       1.417   5.633  21.004  0.00  0.00    +0.000 OA
ATOM     19  N   UNL     1       1.607   7.844  20.318  0.00  0.00    +0.000 N 
ATOM     20  C   UNL     1       1.044   8.375  21.551  0.00  0.00    +0.000 C 
ATOM     21  C   UNL     1      -0.222   9.171  21.254  0.00  0.00    +0.000 C 
ATOM     22  C   UNL     1       0.033  10.285  20.222  0.00  0.00    +0.000 C 
ATOM     23  C   UNL     1       0.658   9.657  18.957  0.00  0.00    +0.000 C 
ATOM     24  C   UNL     1       1.901   8.817  19.264  0.00  0.00    +0.000 C 
BRANCH  22  25
ATOM     25  C   UNL     1       0.887  11.430  20.824  0.00  0.00    +0.000 C 
BRANCH  25  26
ATOM     26  C   UNL     1       0.764  12.726  20.054  0.00  0.00    +0.000 A 
ATOM     27  C   UNL     1       1.846  13.219  19.309  0.00  0.00    +0.000 A 
ATOM     28  C   UNL     1       1.770  14.473  18.703  0.00  0.00    +0.000 A 
ATOM     29  C   UNL     1       0.607  15.222  18.820  0.00  0.00    +0.000 A 
ATOM     30  F   UNL     1       0.548  16.440  18.267  0.00  0.00    +0.000 F 
ATOM     31  C   UNL     1      -0.495  14.729  19.509  0.00  0.00    +0.000 A 
ATOM     32  C   UNL     1      -0.419  13.478  20.124  0.00  0.00    +0.000 A 
ENDBRANCH  25  26
ENDBRANCH  22  25
ENDBRANCH   2  17
TORSDOF 5
ENDMDL
MODEL 8
REMARK VINA RESULT:      -8.1      7.235     10.218
REMARK  Name = 
REMARK  5 active torsions:
REMARK  status: ('A' for Active; 'I' for Inactive)
REMARK    1  A    between atoms: C_2  and  C_14
REMARK    2  A    between atoms: N_3  and  C_4
REMARK    3  A    between atoms: C_9  and  O_10
REMARK    4  A    between atoms: C_19  and  C_20
REMARK    5  A    between atoms: C_20  and  C_21
REMARK                            x       y       z     vdW  Elec       q    Type
REMARK                         _______ _______ _______ _____ _____    ______ ____
ROOT
ATOM      1  O   UNL     1       0.980   8.091  17.483  0.00  0.00    +0.000 OA
ATOM      2  C   UNL     1       1.579   8.636  18.401  0.00  0.00    +0.000 C 
ATOM      3  N   UNL     1       2.224   8.062  19.484  0.00  0.00    +0.000 N 
ATOM      4  H   UNL     1       2.571   8.697  20.193  0.00  0.00    +0.000 HD
ENDROOT
BRANCH   3   5
ATOM      5  C   UNL     1       2.332   6.678  19.736  0.00  0.00    +0.000 A 
ATOM      6  C   UNL     1       1.374   5.976  20.478  0.00  0.00    +0.000 A 
ATOM      7  C   UNL     1       1.526   4.622  20.795  0.00  0.00    +0.000 A 
ATOM      8  C   UNL     1       2.688   4.006  20.344  0.00  0.00    +0.000 A 
ATOM      9  N   UNL     1       3.185   2.740  20.511  0.00  0.00    +0.000 N 
ATOM     10  C   UNL     1       4.387   2.678  19.866  0.00  0.00    +0.000 A 
ATOM     11  N   UNL     1       4.685   3.807  19.272  0.00  0.00    +0.000 NA
ATOM     12  C   UNL     1       3.645   4.653  19.569  0.00  0.00    +0.000 A 
ATOM     13  C   UNL     1       3.456   6.005  19.231  0.00  0.00    +0.000 A 
ATOM     14  H   UNL     1       2.746   2.004  21.044  0.00  0.00    +0.000 HD
BRANCH  10  15
ATOM     15  O   UNL     1       5.172   1.616  19.844  0.00  0.00    +0.000 OA
ATOM     16  H   UNL     1       5.359   1.376  18.924  0.00  0.00    +0.000 HD
ENDBRANCH  10  15
ENDBRANCH   3   5
BRANCH   2  17
ATOM     17  C   UNL     1       1.593  10.164  18.446  0.00  0.00    +0.000 C 
ATOM     18  O   UNL     1       2.554  10.738  17.947  0.00  0.00    +0.000 OA
ATOM     19  N   UNL     1       0.524  10.798  19.074  0.00  0.00    +0.000 N 
ATOM     20  C   UNL     1       0.382  12.241  18.939  0.00  0.00    +0.000 C 
ATOM     21  C   UNL     1       0.316  12.896  20.314  0.00  0.00    +0.000 C 
ATOM     22  C   UNL     1      -0.807  12.295  21.179  0.00  0.00    +0.000 C 
ATOM     23  C   UNL     1      -0.613  10.765  21.252  0.00  0.00    +0.000 C 
ATOM     24  C   UNL     1      -0.497  10.115  19.870  0.00  0.00    +0.000 C 
BRANCH  22  25
ATOM     25  C   UNL     1      -2.207  12.712  20.661  0.00  0.00    +0.000 C 
BRANCH  25  26
ATOM     26  C   UNL     1      -3.244  12.790  21.758  0.00  0.00    +0.000 A 
ATOM     27  C   UNL     1      -2.884  12.577  23.098  0.00  0.00    +0.000 A 
ATOM     28  C   UNL     1      -3.863  12.527  24.090  0.00  0.00    +0.000 A 
ATOM     29  C   UNL     1      -5.196  12.715  23.748  0.00  0.00    +0.000 A 
ATOM     30  F   UNL     1      -6.137  12.633  24.697  0.00  0.00    +0.000 F 
ATOM     31  C   UNL     1      -5.567  12.980  22.436  0.00  0.00    +0.000 A 
ATOM     32  C   UNL     1      -4.592  13.022  21.439  0.00  0.00    +0.000 A 
ENDBRANCH  25  26
ENDBRANCH  22  25
ENDBRANCH   2  17
TORSDOF 5
ENDMDL
MODEL 9
REMARK VINA RESULT:      -8.0      7.621     10.170
REMARK  Name = 
REMARK  5 active torsions:
REMARK  status: ('A' for Active; 'I' for Inactive)
REMARK    1  A    between atoms: C_2  and  C_14
REMARK    2  A    between atoms: N_3  and  C_4
REMARK    3  A    between atoms: C_9  and  O_10
REMARK    4  A    between atoms: C_19  and  C_20
REMARK    5  A    between atoms: C_20  and  C_21
REMARK                            x       y       z     vdW  Elec       q    Type
REMARK                         _______ _______ _______ _____ _____    ______ ____
ROOT
ATOM      1  O   UNL     1       2.221   9.925  17.462  0.00  0.00    +0.000 OA
ATOM      2  C   UNL     1       1.372   9.346  18.128  0.00  0.00    +0.000 C 
ATOM      3  N   UNL     1       1.409   8.072  18.669  0.00  0.00    +0.000 N 
ATOM      4  H   UNL     1       0.556   7.738  19.101  0.00  0.00    +0.000 HD
ENDROOT
BRANCH   3   5
ATOM      5  C   UNL     1       2.487   7.167  18.567  0.00  0.00    +0.000 A 
ATOM      6  C   UNL     1       3.524   7.340  17.641  0.00  0.00    +0.000 A 
ATOM      7  C   UNL     1       4.546   6.399  17.487  0.00  0.00    +0.000 A 
ATOM      8  C   UNL     1       4.477   5.270  18.295  0.00  0.00    +0.000 A 
ATOM      9  N   UNL     1       5.255   4.143  18.375  0.00  0.00    +0.000 N 
ATOM     10  C   UNL     1       4.717   3.336  19.337  0.00  0.00    +0.000 A 
ATOM     11  N   UNL     1       3.666   3.876  19.901  0.00  0.00    +0.000 NA
ATOM     12  C   UNL     1       3.491   5.077  19.256  0.00  0.00    +0.000 A 
ATOM     13  C   UNL     1       2.491   6.052  19.420  0.00  0.00    +0.000 A 
ATOM     14  H   UNL     1       6.058   3.945  17.799  0.00  0.00    +0.000 HD
BRANCH  10  15
ATOM     15  O   UNL     1       5.186   2.145  19.663  0.00  0.00    +0.000 OA
ATOM     16  H   UNL     1       5.773   1.830  18.960  0.00  0.00    +0.000 HD
ENDBRANCH  10  15
ENDBRANCH   3   5
BRANCH   2  17
ATOM     17  C   UNL     1       0.038  10.053  18.369  0.00  0.00    +0.000 C 
ATOM     18  O   UNL     1      -0.797  10.010  17.474  0.00  0.00    +0.000 OA
ATOM     19  N   UNL     1      -0.126  10.717  19.582  0.00  0.00    +0.000 N 
ATOM     20  C   UNL     1      -1.450  11.202  19.945  0.00  0.00    +0.000 C 
ATOM     21  C   UNL     1      -1.400  12.696  20.246  0.00  0.00    +0.000 C 
ATOM     22  C   UNL     1      -0.359  13.025  21.332  0.00  0.00    +0.000 C 
ATOM     23  C   UNL     1       1.009  12.455  20.897  0.00  0.00    +0.000 C 
ATOM     24  C   UNL     1       0.946  10.965  20.548  0.00  0.00    +0.000 C 
BRANCH  22  25
ATOM     25  C   UNL     1      -0.816  12.527  22.726  0.00  0.00    +0.000 C 
BRANCH  25  26
ATOM     26  C   UNL     1      -2.112  13.159  23.183  0.00  0.00    +0.000 A 
ATOM     27  C   UNL     1      -3.240  12.366  23.444  0.00  0.00    +0.000 A 
ATOM     28  C   UNL     1      -4.465  12.962  23.745  0.00  0.00    +0.000 A 
ATOM     29  C   UNL     1      -4.556  14.346  23.809  0.00  0.00    +0.000 A 
ATOM     30  F   UNL     1      -5.740  14.917  24.064  0.00  0.00    +0.000 F 
ATOM     31  C   UNL     1      -3.439  15.147  23.605  0.00  0.00    +0.000 A 
ATOM     32  C   UNL     1      -2.214  14.554  23.296  0.00  0.00    +0.000 A 
ENDBRANCH  25  26
ENDBRANCH  22  25
ENDBRANCH   2  17
TORSDOF 5
ENDMDL
