MODEL 1
REMARK VINA RESULT:      -9.4      0.000      0.000
REMARK  Name = 
REMARK  8 active torsions:
REMARK  status: ('A' for Active; 'I' for Inactive)
REMARK    1  A    between atoms: C_1  and  C_2
REMARK    2  A    between atoms: C_2  and  C_3
REMARK    3  A    between atoms: C_2  and  C_4
REMARK    4  A    between atoms: C_2  and  O_5
REMARK    5  A    between atoms: O_5  and  C_6
REMARK    6  A    between atoms: C_6  and  C_8
REMARK    7  A    between atoms: C_8  and  C_9
REMARK    8  A    between atoms: C_11  and  C_12
REMARK                            x       y       z     vdW  Elec       q    Type
REMARK                         _______ _______ _______ _____ _____    ______ ____
ROOT
ATOM      1  C   UNL     1       6.158   5.618  17.087  0.00  0.00    +0.000 C 
ATOM      2  N   UNL     1       5.134   6.524  17.651  0.00  0.00    +0.000 NA
ATOM      3  C   UNL     1       3.977   6.123  18.066  0.00  0.00    +0.000 C 
ATOM      4  C   UNL     1       3.552   4.675  18.129  0.00  0.00    +0.000 A 
ATOM      5  C   UNL     1       2.240   4.336  17.748  0.00  0.00    +0.000 A 
ATOM      6  C   UNL     1       1.849   3.000  17.615  0.00  0.00    +0.000 A 
ATOM      7  C   UNL     1       2.748   1.976  17.886  0.00  0.00    +0.000 A 
ATOM      8  C   UNL     1       4.029   2.286  18.327  0.00  0.00    +0.000 A 
ATOM      9  C   UNL     1       4.448   3.623  18.418  0.00  0.00    +0.000 A 
ATOM     10  N   UNL     1       5.800   3.784  18.728  0.00  0.00    +0.000 N 
ATOM     11  C   UNL     1       6.661   4.685  18.178  0.00  0.00    +0.000 C 
ATOM     12  O   UNL     1       7.837   4.680  18.551  0.00  0.00    +0.000 OA
ATOM     13  H   UNL     1       6.279   3.065  19.258  0.00  0.00    +0.000 HD
ENDROOT
BRANCH   3  14
ATOM     14  C   UNL     1       2.980   7.227  18.361  0.00  0.00    +0.000 A 
ATOM     15  C   UNL     1       2.394   7.239  19.644  0.00  0.00    +0.000 A 
ATOM     16  C   UNL     1       1.534   8.271  20.033  0.00  0.00    +0.000 A 
ATOM     17  C   UNL     1       1.238   9.300  19.146  0.00  0.00    +0.000 A 
ATOM     18  C   UNL     1       1.787   9.282  17.867  0.00  0.00    +0.000 A 
ATOM     19  C   UNL     1       2.650   8.247  17.462  0.00  0.00    +0.000 A 
ENDBRANCH   3  14
BRANCH   1  20
ATOM     20  C   UNL     1       5.637   5.038  15.773  0.00  0.00    +0.000 C 
BRANCH  20  21
ATOM     21  C   UNL     1       6.511   4.606  14.628  0.00  0.00    +0.000 C 
ATOM     22  O   UNL     1       7.480   5.296  14.331  0.00  0.00    +0.000 OA
BRANCH  21  23
ATOM     23  O   UNL     1       6.169   3.471  13.985  0.00  0.00    +0.000 OA
BRANCH  23  25
ATOM     24  C   UNL     1       6.451   2.102  11.925  0.00  0.00    +0.000 C 
ATOM     25  C   UNL     1       6.154   3.491  12.519  0.00  0.00    +0.000 C 
ATOM     26  C   UNL     1       7.119   4.546  11.941  0.00  0.00    +0.000 C 
ATOM     27  C   UNL     1       4.726   3.885  12.119  0.00  0.00    +0.000 C 
ENDBRANCH  23  25
ENDBRANCH  21  23
ENDBRANCH  20  21
ENDBRANCH   1  20
TORSDOF 5
ENDMDL
MODEL 2
REMARK VINA RESULT:      -9.2      0.142      1.273
REMARK  Name = 
REMARK  8 active torsions:
REMARK  status: ('A' for Active; 'I' for Inactive)
REMARK    1  A    between atoms: C_1  and  C_2
REMARK    2  A    between atoms: C_2  and  C_3
REMARK    3  A    between atoms: C_2  and  C_4
REMARK    4  A    between atoms: C_2  and  O_5
REMARK    5  A    between atoms: O_5  and  C_6
REMARK    6  A    between atoms: C_6  and  C_8
REMARK    7  A    between atoms: C_8  and  C_9
REMARK    8  A    between atoms: C_11  and  C_12
REMARK                            x       y       z     vdW  Elec       q    Type
REMARK                         _______ _______ _______ _____ _____    ______ ____
ROOT
ATOM      1  C   UNL     1       6.187   5.593  17.043  0.00  0.00    +0.000 C 
ATOM      2  N   UNL     1       5.206   6.506  17.670  0.00  0.00    +0.000 NA
ATOM      3  C   UNL     1       4.049   6.123  18.101  0.00  0.00    +0.000 C 
ATOM      4  C   UNL     1       3.583   4.686  18.120  0.00  0.00    +0.000 A 
ATOM      5  C   UNL     1       2.251   4.402  17.764  0.00  0.00    +0.000 A 
ATOM      6  C   UNL     1       1.816   3.083  17.591  0.00  0.00    +0.000 A 
ATOM      7  C   UNL     1       2.691   2.024  17.798  0.00  0.00    +0.000 A 
ATOM      8  C   UNL     1       3.992   2.279  18.214  0.00  0.00    +0.000 A 
ATOM      9  C   UNL     1       4.453   3.599  18.344  0.00  0.00    +0.000 A 
ATOM     10  N   UNL     1       5.818   3.708  18.623  0.00  0.00    +0.000 N 
ATOM     11  C   UNL     1       6.691   4.604  18.083  0.00  0.00    +0.000 C 
ATOM     12  O   UNL     1       7.875   4.550  18.422  0.00  0.00    +0.000 OA
ATOM     13  H   UNL     1       6.288   2.955  19.111  0.00  0.00    +0.000 HD
ENDROOT
BRANCH   3  14
ATOM     14  C   UNL     1       3.094   7.244  18.465  0.00  0.00    +0.000 A 
ATOM     15  C   UNL     1       2.881   8.246  17.496  0.00  0.00    +0.000 A 
ATOM     16  C   UNL     1       1.950   9.268  17.710  0.00  0.00    +0.000 A 
ATOM     17  C   UNL     1       1.226   9.310  18.895  0.00  0.00    +0.000 A 
ATOM     18  C   UNL     1       1.450   8.343  19.871  0.00  0.00    +0.000 A 
ATOM     19  C   UNL     1       2.387   7.312  19.669  0.00  0.00    +0.000 A 
ENDBRANCH   3  14
BRANCH   1  20
ATOM     20  C   UNL     1       5.613   5.079  15.723  0.00  0.00    +0.000 C 
BRANCH  20  21
ATOM     21  C   UNL     1       6.444   4.658  14.542  0.00  0.00    +0.000 C 
ATOM     22  O   UNL     1       7.392   5.359  14.205  0.00  0.00    +0.000 OA
BRANCH  21  23
ATOM     23  O   UNL     1       6.088   3.520  13.912  0.00  0.00    +0.000 OA
BRANCH  23  25
ATOM     24  C   UNL     1       7.112   4.475  11.854  0.00  0.00    +0.000 C 
ATOM     25  C   UNL     1       6.049   3.531  12.446  0.00  0.00    +0.000 C 
ATOM     26  C   UNL     1       4.649   3.879  11.903  0.00  0.00    +0.000 C 
ATOM     27  C   UNL     1       6.386   2.099  12.006  0.00  0.00    +0.000 C 
ENDBRANCH  23  25
ENDBRANCH  21  23
ENDBRANCH  20  21
ENDBRANCH   1  20
TORSDOF 5
ENDMDL
MODEL 3
REMARK VINA RESULT:      -8.5      2.568      6.757
REMARK  Name = 
REMARK  8 active torsions:
REMARK  status: ('A' for Active; 'I' for Inactive)
REMARK    1  A    between atoms: C_1  and  C_2
REMARK    2  A    between atoms: C_2  and  C_3
REMARK    3  A    between atoms: C_2  and  C_4
REMARK    4  A    between atoms: C_2  and  O_5
REMARK    5  A    between atoms: O_5  and  C_6
REMARK    6  A    between atoms: C_6  and  C_8
REMARK    7  A    between atoms: C_8  and  C_9
REMARK    8  A    between atoms: C_11  and  C_12
REMARK                            x       y       z     vdW  Elec       q    Type
REMARK                         _______ _______ _______ _____ _____    ______ ____
ROOT
ATOM      1  C   UNL     1       3.901   3.922  17.290  0.00  0.00    +0.000 C 
ATOM      2  N   UNL     1       4.690   3.796  16.044  0.00  0.00    +0.000 NA
ATOM      3  C   UNL     1       5.850   4.342  15.875  0.00  0.00    +0.000 C 
ATOM      4  C   UNL     1       6.601   5.091  16.951  0.00  0.00    +0.000 A 
ATOM      5  C   UNL     1       7.284   6.271  16.603  0.00  0.00    +0.000 A 
ATOM      6  C   UNL     1       7.844   7.098  17.583  0.00  0.00    +0.000 A 
ATOM      7  C   UNL     1       7.758   6.748  18.926  0.00  0.00    +0.000 A 
ATOM      8  C   UNL     1       7.145   5.555  19.287  0.00  0.00    +0.000 A 
ATOM      9  C   UNL     1       6.538   4.742  18.316  0.00  0.00    +0.000 A 
ATOM     10  N   UNL     1       5.833   3.653  18.834  0.00  0.00    +0.000 N 
ATOM     11  C   UNL     1       4.620   3.194  18.416  0.00  0.00    +0.000 C 
ATOM     12  O   UNL     1       4.122   2.229  19.000  0.00  0.00    +0.000 OA
ATOM     13  H   UNL     1       6.109   3.259  19.726  0.00  0.00    +0.000 HD
ENDROOT
BRANCH   3  14
ATOM     14  C   UNL     1       6.371   4.318  14.451  0.00  0.00    +0.000 A 
ATOM     15  C   UNL     1       5.708   3.472  13.538  0.00  0.00    +0.000 A 
ATOM     16  C   UNL     1       6.062   3.453  12.186  0.00  0.00    +0.000 A 
ATOM     17  C   UNL     1       7.089   4.270  11.726  0.00  0.00    +0.000 A 
ATOM     18  C   UNL     1       7.770   5.086  12.623  0.00  0.00    +0.000 A 
ATOM     19  C   UNL     1       7.425   5.111  13.987  0.00  0.00    +0.000 A 
ENDBRANCH   3  14
BRANCH   1  20
ATOM     20  C   UNL     1       3.491   5.383  17.471  0.00  0.00    +0.000 C 
BRANCH  20  21
ATOM     21  C   UNL     1       3.136   6.008  18.792  0.00  0.00    +0.000 C 
ATOM     22  O   UNL     1       2.770   7.178  18.814  0.00  0.00    +0.000 OA
BRANCH  21  23
ATOM     23  O   UNL     1       3.248   5.234  19.891  0.00  0.00    +0.000 OA
BRANCH  23  25
ATOM     24  C   UNL     1       2.306   3.793  21.690  0.00  0.00    +0.000 C 
ATOM     25  C   UNL     1       2.014   4.731  20.503  0.00  0.00    +0.000 C 
ATOM     26  C   UNL     1       1.095   4.039  19.478  0.00  0.00    +0.000 C 
ATOM     27  C   UNL     1       1.279   5.966  21.043  0.00  0.00    +0.000 C 
ENDBRANCH  23  25
ENDBRANCH  21  23
ENDBRANCH  20  21
ENDBRANCH   1  20
TORSDOF 5
ENDMDL
MODEL 4
REMARK VINA RESULT:      -8.2      2.556      6.813
REMARK  Name = 
REMARK  8 active torsions:
REMARK  status: ('A' for Active; 'I' for Inactive)
REMARK    1  A    between atoms: C_1  and  C_2
REMARK    2  A    between atoms: C_2  and  C_3
REMARK    3  A    between atoms: C_2  and  C_4
REMARK    4  A    between atoms: C_2  and  O_5
REMARK    5  A    between atoms: O_5  and  C_6
REMARK    6  A    between atoms: C_6  and  C_8
REMARK    7  A    between atoms: C_8  and  C_9
REMARK    8  A    between atoms: C_11  and  C_12
REMARK                            x       y       z     vdW  Elec       q    Type
REMARK                         _______ _______ _______ _____ _____    ______ ____
ROOT
ATOM      1  C   UNL     1       3.865   3.967  17.320  0.00  0.00    +0.000 C 
ATOM      2  N   UNL     1       4.598   3.833  16.042  0.00  0.00    +0.000 NA
ATOM      3  C   UNL     1       5.751   4.376  15.820  0.00  0.00    +0.000 C 
ATOM      4  C   UNL     1       6.550   5.126  16.858  0.00  0.00    +0.000 A 
ATOM      5  C   UNL     1       7.221   6.303  16.476  0.00  0.00    +0.000 A 
ATOM      6  C   UNL     1       7.825   7.131  17.428  0.00  0.00    +0.000 A 
ATOM      7  C   UNL     1       7.798   6.788  18.774  0.00  0.00    +0.000 A 
ATOM      8  C   UNL     1       7.198   5.597  19.167  0.00  0.00    +0.000 A 
ATOM      9  C   UNL     1       6.547   4.783  18.227  0.00  0.00    +0.000 A 
ATOM     10  N   UNL     1       5.862   3.698  18.780  0.00  0.00    +0.000 N 
ATOM     11  C   UNL     1       4.630   3.241  18.417  0.00  0.00    +0.000 C 
ATOM     12  O   UNL     1       4.156   2.280  19.026  0.00  0.00    +0.000 OA
ATOM     13  H   UNL     1       6.175   3.306  19.660  0.00  0.00    +0.000 HD
ENDROOT
BRANCH   3  14
ATOM     14  C   UNL     1       6.209   4.344  14.375  0.00  0.00    +0.000 A 
ATOM     15  C   UNL     1       7.324   5.139  14.036  0.00  0.00    +0.000 A 
ATOM     16  C   UNL     1       7.870   5.102  12.750  0.00  0.00    +0.000 A 
ATOM     17  C   UNL     1       7.308   4.280  11.780  0.00  0.00    +0.000 A 
ATOM     18  C   UNL     1       6.190   3.514  12.094  0.00  0.00    +0.000 A 
ATOM     19  C   UNL     1       5.628   3.545  13.384  0.00  0.00    +0.000 A 
ENDBRANCH   3  14
BRANCH   1  20
ATOM     20  C   UNL     1       3.467   5.430  17.514  0.00  0.00    +0.000 C 
BRANCH  20  21
ATOM     21  C   UNL     1       3.123   6.048  18.841  0.00  0.00    +0.000 C 
ATOM     22  O   UNL     1       2.767   7.221  18.872  0.00  0.00    +0.000 OA
BRANCH  21  23
ATOM     23  O   UNL     1       3.233   5.265  19.934  0.00  0.00    +0.000 OA
BRANCH  23  25
ATOM     24  C   UNL     1       1.185   6.050  21.111  0.00  0.00    +0.000 C 
ATOM     25  C   UNL     1       1.999   4.845  20.603  0.00  0.00    +0.000 C 
ATOM     26  C   UNL     1       2.267   3.849  21.749  0.00  0.00    +0.000 C 
ATOM     27  C   UNL     1       1.166   4.125  19.534  0.00  0.00    +0.000 C 
ENDBRANCH  23  25
ENDBRANCH  21  23
ENDBRANCH  20  21
ENDBRANCH   1  20
TORSDOF 5
ENDMDL
MODEL 5
REMARK VINA RESULT:      -8.1      1.265      1.583
REMARK  Name = 
REMARK  8 active torsions:
REMARK  status: ('A' for Active; 'I' for Inactive)
REMARK    1  A    between atoms: C_1  and  C_2
REMARK    2  A    between atoms: C_2  and  C_3
REMARK    3  A    between atoms: C_2  and  C_4
REMARK    4  A    between atoms: C_2  and  O_5
REMARK    5  A    between atoms: O_5  and  C_6
REMARK    6  A    between atoms: C_6  and  C_8
REMARK    7  A    between atoms: C_8  and  C_9
REMARK    8  A    between atoms: C_11  and  C_12
REMARK                            x       y       z     vdW  Elec       q    Type
REMARK                         _______ _______ _______ _____ _____    ______ ____
ROOT
ATOM      1  C   UNL     1       5.432   5.823  17.934  0.00  0.00    +0.000 C 
ATOM      2  N   UNL     1       4.425   6.691  18.584  0.00  0.00    +0.000 NA
ATOM      3  C   UNL     1       3.284   6.261  19.015  0.00  0.00    +0.000 C 
ATOM      4  C   UNL     1       2.866   4.810  19.009  0.00  0.00    +0.000 A 
ATOM      5  C   UNL     1       1.542   4.487  18.655  0.00  0.00    +0.000 A 
ATOM      6  C   UNL     1       1.150   3.159  18.459  0.00  0.00    +0.000 A 
ATOM      7  C   UNL     1       2.061   2.125  18.641  0.00  0.00    +0.000 A 
ATOM      8  C   UNL     1       3.356   2.416  19.054  0.00  0.00    +0.000 A 
ATOM      9  C   UNL     1       3.773   3.747  19.207  0.00  0.00    +0.000 A 
ATOM     10  N   UNL     1       5.135   3.897  19.480  0.00  0.00    +0.000 N 
ATOM     11  C   UNL     1       5.975   4.832  18.952  0.00  0.00    +0.000 C 
ATOM     12  O   UNL     1       7.162   4.811  19.284  0.00  0.00    +0.000 OA
ATOM     13  H   UNL     1       5.634   3.152  19.951  0.00  0.00    +0.000 HD
ENDROOT
BRANCH   3  14
ATOM     14  C   UNL     1       2.294   7.342  19.405  0.00  0.00    +0.000 A 
ATOM     15  C   UNL     1       1.756   7.280  20.707  0.00  0.00    +0.000 A 
ATOM     16  C   UNL     1       0.907   8.284  21.183  0.00  0.00    +0.000 A 
ATOM     17  C   UNL     1       0.576   9.359  20.366  0.00  0.00    +0.000 A 
ATOM     18  C   UNL     1       1.078   9.415  19.070  0.00  0.00    +0.000 A 
ATOM     19  C   UNL     1       1.929   8.408  18.577  0.00  0.00    +0.000 A 
ENDBRANCH   3  14
BRANCH   1  20
ATOM     20  C   UNL     1       4.867   5.316  16.608  0.00  0.00    +0.000 C 
BRANCH  20  21
ATOM     21  C   UNL     1       5.106   5.972  15.276  0.00  0.00    +0.000 C 
ATOM     22  O   UNL     1       5.250   7.188  15.233  0.00  0.00    +0.000 OA
BRANCH  21  23
ATOM     23  O   UNL     1       5.143   5.170  14.191  0.00  0.00    +0.000 OA
BRANCH  23  25
ATOM     24  C   UNL     1       6.585   3.424  15.225  0.00  0.00    +0.000 C 
ATOM     25  C   UNL     1       6.327   4.326  14.004  0.00  0.00    +0.000 C 
ATOM     26  C   UNL     1       7.584   5.152  13.664  0.00  0.00    +0.000 C 
ATOM     27  C   UNL     1       6.014   3.423  12.802  0.00  0.00    +0.000 C 
ENDBRANCH  23  25
ENDBRANCH  21  23
ENDBRANCH  20  21
ENDBRANCH   1  20
TORSDOF 5
ENDMDL
MODEL 6
REMARK VINA RESULT:      -8.0      1.169      1.837
REMARK  Name = 
REMARK  8 active torsions:
REMARK  status: ('A' for Active; 'I' for Inactive)
REMARK    1  A    between atoms: C_1  and  C_2
REMARK    2  A    between atoms: C_2  and  C_3
REMARK    3  A    between atoms: C_2  and  C_4
REMARK    4  A    between atoms: C_2  and  O_5
REMARK    5  A    between atoms: O_5  and  C_6
REMARK    6  A    between atoms: C_6  and  C_8
REMARK    7  A    between atoms: C_8  and  C_9
REMARK    8  A    between atoms: C_11  and  C_12
REMARK                            x       y       z     vdW  Elec       q    Type
REMARK                         _______ _______ _______ _____ _____    ______ ____
ROOT
ATOM      1  C   UNL     1       5.550   5.791  17.806  0.00  0.00    +0.000 C 
ATOM      2  N   UNL     1       4.558   6.734  18.369  0.00  0.00    +0.000 NA
ATOM      3  C   UNL     1       3.392   6.373  18.794  0.00  0.00    +0.000 C 
ATOM      4  C   UNL     1       2.922   4.940  18.872  0.00  0.00    +0.000 A 
ATOM      5  C   UNL     1       1.597   4.640  18.502  0.00  0.00    +0.000 A 
ATOM      6  C   UNL     1       1.162   3.316  18.383  0.00  0.00    +0.000 A 
ATOM      7  C   UNL     1       2.030   2.266  18.659  0.00  0.00    +0.000 A 
ATOM      8  C   UNL     1       3.324   2.539  19.088  0.00  0.00    +0.000 A 
ATOM      9  C   UNL     1       3.785   3.862  19.165  0.00  0.00    +0.000 A 
ATOM     10  N   UNL     1       5.144   3.983  19.466  0.00  0.00    +0.000 N 
ATOM     11  C   UNL     1       6.030   4.851  18.902  0.00  0.00    +0.000 C 
ATOM     12  O   UNL     1       7.207   4.812  19.268  0.00  0.00    +0.000 OA
ATOM     13  H   UNL     1       5.603   3.254  19.999  0.00  0.00    +0.000 HD
ENDROOT
BRANCH   3  14
ATOM     14  C   UNL     1       2.432   7.511  19.085  0.00  0.00    +0.000 A 
ATOM     15  C   UNL     1       2.111   8.370  18.014  0.00  0.00    +0.000 A 
ATOM     16  C   UNL     1       1.167   9.390  18.167  0.00  0.00    +0.000 A 
ATOM     17  C   UNL     1       0.537   9.575  19.392  0.00  0.00    +0.000 A 
ATOM     18  C   UNL     1       0.868   8.752  20.464  0.00  0.00    +0.000 A 
ATOM     19  C   UNL     1       1.820   7.724  20.324  0.00  0.00    +0.000 A 
ENDBRANCH   3  14
BRANCH   1  20
ATOM     20  C   UNL     1       5.002   5.215  16.500  0.00  0.00    +0.000 C 
BRANCH  20  21
ATOM     21  C   UNL     1       5.134   5.880  15.157  0.00  0.00    +0.000 C 
ATOM     22  O   UNL     1       5.239   7.100  15.109  0.00  0.00    +0.000 OA
BRANCH  21  23
ATOM     23  O   UNL     1       5.124   5.080  14.071  0.00  0.00    +0.000 OA
BRANCH  23  25
ATOM     24  C   UNL     1       7.567   5.137  13.598  0.00  0.00    +0.000 C 
ATOM     25  C   UNL     1       6.314   4.266  13.808  0.00  0.00    +0.000 C 
ATOM     26  C   UNL     1       6.114   3.308  12.617  0.00  0.00    +0.000 C 
ATOM     27  C   UNL     1       6.530   3.417  15.069  0.00  0.00    +0.000 C 
ENDBRANCH  23  25
ENDBRANCH  21  23
ENDBRANCH  20  21
ENDBRANCH   1  20
TORSDOF 5
ENDMDL
MODEL 7
REMARK VINA RESULT:      -8.0      1.020      1.485
REMARK  Name = 
REMARK  8 active torsions:
REMARK  status: ('A' for Active; 'I' for Inactive)
REMARK    1  A    between atoms: C_1  and  C_2
REMARK    2  A    between atoms: C_2  and  C_3
REMARK    3  A    between atoms: C_2  and  C_4
REMARK    4  A    between atoms: C_2  and  O_5
REMARK    5  A    between atoms: O_5  and  C_6
REMARK    6  A    between atoms: C_6  and  C_8
REMARK    7  A    between atoms: C_8  and  C_9
REMARK    8  A    between atoms: C_11  and  C_12
REMARK                            x       y       z     vdW  Elec       q    Type
REMARK                         _______ _______ _______ _____ _____    ______ ____
ROOT
ATOM      1  C   UNL     1       6.044   5.932  18.181  0.00  0.00    +0.000 C 
ATOM      2  N   UNL     1       4.898   6.818  18.482  0.00  0.00    +0.000 NA
ATOM      3  C   UNL     1       3.691   6.388  18.659  0.00  0.00    +0.000 C 
ATOM      4  C   UNL     1       3.305   4.928  18.687  0.00  0.00    +0.000 A 
ATOM      5  C   UNL     1       2.113   4.531  18.052  0.00  0.00    +0.000 A 
ATOM      6  C   UNL     1       1.797   3.178  17.891  0.00  0.00    +0.000 A 
ATOM      7  C   UNL     1       2.648   2.196  18.385  0.00  0.00    +0.000 A 
ATOM      8  C   UNL     1       3.797   2.566  19.073  0.00  0.00    +0.000 A 
ATOM      9  C   UNL     1       4.149   3.919  19.198  0.00  0.00    +0.000 A 
ATOM     10  N   UNL     1       5.400   4.139  19.780  0.00  0.00    +0.000 N 
ATOM     11  C   UNL     1       6.332   5.052  19.389  0.00  0.00    +0.000 C 
ATOM     12  O   UNL     1       7.401   5.102  20.000  0.00  0.00    +0.000 OA
ATOM     13  H   UNL     1       5.776   3.455  20.425  0.00  0.00    +0.000 HD
ENDROOT
BRANCH   3  14
ATOM     14  C   UNL     1       2.623   7.465  18.695  0.00  0.00    +0.000 A 
ATOM     15  C   UNL     1       1.994   7.705  19.934  0.00  0.00    +0.000 A 
ATOM     16  C   UNL     1       1.064   8.739  20.080  0.00  0.00    +0.000 A 
ATOM     17  C   UNL     1       0.741   9.541  18.992  0.00  0.00    +0.000 A 
ATOM     18  C   UNL     1       1.333   9.294  17.757  0.00  0.00    +0.000 A 
ATOM     19  C   UNL     1       2.268   8.254  17.596  0.00  0.00    +0.000 A 
ENDBRANCH   3  14
BRANCH   1  20
ATOM     20  C   UNL     1       5.829   5.292  16.810  0.00  0.00    +0.000 C 
BRANCH  20  21
ATOM     21  C   UNL     1       6.826   4.399  16.124  0.00  0.00    +0.000 C 
ATOM     22  O   UNL     1       7.981   4.376  16.534  0.00  0.00    +0.000 OA
BRANCH  21  23
ATOM     23  O   UNL     1       6.383   3.668  15.080  0.00  0.00    +0.000 OA
BRANCH  23  25
ATOM     24  C   UNL     1       5.177   5.493  13.890  0.00  0.00    +0.000 C 
ATOM     25  C   UNL     1       6.204   4.349  13.794  0.00  0.00    +0.000 C 
ATOM     26  C   UNL     1       5.822   3.370  12.665  0.00  0.00    +0.000 C 
ATOM     27  C   UNL     1       7.569   4.961  13.449  0.00  0.00    +0.000 C 
ENDBRANCH  23  25
ENDBRANCH  21  23
ENDBRANCH  20  21
ENDBRANCH   1  20
TORSDOF 5
ENDMDL
MODEL 8
REMARK VINA RESULT:      -7.9      0.536      1.215
REMARK  Name = 
REMARK  8 active torsions:
REMARK  status: ('A' for Active; 'I' for Inactive)
REMARK    1  A    between atoms: C_1  and  C_2
REMARK    2  A    between atoms: C_2  and  C_3
REMARK    3  A    between atoms: C_2  and  C_4
REMARK    4  A    between atoms: C_2  and  O_5
REMARK    5  A    between atoms: O_5  and  C_6
REMARK    6  A    between atoms: C_6  and  C_8
REMARK    7  A    between atoms: C_8  and  C_9
REMARK    8  A    between atoms: C_11  and  C_12
REMARK                            x       y       z     vdW  Elec       q    Type
REMARK                         _______ _______ _______ _____ _____    ______ ____
ROOT
ATOM      1  C   UNL     1       6.091   5.608  17.255  0.00  0.00    +0.000 C 
ATOM      2  N   UNL     1       5.098   6.525  17.857  0.00  0.00    +0.000 NA
ATOM      3  C   UNL     1       3.935   6.142  18.274  0.00  0.00    +0.000 C 
ATOM      4  C   UNL     1       3.471   4.705  18.299  0.00  0.00    +0.000 A 
ATOM      5  C   UNL     1       2.146   4.414  17.924  0.00  0.00    +0.000 A 
ATOM      6  C   UNL     1       1.717   3.093  17.756  0.00  0.00    +0.000 A 
ATOM      7  C   UNL     1       2.591   2.038  17.988  0.00  0.00    +0.000 A 
ATOM      8  C   UNL     1       3.884   2.300  18.422  0.00  0.00    +0.000 A 
ATOM      9  C   UNL     1       4.341   3.622  18.547  0.00  0.00    +0.000 A 
ATOM     10  N   UNL     1       5.700   3.737  18.846  0.00  0.00    +0.000 N 
ATOM     11  C   UNL     1       6.580   4.630  18.312  0.00  0.00    +0.000 C 
ATOM     12  O   UNL     1       7.759   4.582  18.671  0.00  0.00    +0.000 OA
ATOM     13  H   UNL     1       6.165   2.990  19.349  0.00  0.00    +0.000 HD
ENDROOT
BRANCH   3  14
ATOM     14  C   UNL     1       2.972   7.265  18.612  0.00  0.00    +0.000 A 
ATOM     15  C   UNL     1       2.640   8.161  17.575  0.00  0.00    +0.000 A 
ATOM     16  C   UNL     1       1.692   9.170  17.771  0.00  0.00    +0.000 A 
ATOM     17  C   UNL     1       1.069   9.306  19.006  0.00  0.00    +0.000 A 
ATOM     18  C   UNL     1       1.410   8.446  20.045  0.00  0.00    +0.000 A 
ATOM     19  C   UNL     1       2.366   7.429  19.861  0.00  0.00    +0.000 A 
ENDBRANCH   3  14
BRANCH   1  20
ATOM     20  C   UNL     1       5.539   5.081  15.931  0.00  0.00    +0.000 C 
BRANCH  20  21
ATOM     21  C   UNL     1       6.066   3.868  15.214  0.00  0.00    +0.000 C 
ATOM     22  O   UNL     1       5.713   2.757  15.593  0.00  0.00    +0.000 OA
BRANCH  21  23
ATOM     23  O   UNL     1       6.910   4.079  14.183  0.00  0.00    +0.000 OA
BRANCH  23  25
ATOM     24  C   UNL     1       6.657   2.375  12.386  0.00  0.00    +0.000 C 
ATOM     25  C   UNL     1       6.412   3.830  12.827  0.00  0.00    +0.000 C 
ATOM     26  C   UNL     1       7.004   4.816  11.800  0.00  0.00    +0.000 C 
ATOM     27  C   UNL     1       4.896   4.061  12.887  0.00  0.00    +0.000 C 
ENDBRANCH  23  25
ENDBRANCH  21  23
ENDBRANCH  20  21
ENDBRANCH   1  20
TORSDOF 5
ENDMDL
MODEL 9
REMARK VINA RESULT:      -7.7      1.028      1.469
REMARK  Name = 
REMARK  8 active torsions:
REMARK  status: ('A' for Active; 'I' for Inactive)
REMARK    1  A    between atoms: C_1  and  C_2
REMARK    2  A    between atoms: C_2  and  C_3
REMARK    3  A    between atoms: C_2  and  C_4
REMARK    4  A    between atoms: C_2  and  O_5
REMARK    5  A    between atoms: O_5  and  C_6
REMARK    6  A    between atoms: C_6  and  C_8
REMARK    7  A    between atoms: C_8  and  C_9
REMARK    8  A    between atoms: C_11  and  C_12
REMARK                            x       y       z     vdW  Elec       q    Type
REMARK                         _______ _______ _______ _____ _____    ______ ____
ROOT
ATOM      1  C   UNL     1       5.698   5.758  17.726  0.00  0.00    +0.000 C 
ATOM      2  N   UNL     1       4.661   6.703  18.196  0.00  0.00    +0.000 NA
ATOM      3  C   UNL     1       3.484   6.335  18.587  0.00  0.00    +0.000 C 
ATOM      4  C   UNL     1       3.043   4.897  18.716  0.00  0.00    +0.000 A 
ATOM      5  C   UNL     1       1.744   4.547  18.303  0.00  0.00    +0.000 A 
ATOM      6  C   UNL     1       1.344   3.208  18.232  0.00  0.00    +0.000 A 
ATOM      7  C   UNL     1       2.222   2.195  18.598  0.00  0.00    +0.000 A 
ATOM      8  C   UNL     1       3.488   2.520  19.071  0.00  0.00    +0.000 A 
ATOM      9  C   UNL     1       3.916   3.857  19.101  0.00  0.00    +0.000 A 
ATOM     10  N   UNL     1       5.257   4.025  19.456  0.00  0.00    +0.000 N 
ATOM     11  C   UNL     1       6.148   4.886  18.889  0.00  0.00    +0.000 C 
ATOM     12  O   UNL     1       7.307   4.894  19.308  0.00  0.00    +0.000 OA
ATOM     13  H   UNL     1       5.707   3.335  20.044  0.00  0.00    +0.000 HD
ENDROOT
BRANCH   3  14
ATOM     14  C   UNL     1       2.487   7.463  18.776  0.00  0.00    +0.000 A 
ATOM     15  C   UNL     1       1.982   7.661  20.078  0.00  0.00    +0.000 A 
ATOM     16  C   UNL     1       1.129   8.732  20.363  0.00  0.00    +0.000 A 
ATOM     17  C   UNL     1       0.760   9.614  19.354  0.00  0.00    +0.000 A 
ATOM     18  C   UNL     1       1.229   9.410  18.060  0.00  0.00    +0.000 A 
ATOM     19  C   UNL     1       2.085   8.334  17.759  0.00  0.00    +0.000 A 
ENDBRANCH   3  14
BRANCH   1  20
ATOM     20  C   UNL     1       5.223   5.106  16.428  0.00  0.00    +0.000 C 
BRANCH  20  21
ATOM     21  C   UNL     1       5.830   3.868  15.827  0.00  0.00    +0.000 C 
ATOM     22  O   UNL     1       5.346   2.777  16.103  0.00  0.00    +0.000 OA
BRANCH  21  23
ATOM     23  O   UNL     1       6.891   4.037  15.011  0.00  0.00    +0.000 OA
BRANCH  23  25
ATOM     24  C   UNL     1       7.884   5.235  13.068  0.00  0.00    +0.000 C 
ATOM     25  C   UNL     1       6.641   4.542  13.658  0.00  0.00    +0.000 C 
ATOM     26  C   UNL     1       5.419   5.480  13.602  0.00  0.00    +0.000 C 
ATOM     27  C   UNL     1       6.331   3.308  12.798  0.00  0.00    +0.000 C 
ENDBRANCH  23  25
ENDBRANCH  21  23
ENDBRANCH  20  21
ENDBRANCH   1  20
TORSDOF 5
ENDMDL
