MODEL 1
REMARK VINA RESULT:      -7.3      0.000      0.000
REMARK  Name = 
REMARK  9 active torsions:
REMARK  status: ('A' for Active; 'I' for Inactive)
REMARK    1  A    between atoms: C_1  and  C_2
REMARK    2  A    between atoms: C_2  and  C_3
REMARK    3  A    between atoms: C_3  and  N_4
REMARK    4  A    between atoms: C_3  and  C_15
REMARK    5  A    between atoms: C_5  and  C_7
REMARK    6  A    between atoms: C_7  and  C_8
REMARK    7  A    between atoms: C_8  and  N_9
REMARK    8  A    between atoms: C_13  and  C_14
REMARK    9  A    between atoms: C_17  and  C_18
REMARK                            x       y       z     vdW  Elec       q    Type
REMARK                         _______ _______ _______ _____ _____    ______ ____
ROOT
ATOM      1  N   UNL     1       4.206   4.833  16.994  0.00  0.00    +0.000 N 
ATOM      2  C   UNL     1       3.266   5.388  17.831  0.00  0.00    +0.000 C 
ATOM      3  O   UNL     1       3.494   6.360  18.544  0.00  0.00    +0.000 OA
ATOM      4  H   UNL     1       3.986   4.004  16.455  0.00  0.00    +0.000 HD
ENDROOT
BRANCH   1   5
ATOM      5  C   UNL     1       5.578   5.341  16.928  0.00  0.00    +0.000 C 
BRANCH   5   6
ATOM      6  C   UNL     1       6.122   5.091  15.555  0.00  0.00    +0.000 A 
ATOM      7  N   UNL     1       5.682   4.320  14.585  0.00  0.00    +0.000 NA
ATOM      8  C   UNL     1       6.684   4.441  13.648  0.00  0.00    +0.000 A 
ATOM      9  C   UNL     1       6.694   3.712  12.367  0.00  0.00    +0.000 C 
ATOM     10  N   UNL     1       7.679   5.265  13.996  0.00  0.00    +0.000 NA
ATOM     11  O   UNL     1       7.310   5.701  15.266  0.00  0.00    +0.000 OA
ENDBRANCH   5   6
BRANCH   5  13
ATOM     12  C   UNL     1       7.262   5.704  18.817  0.00  0.00    +0.000 C 
ATOM     13  C   UNL     1       6.462   4.688  18.005  0.00  0.00    +0.000 C 
ENDBRANCH   5  13
ENDBRANCH   1   5
BRANCH   2  14
ATOM     14  C   UNL     1       1.916   4.712  17.811  0.00  0.00    +0.000 C 
BRANCH  14  15
ATOM     15  C   UNL     1       2.073   3.234  18.136  0.00  0.00    +0.000 C 
BRANCH  15  16
ATOM     16  N   UNL     1       2.046   2.995  19.571  0.00  0.00    +0.000 N 
ATOM     17  N   UNL     1       0.879   3.146  20.229  0.00  0.00    +0.000 NA
ATOM     18  C   UNL     1       1.194   2.894  21.502  0.00  0.00    +0.000 A 
ATOM     19  C   UNL     1       2.550   2.557  21.658  0.00  0.00    +0.000 A 
ATOM     20  C   UNL     1       3.082   2.611  20.386  0.00  0.00    +0.000 A 
ATOM     21  C   UNL     1       4.457   2.328  19.909  0.00  0.00    +0.000 C 
ENDBRANCH  15  16
ENDBRANCH  14  15
ENDBRANCH   2  14
TORSDOF 6
ENDMDL
MODEL 2
REMARK VINA RESULT:      -7.2      1.190      1.971
REMARK  Name = 
REMARK  9 active torsions:
REMARK  status: ('A' for Active; 'I' for Inactive)
REMARK    1  A    between atoms: C_1  and  C_2
REMARK    2  A    between atoms: C_2  and  C_3
REMARK    3  A    between atoms: C_3  and  N_4
REMARK    4  A    between atoms: C_3  and  C_15
REMARK    5  A    between atoms: C_5  and  C_7
REMARK    6  A    between atoms: C_7  and  C_8
REMARK    7  A    between atoms: C_8  and  N_9
REMARK    8  A    between atoms: C_13  and  C_14
REMARK    9  A    between atoms: C_17  and  C_18
REMARK                            x       y       z     vdW  Elec       q    Type
REMARK                         _______ _______ _______ _____ _____    ______ ____
ROOT
ATOM      1  N   UNL     1       5.920   4.212  17.820  0.00  0.00    +0.000 N 
ATOM      2  C   UNL     1       5.338   4.245  19.065  0.00  0.00    +0.000 C 
ATOM      3  O   UNL     1       5.082   5.288  19.658  0.00  0.00    +0.000 OA
ATOM      4  H   UNL     1       6.153   3.326  17.387  0.00  0.00    +0.000 HD
ENDROOT
BRANCH   1   5
ATOM      5  C   UNL     1       6.324   5.434  17.123  0.00  0.00    +0.000 C 
BRANCH   5   6
ATOM      6  C   UNL     1       6.525   5.122  15.672  0.00  0.00    +0.000 A 
ATOM      7  N   UNL     1       5.896   4.280  14.881  0.00  0.00    +0.000 NA
ATOM      8  C   UNL     1       6.629   4.380  13.719  0.00  0.00    +0.000 A 
ATOM      9  C   UNL     1       6.357   3.576  12.513  0.00  0.00    +0.000 C 
ATOM     10  N   UNL     1       7.638   5.256  13.767  0.00  0.00    +0.000 NA
ATOM     11  O   UNL     1       7.573   5.753  15.066  0.00  0.00    +0.000 OA
ENDBRANCH   5   6
BRANCH   5  13
ATOM     12  C   UNL     1       7.605   7.557  17.746  0.00  0.00    +0.000 C 
ATOM     13  C   UNL     1       7.600   6.031  17.745  0.00  0.00    +0.000 C 
ENDBRANCH   5  13
ENDBRANCH   1   5
BRANCH   2  14
ATOM     14  C   UNL     1       5.029   2.893  19.661  0.00  0.00    +0.000 C 
BRANCH  14  15
ATOM     15  C   UNL     1       3.749   2.340  19.054  0.00  0.00    +0.000 C 
BRANCH  15  16
ATOM     16  N   UNL     1       2.568   2.857  19.729  0.00  0.00    +0.000 N 
ATOM     17  N   UNL     1       2.381   2.549  21.029  0.00  0.00    +0.000 NA
ATOM     18  C   UNL     1       1.219   3.133  21.331  0.00  0.00    +0.000 A 
ATOM     19  C   UNL     1       0.674   3.834  20.242  0.00  0.00    +0.000 A 
ATOM     20  C   UNL     1       1.578   3.656  19.214  0.00  0.00    +0.000 A 
ATOM     21  C   UNL     1       1.567   4.179  17.826  0.00  0.00    +0.000 C 
ENDBRANCH  15  16
ENDBRANCH  14  15
ENDBRANCH   2  14
TORSDOF 6
ENDMDL
MODEL 3
REMARK VINA RESULT:      -7.1      2.152      3.390
REMARK  Name = 
REMARK  9 active torsions:
REMARK  status: ('A' for Active; 'I' for Inactive)
REMARK    1  A    between atoms: C_1  and  C_2
REMARK    2  A    between atoms: C_2  and  C_3
REMARK    3  A    between atoms: C_3  and  N_4
REMARK    4  A    between atoms: C_3  and  C_15
REMARK    5  A    between atoms: C_5  and  C_7
REMARK    6  A    between atoms: C_7  and  C_8
REMARK    7  A    between atoms: C_8  and  N_9
REMARK    8  A    between atoms: C_13  and  C_14
REMARK    9  A    between atoms: C_17  and  C_18
REMARK                            x       y       z     vdW  Elec       q    Type
REMARK                         _______ _______ _______ _____ _____    ______ ____
ROOT
ATOM      1  N   UNL     1       4.987   4.455  16.206  0.00  0.00    +0.000 N 
ATOM      2  C   UNL     1       4.328   3.892  17.273  0.00  0.00    +0.000 C 
ATOM      3  O   UNL     1       4.909   3.423  18.248  0.00  0.00    +0.000 OA
ATOM      4  H   UNL     1       4.468   4.791  15.404  0.00  0.00    +0.000 HD
ENDROOT
BRANCH   1   5
ATOM      5  C   UNL     1       6.449   4.495  16.133  0.00  0.00    +0.000 C 
BRANCH   5   6
ATOM      6  C   UNL     1       6.943   5.663  16.930  0.00  0.00    +0.000 A 
ATOM      7  N   UNL     1       7.006   6.942  16.629  0.00  0.00    +0.000 NA
ATOM      8  C   UNL     1       7.662   7.459  17.724  0.00  0.00    +0.000 A 
ATOM      9  C   UNL     1       8.034   8.880  17.854  0.00  0.00    +0.000 C 
ATOM     10  N   UNL     1       7.964   6.564  18.671  0.00  0.00    +0.000 NA
ATOM     11  O   UNL     1       7.488   5.365  18.146  0.00  0.00    +0.000 OA
ENDBRANCH   5   6
BRANCH   5  13
ATOM     12  C   UNL     1       5.952   3.936  13.688  0.00  0.00    +0.000 C 
ATOM     13  C   UNL     1       6.928   4.575  14.672  0.00  0.00    +0.000 C 
ENDBRANCH   5  13
ENDBRANCH   1   5
BRANCH   2  14
ATOM     14  C   UNL     1       2.823   3.890  17.166  0.00  0.00    +0.000 C 
BRANCH  14  15
ATOM     15  C   UNL     1       2.232   4.875  18.163  0.00  0.00    +0.000 C 
BRANCH  15  16
ATOM     16  N   UNL     1       2.042   4.266  19.470  0.00  0.00    +0.000 N 
ATOM     17  N   UNL     1       2.613   4.849  20.544  0.00  0.00    +0.000 NA
ATOM     18  C   UNL     1       2.286   4.044  21.557  0.00  0.00    +0.000 A 
ATOM     19  C   UNL     1       1.487   2.964  21.144  0.00  0.00    +0.000 A 
ATOM     20  C   UNL     1       1.326   3.138  19.784  0.00  0.00    +0.000 A 
ATOM     21  C   UNL     1       0.560   2.336  18.799  0.00  0.00    +0.000 C 
ENDBRANCH  15  16
ENDBRANCH  14  15
ENDBRANCH   2  14
TORSDOF 6
ENDMDL
MODEL 4
REMARK VINA RESULT:      -7.1      1.354      1.938
REMARK  Name = 
REMARK  9 active torsions:
REMARK  status: ('A' for Active; 'I' for Inactive)
REMARK    1  A    between atoms: C_1  and  C_2
REMARK    2  A    between atoms: C_2  and  C_3
REMARK    3  A    between atoms: C_3  and  N_4
REMARK    4  A    between atoms: C_3  and  C_15
REMARK    5  A    between atoms: C_5  and  C_7
REMARK    6  A    between atoms: C_7  and  C_8
REMARK    7  A    between atoms: C_8  and  N_9
REMARK    8  A    between atoms: C_13  and  C_14
REMARK    9  A    between atoms: C_17  and  C_18
REMARK                            x       y       z     vdW  Elec       q    Type
REMARK                         _______ _______ _______ _____ _____    ______ ____
ROOT
ATOM      1  N   UNL     1       5.243   5.620  17.856  0.00  0.00    +0.000 N 
ATOM      2  C   UNL     1       4.232   6.549  17.799  0.00  0.00    +0.000 C 
ATOM      3  O   UNL     1       4.358   7.645  17.260  0.00  0.00    +0.000 OA
ATOM      4  H   UNL     1       5.107   4.745  18.349  0.00  0.00    +0.000 HD
ENDROOT
BRANCH   1   5
ATOM      5  C   UNL     1       6.574   5.891  17.311  0.00  0.00    +0.000 C 
BRANCH   5   6
ATOM      6  C   UNL     1       6.632   5.392  15.900  0.00  0.00    +0.000 A 
ATOM      7  N   UNL     1       5.846   4.562  15.250  0.00  0.00    +0.000 NA
ATOM      8  C   UNL     1       6.505   4.428  14.048  0.00  0.00    +0.000 A 
ATOM      9  C   UNL     1       6.048   3.540  12.963  0.00  0.00    +0.000 C 
ATOM     10  N   UNL     1       7.621   5.157  13.936  0.00  0.00    +0.000 NA
ATOM     11  O   UNL     1       7.711   5.801  15.168  0.00  0.00    +0.000 OA
ENDBRANCH   5   6
BRANCH   5  13
ATOM     12  C   UNL     1       7.594   5.654  19.643  0.00  0.00    +0.000 C 
ATOM     13  C   UNL     1       7.669   5.241  18.176  0.00  0.00    +0.000 C 
ENDBRANCH   5  13
ENDBRANCH   1   5
BRANCH   2  14
ATOM     14  C   UNL     1       2.938   6.126  18.451  0.00  0.00    +0.000 C 
BRANCH  14  15
ATOM     15  C   UNL     1       3.214   5.070  19.510  0.00  0.00    +0.000 C 
BRANCH  15  16
ATOM     16  N   UNL     1       2.721   3.763  19.106  0.00  0.00    +0.000 N 
ATOM     17  N   UNL     1       3.134   3.253  17.927  0.00  0.00    +0.000 NA
ATOM     18  C   UNL     1       2.487   2.088  17.839  0.00  0.00    +0.000 A 
ATOM     19  C   UNL     1       1.685   1.837  18.965  0.00  0.00    +0.000 A 
ATOM     20  C   UNL     1       1.866   2.931  19.785  0.00  0.00    +0.000 A 
ATOM     21  C   UNL     1       1.304   3.229  21.125  0.00  0.00    +0.000 C 
ENDBRANCH  15  16
ENDBRANCH  14  15
ENDBRANCH   2  14
TORSDOF 6
ENDMDL
MODEL 5
REMARK VINA RESULT:      -7.1      1.121      1.709
REMARK  Name = 
REMARK  9 active torsions:
REMARK  status: ('A' for Active; 'I' for Inactive)
REMARK    1  A    between atoms: C_1  and  C_2
REMARK    2  A    between atoms: C_2  and  C_3
REMARK    3  A    between atoms: C_3  and  N_4
REMARK    4  A    between atoms: C_3  and  C_15
REMARK    5  A    between atoms: C_5  and  C_7
REMARK    6  A    between atoms: C_7  and  C_8
REMARK    7  A    between atoms: C_8  and  N_9
REMARK    8  A    between atoms: C_13  and  C_14
REMARK    9  A    between atoms: C_17  and  C_18
REMARK                            x       y       z     vdW  Elec       q    Type
REMARK                         _______ _______ _______ _____ _____    ______ ____
ROOT
ATOM      1  N   UNL     1       5.025   5.188  16.968  0.00  0.00    +0.000 N 
ATOM      2  C   UNL     1       4.202   6.197  17.411  0.00  0.00    +0.000 C 
ATOM      3  O   UNL     1       4.520   7.382  17.384  0.00  0.00    +0.000 OA
ATOM      4  H   UNL     1       4.737   4.220  17.050  0.00  0.00    +0.000 HD
ENDROOT
BRANCH   1   5
ATOM      5  C   UNL     1       6.375   5.454  16.470  0.00  0.00    +0.000 C 
BRANCH   5   6
ATOM      6  C   UNL     1       6.476   4.967  15.057  0.00  0.00    +0.000 A 
ATOM      7  N   UNL     1       5.734   4.111  14.390  0.00  0.00    +0.000 NA
ATOM      8  C   UNL     1       6.417   4.010  13.198  0.00  0.00    +0.000 A 
ATOM      9  C   UNL     1       6.013   3.111  12.102  0.00  0.00    +0.000 C 
ATOM     10  N   UNL     1       7.507   4.780  13.110  0.00  0.00    +0.000 NA
ATOM     11  O   UNL     1       7.551   5.420  14.347  0.00  0.00    +0.000 OA
ENDBRANCH   5   6
BRANCH   5  13
ATOM     12  C   UNL     1       7.653   5.528  18.683  0.00  0.00    +0.000 C 
ATOM     13  C   UNL     1       7.437   4.789  17.365  0.00  0.00    +0.000 C 
ENDBRANCH   5  13
ENDBRANCH   1   5
BRANCH   2  14
ATOM     14  C   UNL     1       2.862   5.743  17.937  0.00  0.00    +0.000 C 
BRANCH  14  15
ATOM     15  C   UNL     1       2.720   4.239  17.762  0.00  0.00    +0.000 C 
BRANCH  15  16
ATOM     16  N   UNL     1       3.046   3.523  18.985  0.00  0.00    +0.000 N 
ATOM     17  N   UNL     1       4.266   2.957  19.097  0.00  0.00    +0.000 NA
ATOM     18  C   UNL     1       4.234   2.363  20.292  0.00  0.00    +0.000 A 
ATOM     19  C   UNL     1       3.013   2.567  20.957  0.00  0.00    +0.000 A 
ATOM     20  C   UNL     1       2.261   3.340  20.096  0.00  0.00    +0.000 A 
ATOM     21  C   UNL     1       0.897   3.900  20.254  0.00  0.00    +0.000 C 
ENDBRANCH  15  16
ENDBRANCH  14  15
ENDBRANCH   2  14
TORSDOF 6
ENDMDL
MODEL 6
REMARK VINA RESULT:      -6.9      1.988      3.300
REMARK  Name = 
REMARK  9 active torsions:
REMARK  status: ('A' for Active; 'I' for Inactive)
REMARK    1  A    between atoms: C_1  and  C_2
REMARK    2  A    between atoms: C_2  and  C_3
REMARK    3  A    between atoms: C_3  and  N_4
REMARK    4  A    between atoms: C_3  and  C_15
REMARK    5  A    between atoms: C_5  and  C_7
REMARK    6  A    between atoms: C_7  and  C_8
REMARK    7  A    between atoms: C_8  and  N_9
REMARK    8  A    between atoms: C_13  and  C_14
REMARK    9  A    between atoms: C_17  and  C_18
REMARK                            x       y       z     vdW  Elec       q    Type
REMARK                         _______ _______ _______ _____ _____    ______ ____
ROOT
ATOM      1  N   UNL     1       5.728   3.327  16.419  0.00  0.00    +0.000 N 
ATOM      2  C   UNL     1       4.506   3.770  16.866  0.00  0.00    +0.000 C 
ATOM      3  O   UNL     1       4.101   4.915  16.686  0.00  0.00    +0.000 OA
ATOM      4  H   UNL     1       6.039   2.385  16.628  0.00  0.00    +0.000 HD
ENDROOT
BRANCH   1   5
ATOM      5  C   UNL     1       6.666   4.212  15.726  0.00  0.00    +0.000 C 
BRANCH   5   6
ATOM      6  C   UNL     1       7.028   5.344  16.637  0.00  0.00    +0.000 A 
ATOM      7  N   UNL     1       7.089   6.639  16.415  0.00  0.00    +0.000 NA
ATOM      8  C   UNL     1       7.595   7.109  17.607  0.00  0.00    +0.000 A 
ATOM      9  C   UNL     1       7.907   8.528  17.855  0.00  0.00    +0.000 C 
ATOM     10  N   UNL     1       7.808   6.169  18.534  0.00  0.00    +0.000 NA
ATOM     11  O   UNL     1       7.433   4.991  17.893  0.00  0.00    +0.000 OA
ENDBRANCH   5   6
BRANCH   5  13
ATOM     12  C   UNL     1       6.156   3.714  13.271  0.00  0.00    +0.000 C 
ATOM     13  C   UNL     1       6.066   4.730  14.407  0.00  0.00    +0.000 C 
ENDBRANCH   5  13
ENDBRANCH   1   5
BRANCH   2  14
ATOM     14  C   UNL     1       3.684   2.740  17.603  0.00  0.00    +0.000 C 
BRANCH  14  15
ATOM     15  C   UNL     1       2.337   3.332  17.987  0.00  0.00    +0.000 C 
BRANCH  15  16
ATOM     16  N   UNL     1       2.164   3.382  19.431  0.00  0.00    +0.000 N 
ATOM     17  N   UNL     1       1.708   2.283  20.065  0.00  0.00    +0.000 NA
ATOM     18  C   UNL     1       1.631   2.660  21.344  0.00  0.00    +0.000 A 
ATOM     19  C   UNL     1       2.059   3.985  21.536  0.00  0.00    +0.000 A 
ATOM     20  C   UNL     1       2.419   4.430  20.280  0.00  0.00    +0.000 A 
ATOM     21  C   UNL     1       2.973   5.736  19.848  0.00  0.00    +0.000 C 
ENDBRANCH  15  16
ENDBRANCH  14  15
ENDBRANCH   2  14
TORSDOF 6
ENDMDL
MODEL 7
REMARK VINA RESULT:      -6.9      1.276      1.705
REMARK  Name = 
REMARK  9 active torsions:
REMARK  status: ('A' for Active; 'I' for Inactive)
REMARK    1  A    between atoms: C_1  and  C_2
REMARK    2  A    between atoms: C_2  and  C_3
REMARK    3  A    between atoms: C_3  and  N_4
REMARK    4  A    between atoms: C_3  and  C_15
REMARK    5  A    between atoms: C_5  and  C_7
REMARK    6  A    between atoms: C_7  and  C_8
REMARK    7  A    between atoms: C_8  and  N_9
REMARK    8  A    between atoms: C_13  and  C_14
REMARK    9  A    between atoms: C_17  and  C_18
REMARK                            x       y       z     vdW  Elec       q    Type
REMARK                         _______ _______ _______ _____ _____    ______ ____
ROOT
ATOM      1  N   UNL     1       5.338   3.630  17.155  0.00  0.00    +0.000 N 
ATOM      2  C   UNL     1       3.976   3.635  17.348  0.00  0.00    +0.000 C 
ATOM      3  O   UNL     1       3.296   4.656  17.295  0.00  0.00    +0.000 OA
ATOM      4  H   UNL     1       5.865   2.770  17.251  0.00  0.00    +0.000 HD
ENDROOT
BRANCH   1   5
ATOM      5  C   UNL     1       6.090   4.863  16.915  0.00  0.00    +0.000 C 
BRANCH   5   6
ATOM      6  C   UNL     1       6.540   4.886  15.486  0.00  0.00    +0.000 A 
ATOM      7  N   UNL     1       6.108   4.219  14.439  0.00  0.00    +0.000 NA
ATOM      8  C   UNL     1       7.007   4.599  13.468  0.00  0.00    +0.000 A 
ATOM      9  C   UNL     1       6.988   4.072  12.090  0.00  0.00    +0.000 C 
ATOM     10  N   UNL     1       7.931   5.477  13.873  0.00  0.00    +0.000 NA
ATOM     11  O   UNL     1       7.624   5.672  15.217  0.00  0.00    +0.000 OA
ENDBRANCH   5   6
BRANCH   5  13
ATOM     12  C   UNL     1       6.899   5.543  19.242  0.00  0.00    +0.000 C 
ATOM     13  C   UNL     1       7.285   4.979  17.877  0.00  0.00    +0.000 C 
ENDBRANCH   5  13
ENDBRANCH   1   5
BRANCH   2  14
ATOM     14  C   UNL     1       3.367   2.284  17.632  0.00  0.00    +0.000 C 
BRANCH  14  15
ATOM     15  C   UNL     1       3.749   1.828  19.032  0.00  0.00    +0.000 C 
BRANCH  15  16
ATOM     16  N   UNL     1       2.851   2.374  20.038  0.00  0.00    +0.000 N 
ATOM     17  N   UNL     1       3.344   2.649  21.263  0.00  0.00    +0.000 NA
ATOM     18  C   UNL     1       2.283   3.091  21.942  0.00  0.00    +0.000 A 
ATOM     19  C   UNL     1       1.121   3.127  21.153  0.00  0.00    +0.000 A 
ATOM     20  C   UNL     1       1.517   2.673  19.912  0.00  0.00    +0.000 A 
ATOM     21  C   UNL     1       0.743   2.513  18.657  0.00  0.00    +0.000 C 
ENDBRANCH  15  16
ENDBRANCH  14  15
ENDBRANCH   2  14
TORSDOF 6
ENDMDL
MODEL 8
REMARK VINA RESULT:      -6.8      1.306      2.126
REMARK  Name = 
REMARK  9 active torsions:
REMARK  status: ('A' for Active; 'I' for Inactive)
REMARK    1  A    between atoms: C_1  and  C_2
REMARK    2  A    between atoms: C_2  and  C_3
REMARK    3  A    between atoms: C_3  and  N_4
REMARK    4  A    between atoms: C_3  and  C_15
REMARK    5  A    between atoms: C_5  and  C_7
REMARK    6  A    between atoms: C_7  and  C_8
REMARK    7  A    between atoms: C_8  and  N_9
REMARK    8  A    between atoms: C_13  and  C_14
REMARK    9  A    between atoms: C_17  and  C_18
REMARK                            x       y       z     vdW  Elec       q    Type
REMARK                         _______ _______ _______ _____ _____    ______ ____
ROOT
ATOM      1  N   UNL     1       5.933   4.029  18.213  0.00  0.00    +0.000 N 
ATOM      2  C   UNL     1       5.128   4.079  19.327  0.00  0.00    +0.000 C 
ATOM      3  O   UNL     1       4.709   5.129  19.805  0.00  0.00    +0.000 OA
ATOM      4  H   UNL     1       6.291   3.142  17.880  0.00  0.00    +0.000 HD
ENDROOT
BRANCH   1   5
ATOM      5  C   UNL     1       6.392   5.244  17.536  0.00  0.00    +0.000 C 
BRANCH   5   6
ATOM      6  C   UNL     1       6.488   4.972  16.066  0.00  0.00    +0.000 A 
ATOM      7  N   UNL     1       5.839   4.116  15.307  0.00  0.00    +0.000 NA
ATOM      8  C   UNL     1       6.469   4.278  14.093  0.00  0.00    +0.000 A 
ATOM      9  C   UNL     1       6.139   3.486  12.893  0.00  0.00    +0.000 C 
ATOM     10  N   UNL     1       7.434   5.204  14.081  0.00  0.00    +0.000 NA
ATOM     11  O   UNL     1       7.451   5.669  15.394  0.00  0.00    +0.000 OA
ENDBRANCH   5   6
BRANCH   5  13
ATOM     12  C   UNL     1       7.802   7.229  18.312  0.00  0.00    +0.000 C 
ATOM     13  C   UNL     1       7.741   5.718  18.103  0.00  0.00    +0.000 C 
ENDBRANCH   5  13
ENDBRANCH   1   5
BRANCH   2  14
ATOM     14  C   UNL     1       4.790   2.737  19.930  0.00  0.00    +0.000 C 
BRANCH  14  15
ATOM     15  C   UNL     1       3.819   1.994  19.025  0.00  0.00    +0.000 C 
BRANCH  15  16
ATOM     16  N   UNL     1       2.533   2.669  18.947  0.00  0.00    +0.000 N 
ATOM     17  N   UNL     1       2.107   3.110  17.746  0.00  0.00    +0.000 NA
ATOM     18  C   UNL     1       0.940   3.700  18.018  0.00  0.00    +0.000 A 
ATOM     19  C   UNL     1       0.605   3.616  19.380  0.00  0.00    +0.000 A 
ATOM     20  C   UNL     1       1.647   2.925  19.964  0.00  0.00    +0.000 A 
ATOM     21  C   UNL     1       1.849   2.503  21.371  0.00  0.00    +0.000 C 
ENDBRANCH  15  16
ENDBRANCH  14  15
ENDBRANCH   2  14
TORSDOF 6
ENDMDL
MODEL 9
REMARK VINA RESULT:      -6.8      1.548      2.248
REMARK  Name = 
REMARK  9 active torsions:
REMARK  status: ('A' for Active; 'I' for Inactive)
REMARK    1  A    between atoms: C_1  and  C_2
REMARK    2  A    between atoms: C_2  and  C_3
REMARK    3  A    between atoms: C_3  and  N_4
REMARK    4  A    between atoms: C_3  and  C_15
REMARK    5  A    between atoms: C_5  and  C_7
REMARK    6  A    between atoms: C_7  and  C_8
REMARK    7  A    between atoms: C_8  and  N_9
REMARK    8  A    between atoms: C_13  and  C_14
REMARK    9  A    between atoms: C_17  and  C_18
REMARK                            x       y       z     vdW  Elec       q    Type
REMARK                         _______ _______ _______ _____ _____    ______ ____
ROOT
ATOM      1  N   UNL     1       4.917   6.066  17.888  0.00  0.00    +0.000 N 
ATOM      2  C   UNL     1       3.756   6.792  18.014  0.00  0.00    +0.000 C 
ATOM      3  O   UNL     1       3.533   7.815  17.375  0.00  0.00    +0.000 OA
ATOM      4  H   UNL     1       5.077   5.250  18.467  0.00  0.00    +0.000 HD
ENDROOT
BRANCH   1   5
ATOM      5  C   UNL     1       6.004   6.492  17.004  0.00  0.00    +0.000 C 
BRANCH   5   6
ATOM      6  C   UNL     1       6.199   5.455  15.940  0.00  0.00    +0.000 A 
ATOM      7  N   UNL     1       6.413   5.581  14.649  0.00  0.00    +0.000 NA
ATOM      8  C   UNL     1       6.382   4.271  14.226  0.00  0.00    +0.000 A 
ATOM      9  C   UNL     1       6.519   3.867  12.815  0.00  0.00    +0.000 C 
ATOM     10  N   UNL     1       6.191   3.373  15.199  0.00  0.00    +0.000 NA
ATOM     11  O   UNL     1       6.069   4.157  16.343  0.00  0.00    +0.000 OA
ENDBRANCH   5   6
BRANCH   5  13
ATOM     12  C   UNL     1       7.842   8.148  17.646  0.00  0.00    +0.000 C 
ATOM     13  C   UNL     1       7.302   6.728  17.796  0.00  0.00    +0.000 C 
ENDBRANCH   5  13
ENDBRANCH   1   5
BRANCH   2  14
ATOM     14  C   UNL     1       2.761   6.237  19.004  0.00  0.00    +0.000 C 
BRANCH  14  15
ATOM     15  C   UNL     1       1.811   5.279  18.302  0.00  0.00    +0.000 C 
BRANCH  15  16
ATOM     16  N   UNL     1       2.241   3.897  18.443  0.00  0.00    +0.000 N 
ATOM     17  N   UNL     1       3.049   3.372  17.499  0.00  0.00    +0.000 NA
ATOM     18  C   UNL     1       3.224   2.109  17.896  0.00  0.00    +0.000 A 
ATOM     19  C   UNL     1       2.557   1.830  19.100  0.00  0.00    +0.000 A 
ATOM     20  C   UNL     1       1.938   3.013  19.449  0.00  0.00    +0.000 A 
ATOM     21  C   UNL     1       1.111   3.350  20.633  0.00  0.00    +0.000 C 
ENDBRANCH  15  16
ENDBRANCH  14  15
ENDBRANCH   2  14
TORSDOF 6
ENDMDL
