MODEL 1
REMARK VINA RESULT:      -6.5      0.000      0.000
REMARK  Name = 
REMARK  9 active torsions:
REMARK  status: ('A' for Active; 'I' for Inactive)
REMARK    1  A    between atoms: C_2  and  C_3
REMARK    2  A    between atoms: N_5  and  C_6
REMARK    3  A    between atoms: N_5  and  C_14
REMARK    4  A    between atoms: C_10  and  C_11
REMARK    5  A    between atoms: C_14  and  C_15
REMARK    6  A    between atoms: C_14  and  C_25
REMARK    7  A    between atoms: N_17  and  C_18
REMARK    8  A    between atoms: C_18  and  C_19
REMARK    9  A    between atoms: C_29  and  N_30
REMARK                            x       y       z     vdW  Elec       q    Type
REMARK                         _______ _______ _______ _____ _____    ______ ____
ROOT
ATOM      1  C   UNL     1       5.217   6.044  16.857  0.00  0.00    +0.000 C 
ENDROOT
BRANCH   1   2
ATOM      2  C   UNL     1       6.516   6.600  17.469  0.00  0.00    +0.000 A 
ATOM      3  C   UNL     1       7.325   5.847  18.330  0.00  0.00    +0.000 A 
ATOM      4  C   UNL     1       8.319   6.461  19.088  0.00  0.00    +0.000 A 
ATOM      5  C   UNL     1       8.580   7.819  18.922  0.00  0.00    +0.000 A 
ATOM      6  C   UNL     1       7.898   8.554  17.955  0.00  0.00    +0.000 A 
ATOM      7  C   UNL     1       6.949   7.903  17.167  0.00  0.00    +0.000 A 
BRANCH   6   8
ATOM      8  N   UNL     1       8.287   9.858  17.646  0.00  0.00    +0.000 N 
ATOM      9  H   UNL     1       7.530  10.437  17.295  0.00  0.00    +0.000 HD
ATOM     10  H   UNL     1       9.117   9.923  17.066  0.00  0.00    +0.000 HD
ENDBRANCH   6   8
ENDBRANCH   1   2
BRANCH   1  11
ATOM     11  C   UNL     1       3.924   6.402  17.655  0.00  0.00    +0.000 C 
ATOM     12  O   UNL     1       2.931   6.881  17.104  0.00  0.00    +0.000 OA
ATOM     13  N   UNL     1       3.905   6.070  18.995  0.00  0.00    +0.000 N 
ATOM     14  H   UNL     1       4.753   5.759  19.452  0.00  0.00    +0.000 HD
BRANCH  13  15
ATOM     15  C   UNL     1       2.778   6.387  19.841  0.00  0.00    +0.000 C 
BRANCH  15  16
ATOM     16  C   UNL     1       2.144   5.129  20.371  0.00  0.00    +0.000 A 
ATOM     17  C   UNL     1       2.670   4.481  21.499  0.00  0.00    +0.000 A 
ATOM     18  C   UNL     1       2.096   3.299  21.971  0.00  0.00    +0.000 A 
ATOM     19  C   UNL     1       0.996   2.747  21.316  0.00  0.00    +0.000 A 
ATOM     20  C   UNL     1       0.471   3.377  20.190  0.00  0.00    +0.000 A 
ATOM     21  C   UNL     1       1.041   4.559  19.716  0.00  0.00    +0.000 A 
ENDBRANCH  15  16
ENDBRANCH  13  15
ENDBRANCH   1  11
BRANCH   1  24
ATOM     22  C   UNL     1       5.923   4.043  15.485  0.00  0.00    +0.000 C 
ATOM     23  O   UNL     1       5.956   2.854  15.188  0.00  0.00    +0.000 OA
ATOM     24  N   UNL     1       5.187   4.578  16.553  0.00  0.00    +0.000 N 
BRANCH  24  25
ATOM     25  C   UNL     1       4.445   3.679  17.397  0.00  0.00    +0.000 A 
ATOM     26  C   UNL     1       3.235   3.145  16.929  0.00  0.00    +0.000 A 
ATOM     27  C   UNL     1       2.608   2.092  17.603  0.00  0.00    +0.000 A 
ATOM     28  C   UNL     1       3.161   1.586  18.775  0.00  0.00    +0.000 A 
ATOM     29  C   UNL     1       4.332   2.146  19.290  0.00  0.00    +0.000 A 
ATOM     30  C   UNL     1       4.959   3.200  18.607  0.00  0.00    +0.000 A 
BRANCH  29  31
ATOM     31  C   UNL     1       4.912   1.617  20.490  0.00  0.00    +0.000 C 
ATOM     32  N   UNL     1       5.391   1.206  21.464  0.00  0.00    +0.000 NA
ENDBRANCH  29  31
ENDBRANCH  24  25
BRANCH  22  34
ATOM     33  C   UNL     1       7.352   5.675  13.953  0.00  0.00    +0.000 C 
ATOM     34  C   UNL     1       6.701   4.948  14.650  0.00  0.00    +0.000 C 
ENDBRANCH  22  34
ENDBRANCH   1  24
TORSDOF 9
ENDMDL
MODEL 2
REMARK VINA RESULT:      -6.4      2.347      6.427
REMARK  Name = 
REMARK  9 active torsions:
REMARK  status: ('A' for Active; 'I' for Inactive)
REMARK    1  A    between atoms: C_2  and  C_3
REMARK    2  A    between atoms: N_5  and  C_6
REMARK    3  A    between atoms: N_5  and  C_14
REMARK    4  A    between atoms: C_10  and  C_11
REMARK    5  A    between atoms: C_14  and  C_15
REMARK    6  A    between atoms: C_14  and  C_25
REMARK    7  A    between atoms: N_17  and  C_18
REMARK    8  A    between atoms: C_18  and  C_19
REMARK    9  A    between atoms: C_29  and  N_30
REMARK                            x       y       z     vdW  Elec       q    Type
REMARK                         _______ _______ _______ _____ _____    ______ ____
ROOT
ATOM      1  C   UNL     1       4.037   4.447  18.451  0.00  0.00    +0.000 C 
ENDROOT
BRANCH   1   2
ATOM      2  C   UNL     1       5.281   5.347  18.560  0.00  0.00    +0.000 A 
ATOM      3  C   UNL     1       5.488   6.448  17.718  0.00  0.00    +0.000 A 
ATOM      4  C   UNL     1       6.737   7.058  17.644  0.00  0.00    +0.000 A 
ATOM      5  C   UNL     1       7.768   6.637  18.481  0.00  0.00    +0.000 A 
ATOM      6  C   UNL     1       7.539   5.652  19.438  0.00  0.00    +0.000 A 
ATOM      7  C   UNL     1       6.262   5.097  19.535  0.00  0.00    +0.000 A 
BRANCH   6   8
ATOM      8  N   UNL     1       8.501   5.363  20.407  0.00  0.00    +0.000 N 
ATOM      9  H   UNL     1       9.118   6.142  20.615  0.00  0.00    +0.000 HD
ATOM     10  H   UNL     1       9.015   4.502  20.245  0.00  0.00    +0.000 HD
ENDBRANCH   6   8
ENDBRANCH   1   2
BRANCH   1  11
ATOM     11  C   UNL     1       3.715   3.962  17.002  0.00  0.00    +0.000 C 
ATOM     12  O   UNL     1       2.570   3.669  16.654  0.00  0.00    +0.000 OA
ATOM     13  N   UNL     1       4.758   3.966  16.097  0.00  0.00    +0.000 N 
ATOM     14  H   UNL     1       5.705   4.124  16.417  0.00  0.00    +0.000 HD
BRANCH  13  15
ATOM     15  C   UNL     1       4.587   3.503  14.740  0.00  0.00    +0.000 C 
BRANCH  15  16
ATOM     16  C   UNL     1       5.734   3.957  13.878  0.00  0.00    +0.000 A 
ATOM     17  C   UNL     1       6.662   4.896  14.356  0.00  0.00    +0.000 A 
ATOM     18  C   UNL     1       7.709   5.335  13.543  0.00  0.00    +0.000 A 
ATOM     19  C   UNL     1       7.835   4.850  12.243  0.00  0.00    +0.000 A 
ATOM     20  C   UNL     1       6.915   3.924  11.755  0.00  0.00    +0.000 A 
ATOM     21  C   UNL     1       5.868   3.481  12.565  0.00  0.00    +0.000 A 
ENDBRANCH  15  16
ENDBRANCH  13  15
ENDBRANCH   1  11
BRANCH   1  24
ATOM     22  C   UNL     1       1.848   4.098  19.666  0.00  0.00    +0.000 C 
ATOM     23  O   UNL     1       0.801   4.455  20.196  0.00  0.00    +0.000 OA
ATOM     24  N   UNL     1       2.772   4.965  19.061  0.00  0.00    +0.000 N 
BRANCH  24  25
ATOM     25  C   UNL     1       2.509   6.379  19.092  0.00  0.00    +0.000 A 
ATOM     26  C   UNL     1       2.404   7.082  17.881  0.00  0.00    +0.000 A 
ATOM     27  C   UNL     1       1.916   8.392  17.852  0.00  0.00    +0.000 A 
ATOM     28  C   UNL     1       1.565   9.032  19.037  0.00  0.00    +0.000 A 
ATOM     29  C   UNL     1       1.721   8.370  20.257  0.00  0.00    +0.000 A 
ATOM     30  C   UNL     1       2.208   7.055  20.280  0.00  0.00    +0.000 A 
BRANCH  29  31
ATOM     31  C   UNL     1       1.346   9.023  21.478  0.00  0.00    +0.000 C 
ATOM     32  N   UNL     1       1.050   9.535  22.477  0.00  0.00    +0.000 NA
ENDBRANCH  29  31
ENDBRANCH  24  25
BRANCH  22  34
ATOM     33  C   UNL     1       2.371   1.495  19.644  0.00  0.00    +0.000 C 
ATOM     34  C   UNL     1       2.128   2.669  19.665  0.00  0.00    +0.000 C 
ENDBRANCH  22  34
ENDBRANCH   1  24
TORSDOF 9
ENDMDL
MODEL 3
REMARK VINA RESULT:      -6.2      7.204     10.228
REMARK  Name = 
REMARK  9 active torsions:
REMARK  status: ('A' for Active; 'I' for Inactive)
REMARK    1  A    between atoms: C_2  and  C_3
REMARK    2  A    between atoms: N_5  and  C_6
REMARK    3  A    between atoms: N_5  and  C_14
REMARK    4  A    between atoms: C_10  and  C_11
REMARK    5  A    between atoms: C_14  and  C_15
REMARK    6  A    between atoms: C_14  and  C_25
REMARK    7  A    between atoms: N_17  and  C_18
REMARK    8  A    between atoms: C_18  and  C_19
REMARK    9  A    between atoms: C_29  and  N_30
REMARK                            x       y       z     vdW  Elec       q    Type
REMARK                         _______ _______ _______ _____ _____    ______ ____
ROOT
ATOM      1  C   UNL     1      -0.275  10.269  19.660  0.00  0.00    +0.000 C 
ENDROOT
BRANCH   1   2
ATOM      2  C   UNL     1       0.931   9.391  19.278  0.00  0.00    +0.000 A 
ATOM      3  C   UNL     1       1.661   9.588  18.099  0.00  0.00    +0.000 A 
ATOM      4  C   UNL     1       2.546   8.615  17.641  0.00  0.00    +0.000 A 
ATOM      5  C   UNL     1       2.782   7.475  18.407  0.00  0.00    +0.000 A 
ATOM      6  C   UNL     1       2.190   7.333  19.659  0.00  0.00    +0.000 A 
ATOM      7  C   UNL     1       1.354   8.350  20.123  0.00  0.00    +0.000 A 
BRANCH   6   8
ATOM      8  N   UNL     1       2.570   6.298  20.514  0.00  0.00    +0.000 N 
ATOM      9  H   UNL     1       2.841   5.447  20.029  0.00  0.00    +0.000 HD
ATOM     10  H   UNL     1       1.917   6.114  21.269  0.00  0.00    +0.000 HD
ENDBRANCH   6   8
ENDBRANCH   1   2
BRANCH   1  11
ATOM     11  C   UNL     1      -1.276  10.535  18.492  0.00  0.00    +0.000 C 
ATOM     12  O   UNL     1      -1.072  10.113  17.352  0.00  0.00    +0.000 OA
ATOM     13  N   UNL     1      -2.451  11.186  18.813  0.00  0.00    +0.000 N 
ATOM     14  H   UNL     1      -2.565  11.601  19.729  0.00  0.00    +0.000 HD
BRANCH  13  15
ATOM     15  C   UNL     1      -3.433  11.519  17.809  0.00  0.00    +0.000 C 
BRANCH  15  16
ATOM     16  C   UNL     1      -4.763  11.815  18.447  0.00  0.00    +0.000 A 
ATOM     17  C   UNL     1      -4.835  12.297  19.764  0.00  0.00    +0.000 A 
ATOM     18  C   UNL     1      -6.072  12.543  20.363  0.00  0.00    +0.000 A 
ATOM     19  C   UNL     1      -7.250  12.303  19.658  0.00  0.00    +0.000 A 
ATOM     20  C   UNL     1      -7.191  11.817  18.353  0.00  0.00    +0.000 A 
ATOM     21  C   UNL     1      -5.956  11.571  17.751  0.00  0.00    +0.000 A 
ENDBRANCH  15  16
ENDBRANCH  13  15
ENDBRANCH   1  11
BRANCH   1  24
ATOM     22  C   UNL     1      -0.041  11.717  21.718  0.00  0.00    +0.000 C 
ATOM     23  O   UNL     1       0.206  12.752  22.328  0.00  0.00    +0.000 OA
ATOM     24  N   UNL     1       0.026  11.578  20.323  0.00  0.00    +0.000 N 
BRANCH  24  25
ATOM     25  C   UNL     1       0.451  12.706  19.538  0.00  0.00    +0.000 A 
ATOM     26  C   UNL     1      -0.463  13.738  19.274  0.00  0.00    +0.000 A 
ATOM     27  C   UNL     1      -0.034  14.953  18.730  0.00  0.00    +0.000 A 
ATOM     28  C   UNL     1       1.306  15.138  18.405  0.00  0.00    +0.000 A 
ATOM     29  C   UNL     1       2.219  14.100  18.603  0.00  0.00    +0.000 A 
ATOM     30  C   UNL     1       1.784  12.885  19.153  0.00  0.00    +0.000 A 
BRANCH  29  31
ATOM     31  C   UNL     1       3.603  14.294  18.283  0.00  0.00    +0.000 C 
ATOM     32  N   UNL     1       4.721  14.471  18.024  0.00  0.00    +0.000 NA
ENDBRANCH  29  31
ENDBRANCH  24  25
BRANCH  22  34
ATOM     33  C   UNL     1      -0.789   9.625  23.173  0.00  0.00    +0.000 C 
ATOM     34  C   UNL     1      -0.438  10.566  22.517  0.00  0.00    +0.000 C 
ENDBRANCH  22  34
ENDBRANCH   1  24
TORSDOF 9
ENDMDL
MODEL 4
REMARK VINA RESULT:      -6.2      7.373      9.919
REMARK  Name = 
REMARK  9 active torsions:
REMARK  status: ('A' for Active; 'I' for Inactive)
REMARK    1  A    between atoms: C_2  and  C_3
REMARK    2  A    between atoms: N_5  and  C_6
REMARK    3  A    between atoms: N_5  and  C_14
REMARK    4  A    between atoms: C_10  and  C_11
REMARK    5  A    between atoms: C_14  and  C_15
REMARK    6  A    between atoms: C_14  and  C_25
REMARK    7  A    between atoms: N_17  and  C_18
REMARK    8  A    between atoms: C_18  and  C_19
REMARK    9  A    between atoms: C_29  and  N_30
REMARK                            x       y       z     vdW  Elec       q    Type
REMARK                         _______ _______ _______ _____ _____    ______ ____
ROOT
ATOM      1  C   UNL     1       0.626  10.910  20.095  0.00  0.00    +0.000 C 
ENDROOT
BRANCH   1   2
ATOM      2  C   UNL     1       1.396   9.713  19.507  0.00  0.00    +0.000 A 
ATOM      3  C   UNL     1       1.858   9.693  18.185  0.00  0.00    +0.000 A 
ATOM      4  C   UNL     1       2.285   8.503  17.601  0.00  0.00    +0.000 A 
ATOM      5  C   UNL     1       2.347   7.338  18.363  0.00  0.00    +0.000 A 
ATOM      6  C   UNL     1       2.047   7.369  19.722  0.00  0.00    +0.000 A 
ATOM      7  C   UNL     1       1.679   8.586  20.298  0.00  0.00    +0.000 A 
BRANCH   6   8
ATOM      8  N   UNL     1       2.293   6.260  20.532  0.00  0.00    +0.000 N 
ATOM      9  H   UNL     1       2.897   5.566  20.101  0.00  0.00    +0.000 HD
ATOM     10  H   UNL     1       1.461   5.842  20.938  0.00  0.00    +0.000 HD
ENDBRANCH   6   8
ENDBRANCH   1   2
BRANCH   1  11
ATOM     11  C   UNL     1      -0.380  10.536  21.229  0.00  0.00    +0.000 C 
ATOM     12  O   UNL     1      -0.822   9.393  21.354  0.00  0.00    +0.000 OA
ATOM     13  N   UNL     1      -0.684  11.523  22.145  0.00  0.00    +0.000 N 
ATOM     14  H   UNL     1      -0.384  12.476  21.980  0.00  0.00    +0.000 HD
BRANCH  13  15
ATOM     15  C   UNL     1      -1.630  11.304  23.213  0.00  0.00    +0.000 C 
BRANCH  15  16
ATOM     16  C   UNL     1      -2.773  12.279  23.116  0.00  0.00    +0.000 A 
ATOM     17  C   UNL     1      -2.803  13.248  22.101  0.00  0.00    +0.000 A 
ATOM     18  C   UNL     1      -3.851  14.169  22.032  0.00  0.00    +0.000 A 
ATOM     19  C   UNL     1      -4.873  14.138  22.979  0.00  0.00    +0.000 A 
ATOM     20  C   UNL     1      -4.849  13.185  23.995  0.00  0.00    +0.000 A 
ATOM     21  C   UNL     1      -3.804  12.262  24.067  0.00  0.00    +0.000 A 
ENDBRANCH  15  16
ENDBRANCH  13  15
ENDBRANCH   1  11
BRANCH   1  24
ATOM     22  C   UNL     1       0.499  13.010  18.696  0.00  0.00    +0.000 C 
ATOM     23  O   UNL     1      -0.015  13.782  17.892  0.00  0.00    +0.000 OA
ATOM     24  N   UNL     1      -0.079  11.804  19.123  0.00  0.00    +0.000 N 
BRANCH  24  25
ATOM     25  C   UNL     1      -1.341  11.408  18.559  0.00  0.00    +0.000 A 
ATOM     26  C   UNL     1      -1.393  10.286  17.717  0.00  0.00    +0.000 A 
ATOM     27  C   UNL     1      -2.619   9.724  17.345  0.00  0.00    +0.000 A 
ATOM     28  C   UNL     1      -3.809  10.301  17.776  0.00  0.00    +0.000 A 
ATOM     29  C   UNL     1      -3.779  11.454  18.563  0.00  0.00    +0.000 A 
ATOM     30  C   UNL     1      -2.547  12.010  18.936  0.00  0.00    +0.000 A 
BRANCH  29  31
ATOM     31  C   UNL     1      -5.005  12.041  19.020  0.00  0.00    +0.000 C 
ATOM     32  N   UNL     1      -5.993  12.533  19.379  0.00  0.00    +0.000 NA
ENDBRANCH  29  31
ENDBRANCH  24  25
BRANCH  22  34
ATOM     33  C   UNL     1       2.868  13.712  19.667  0.00  0.00    +0.000 C 
ATOM     34  C   UNL     1       1.792  13.397  19.240  0.00  0.00    +0.000 C 
ENDBRANCH  22  34
ENDBRANCH   1  24
TORSDOF 9
ENDMDL
MODEL 5
REMARK VINA RESULT:      -6.1      7.696     10.640
REMARK  Name = 
REMARK  9 active torsions:
REMARK  status: ('A' for Active; 'I' for Inactive)
REMARK    1  A    between atoms: C_2  and  C_3
REMARK    2  A    between atoms: N_5  and  C_6
REMARK    3  A    between atoms: N_5  and  C_14
REMARK    4  A    between atoms: C_10  and  C_11
REMARK    5  A    between atoms: C_14  and  C_15
REMARK    6  A    between atoms: C_14  and  C_25
REMARK    7  A    between atoms: N_17  and  C_18
REMARK    8  A    between atoms: C_18  and  C_19
REMARK    9  A    between atoms: C_29  and  N_30
REMARK                            x       y       z     vdW  Elec       q    Type
REMARK                         _______ _______ _______ _____ _____    ______ ____
ROOT
ATOM      1  C   UNL     1      -0.847  11.274  19.452  0.00  0.00    +0.000 C 
ENDROOT
BRANCH   1   2
ATOM      2  C   UNL     1       0.299  10.256  19.303  0.00  0.00    +0.000 A 
ATOM      3  C   UNL     1       1.010  10.094  18.107  0.00  0.00    +0.000 A 
ATOM      4  C   UNL     1       1.828   8.984  17.913  0.00  0.00    +0.000 A 
ATOM      5  C   UNL     1       2.021   8.073  18.949  0.00  0.00    +0.000 A 
ATOM      6  C   UNL     1       1.453   8.300  20.200  0.00  0.00    +0.000 A 
ATOM      7  C   UNL     1       0.686   9.451  20.387  0.00  0.00    +0.000 A 
BRANCH   6   8
ATOM      8  N   UNL     1       1.797   7.504  21.294  0.00  0.00    +0.000 N 
ATOM      9  H   UNL     1       1.915   8.026  22.157  0.00  0.00    +0.000 HD
ATOM     10  H   UNL     1       2.571   6.869  21.124  0.00  0.00    +0.000 HD
ENDBRANCH   6   8
ENDBRANCH   1   2
BRANCH   1  11
ATOM     11  C   UNL     1      -1.808  11.348  18.223  0.00  0.00    +0.000 C 
ATOM     12  O   UNL     1      -1.641  12.164  17.315  0.00  0.00    +0.000 OA
ATOM     13  N   UNL     1      -2.803  10.394  18.151  0.00  0.00    +0.000 N 
ATOM     14  H   UNL     1      -2.982   9.788  18.942  0.00  0.00    +0.000 HD
BRANCH  13  15
ATOM     15  C   UNL     1      -3.773  10.387  17.082  0.00  0.00    +0.000 C 
BRANCH  15  16
ATOM     16  C   UNL     1      -5.036  11.085  17.508  0.00  0.00    +0.000 A 
ATOM     17  C   UNL     1      -5.405  12.312  16.935  0.00  0.00    +0.000 A 
ATOM     18  C   UNL     1      -6.563  12.971  17.354  0.00  0.00    +0.000 A 
ATOM     19  C   UNL     1      -7.359  12.417  18.355  0.00  0.00    +0.000 A 
ATOM     20  C   UNL     1      -6.998  11.204  18.937  0.00  0.00    +0.000 A 
ATOM     21  C   UNL     1      -5.842  10.541  18.520  0.00  0.00    +0.000 A 
ENDBRANCH  15  16
ENDBRANCH  13  15
ENDBRANCH   1  11
BRANCH   1  24
ATOM     22  C   UNL     1      -1.394  13.543  20.419  0.00  0.00    +0.000 C 
ATOM     23  O   UNL     1      -1.146  14.694  20.765  0.00  0.00    +0.000 OA
ATOM     24  N   UNL     1      -0.465  12.671  19.829  0.00  0.00    +0.000 N 
BRANCH  24  25
ATOM     25  C   UNL     1       0.888  13.126  19.649  0.00  0.00    +0.000 A 
ATOM     26  C   UNL     1       1.268  13.670  18.412  0.00  0.00    +0.000 A 
ATOM     27  C   UNL     1       2.487  14.340  18.267  0.00  0.00    +0.000 A 
ATOM     28  C   UNL     1       3.360  14.440  19.345  0.00  0.00    +0.000 A 
ATOM     29  C   UNL     1       3.027  13.851  20.567  0.00  0.00    +0.000 A 
ATOM     30  C   UNL     1       1.802  13.183  20.708  0.00  0.00    +0.000 A 
BRANCH  29  31
ATOM     31  C   UNL     1       3.920  13.965  21.684  0.00  0.00    +0.000 C 
ATOM     32  N   UNL     1       4.657  14.047  22.577  0.00  0.00    +0.000 NA
ENDBRANCH  29  31
ENDBRANCH  24  25
BRANCH  22  34
ATOM     33  C   UNL     1      -3.883  12.709  20.813  0.00  0.00    +0.000 C 
ATOM     34  C   UNL     1      -2.755  13.074  20.632  0.00  0.00    +0.000 C 
ENDBRANCH  22  34
ENDBRANCH   1  24
TORSDOF 9
ENDMDL
MODEL 6
REMARK VINA RESULT:      -6.1      7.458     10.021
REMARK  Name = 
REMARK  9 active torsions:
REMARK  status: ('A' for Active; 'I' for Inactive)
REMARK    1  A    between atoms: C_2  and  C_3
REMARK    2  A    between atoms: N_5  and  C_6
REMARK    3  A    between atoms: N_5  and  C_14
REMARK    4  A    between atoms: C_10  and  C_11
REMARK    5  A    between atoms: C_14  and  C_15
REMARK    6  A    between atoms: C_14  and  C_25
REMARK    7  A    between atoms: N_17  and  C_18
REMARK    8  A    between atoms: C_18  and  C_19
REMARK    9  A    between atoms: C_29  and  N_30
REMARK                            x       y       z     vdW  Elec       q    Type
REMARK                         _______ _______ _______ _____ _____    ______ ____
ROOT
ATOM      1  C   UNL     1       0.518  11.106  20.210  0.00  0.00    +0.000 C 
ENDROOT
BRANCH   1   2
ATOM      2  C   UNL     1       1.284   9.935  19.568  0.00  0.00    +0.000 A 
ATOM      3  C   UNL     1       1.707   9.955  18.234  0.00  0.00    +0.000 A 
ATOM      4  C   UNL     1       2.130   8.786  17.606  0.00  0.00    +0.000 A 
ATOM      5  C   UNL     1       2.226   7.602  18.334  0.00  0.00    +0.000 A 
ATOM      6  C   UNL     1       1.965   7.594  19.702  0.00  0.00    +0.000 A 
ATOM      7  C   UNL     1       1.601   8.790  20.320  0.00  0.00    +0.000 A 
BRANCH   6   8
ATOM      8  N   UNL     1       2.246   6.466  20.474  0.00  0.00    +0.000 N 
ATOM      9  H   UNL     1       3.099   5.986  20.200  0.00  0.00    +0.000 HD
ATOM     10  H   UNL     1       1.466   5.825  20.582  0.00  0.00    +0.000 HD
ENDBRANCH   6   8
ENDBRANCH   1   2
BRANCH   1  11
ATOM     11  C   UNL     1      -0.471  10.687  21.343  0.00  0.00    +0.000 C 
ATOM     12  O   UNL     1      -0.867   9.527  21.465  0.00  0.00    +0.000 OA
ATOM     13  N   UNL     1      -0.814  11.658  22.264  0.00  0.00    +0.000 N 
ATOM     14  H   UNL     1      -0.553  12.623  22.102  0.00  0.00    +0.000 HD
BRANCH  13  15
ATOM     15  C   UNL     1      -1.750  11.397  23.331  0.00  0.00    +0.000 C 
BRANCH  15  16
ATOM     16  C   UNL     1      -2.842  12.432  23.344  0.00  0.00    +0.000 A 
ATOM     17  C   UNL     1      -2.708  13.623  22.613  0.00  0.00    +0.000 A 
ATOM     18  C   UNL     1      -3.712  14.594  22.650  0.00  0.00    +0.000 A 
ATOM     19  C   UNL     1      -4.853  14.390  23.422  0.00  0.00    +0.000 A 
ATOM     20  C   UNL     1      -4.993  13.215  24.157  0.00  0.00    +0.000 A 
ATOM     21  C   UNL     1      -3.993  12.242  24.123  0.00  0.00    +0.000 A 
ENDBRANCH  15  16
ENDBRANCH  13  15
ENDBRANCH   1  11
BRANCH   1  24
ATOM     22  C   UNL     1       0.355  13.264  18.905  0.00  0.00    +0.000 C 
ATOM     23  O   UNL     1      -0.173  14.063  18.138  0.00  0.00    +0.000 OA
ATOM     24  N   UNL     1      -0.204  12.032  19.281  0.00  0.00    +0.000 N 
BRANCH  24  25
ATOM     25  C   UNL     1      -1.464  11.644  18.705  0.00  0.00    +0.000 A 
ATOM     26  C   UNL     1      -2.653  11.983  19.369  0.00  0.00    +0.000 A 
ATOM     27  C   UNL     1      -3.892  11.843  18.737  0.00  0.00    +0.000 A 
ATOM     28  C   UNL     1      -3.963  11.324  17.448  0.00  0.00    +0.000 A 
ATOM     29  C   UNL     1      -2.796  10.922  16.795  0.00  0.00    +0.000 A 
ATOM     30  C   UNL     1      -1.555  11.068  17.433  0.00  0.00    +0.000 A 
BRANCH  29  31
ATOM     31  C   UNL     1      -2.866  10.399  15.462  0.00  0.00    +0.000 C 
ATOM     32  N   UNL     1      -2.930   9.958  14.390  0.00  0.00    +0.000 NA
ENDBRANCH  29  31
ENDBRANCH  24  25
BRANCH  22  34
ATOM     33  C   UNL     1       2.710  13.976  19.903  0.00  0.00    +0.000 C 
ATOM     34  C   UNL     1       1.646  13.644  19.460  0.00  0.00    +0.000 C 
ENDBRANCH  22  34
ENDBRANCH   1  24
TORSDOF 9
ENDMDL
MODEL 7
REMARK VINA RESULT:      -6.1      8.793     11.854
REMARK  Name = 
REMARK  9 active torsions:
REMARK  status: ('A' for Active; 'I' for Inactive)
REMARK    1  A    between atoms: C_2  and  C_3
REMARK    2  A    between atoms: N_5  and  C_6
REMARK    3  A    between atoms: N_5  and  C_14
REMARK    4  A    between atoms: C_10  and  C_11
REMARK    5  A    between atoms: C_14  and  C_15
REMARK    6  A    between atoms: C_14  and  C_25
REMARK    7  A    between atoms: N_17  and  C_18
REMARK    8  A    between atoms: C_18  and  C_19
REMARK    9  A    between atoms: C_29  and  N_30
REMARK                            x       y       z     vdW  Elec       q    Type
REMARK                         _______ _______ _______ _____ _____    ______ ____
ROOT
ATOM      1  C   UNL     1      -0.510  11.963  19.781  0.00  0.00    +0.000 C 
ENDROOT
BRANCH   1   2
ATOM      2  C   UNL     1      -0.065  10.652  20.456  0.00  0.00    +0.000 A 
ATOM      3  C   UNL     1      -0.355  10.360  21.795  0.00  0.00    +0.000 A 
ATOM      4  C   UNL     1       0.299   9.321  22.452  0.00  0.00    +0.000 A 
ATOM      5  C   UNL     1       1.179   8.500  21.751  0.00  0.00    +0.000 A 
ATOM      6  C   UNL     1       1.360   8.671  20.381  0.00  0.00    +0.000 A 
ATOM      7  C   UNL     1       0.648   9.681  19.733  0.00  0.00    +0.000 A 
BRANCH   6   8
ATOM      8  N   UNL     1       2.082   7.737  19.636  0.00  0.00    +0.000 N 
ATOM      9  H   UNL     1       3.027   8.037  19.412  0.00  0.00    +0.000 HD
ATOM     10  H   UNL     1       1.593   7.379  18.822  0.00  0.00    +0.000 HD
ENDBRANCH   6   8
ENDBRANCH   1   2
BRANCH   1  11
ATOM     11  C   UNL     1       0.287  13.226  20.236  0.00  0.00    +0.000 C 
ATOM     12  O   UNL     1       0.928  13.246  21.288  0.00  0.00    +0.000 OA
ATOM     13  N   UNL     1       0.318  14.293  19.361  0.00  0.00    +0.000 N 
ATOM     14  H   UNL     1      -0.281  14.296  18.545  0.00  0.00    +0.000 HD
BRANCH  13  15
ATOM     15  C   UNL     1       0.991  15.527  19.691  0.00  0.00    +0.000 C 
BRANCH  15  16
ATOM     16  C   UNL     1       0.678  16.590  18.672  0.00  0.00    +0.000 A 
ATOM     17  C   UNL     1       1.699  17.164  17.899  0.00  0.00    +0.000 A 
ATOM     18  C   UNL     1       1.409  18.169  16.974  0.00  0.00    +0.000 A 
ATOM     19  C   UNL     1       0.099  18.618  16.819  0.00  0.00    +0.000 A 
ATOM     20  C   UNL     1      -0.922  18.062  17.587  0.00  0.00    +0.000 A 
ATOM     21  C   UNL     1      -0.636  17.055  18.512  0.00  0.00    +0.000 A 
ENDBRANCH  15  16
ENDBRANCH  13  15
ENDBRANCH   1  11
BRANCH   1  24
ATOM     22  C   UNL     1      -2.861  11.784  18.874  0.00  0.00    +0.000 C 
ATOM     23  O   UNL     1      -4.069  11.998  18.865  0.00  0.00    +0.000 OA
ATOM     24  N   UNL     1      -1.970  12.289  19.834  0.00  0.00    +0.000 N 
BRANCH  24  25
ATOM     25  C   UNL     1      -2.496  13.081  20.913  0.00  0.00    +0.000 A 
ATOM     26  C   UNL     1      -2.669  14.461  20.727  0.00  0.00    +0.000 A 
ATOM     27  C   UNL     1      -3.395  15.223  21.649  0.00  0.00    +0.000 A 
ATOM     28  C   UNL     1      -3.922  14.624  22.788  0.00  0.00    +0.000 A 
ATOM     29  C   UNL     1      -3.707  13.264  23.022  0.00  0.00    +0.000 A 
ATOM     30  C   UNL     1      -2.982  12.504  22.092  0.00  0.00    +0.000 A 
BRANCH  29  31
ATOM     31  C   UNL     1      -4.261  12.641  24.189  0.00  0.00    +0.000 C 
ATOM     32  N   UNL     1      -4.727  12.134  25.123  0.00  0.00    +0.000 NA
ENDBRANCH  29  31
ENDBRANCH  24  25
BRANCH  22  34
ATOM     33  C   UNL     1      -1.905  10.252  16.928  0.00  0.00    +0.000 C 
ATOM     34  C   UNL     1      -2.335  10.954  17.799  0.00  0.00    +0.000 C 
ENDBRANCH  22  34
ENDBRANCH   1  24
TORSDOF 9
ENDMDL
MODEL 8
REMARK VINA RESULT:      -6.1      8.856     11.277
REMARK  Name = 
REMARK  9 active torsions:
REMARK  status: ('A' for Active; 'I' for Inactive)
REMARK    1  A    between atoms: C_2  and  C_3
REMARK    2  A    between atoms: N_5  and  C_6
REMARK    3  A    between atoms: N_5  and  C_14
REMARK    4  A    between atoms: C_10  and  C_11
REMARK    5  A    between atoms: C_14  and  C_15
REMARK    6  A    between atoms: C_14  and  C_25
REMARK    7  A    between atoms: N_17  and  C_18
REMARK    8  A    between atoms: C_18  and  C_19
REMARK    9  A    between atoms: C_29  and  N_30
REMARK                            x       y       z     vdW  Elec       q    Type
REMARK                         _______ _______ _______ _____ _____    ______ ____
ROOT
ATOM      1  C   UNL     1      -0.246  11.505  20.169  0.00  0.00    +0.000 C 
ENDROOT
BRANCH   1   2
ATOM      2  C   UNL     1       0.457  12.818  19.777  0.00  0.00    +0.000 A 
ATOM      3  C   UNL     1       1.810  13.057  20.052  0.00  0.00    +0.000 A 
ATOM      4  C   UNL     1       2.336  14.343  19.953  0.00  0.00    +0.000 A 
ATOM      5  C   UNL     1       1.541  15.386  19.485  0.00  0.00    +0.000 A 
ATOM      6  C   UNL     1       0.240  15.139  19.052  0.00  0.00    +0.000 A 
ATOM      7  C   UNL     1      -0.245  13.832  19.105  0.00  0.00    +0.000 A 
BRANCH   6   8
ATOM      8  N   UNL     1      -0.494  16.132  18.401  0.00  0.00    +0.000 N 
ATOM      9  H   UNL     1       0.069  16.916  18.086  0.00  0.00    +0.000 HD
ATOM     10  H   UNL     1      -1.325  16.435  18.899  0.00  0.00    +0.000 HD
ENDBRANCH   6   8
ENDBRANCH   1   2
BRANCH   1  11
ATOM     11  C   UNL     1      -1.648  11.303  19.513  0.00  0.00    +0.000 C 
ATOM     12  O   UNL     1      -1.895  10.335  18.792  0.00  0.00    +0.000 OA
ATOM     13  N   UNL     1      -2.632  12.211  19.851  0.00  0.00    +0.000 N 
ATOM     14  H   UNL     1      -2.393  13.046  20.371  0.00  0.00    +0.000 HD
BRANCH  13  15
ATOM     15  C   UNL     1      -3.955  12.146  19.276  0.00  0.00    +0.000 C 
BRANCH  15  16
ATOM     16  C   UNL     1      -4.969  12.747  20.213  0.00  0.00    +0.000 A 
ATOM     17  C   UNL     1      -6.103  12.019  20.603  0.00  0.00    +0.000 A 
ATOM     18  C   UNL     1      -7.056  12.590  21.450  0.00  0.00    +0.000 A 
ATOM     19  C   UNL     1      -6.890  13.896  21.908  0.00  0.00    +0.000 A 
ATOM     20  C   UNL     1      -5.772  14.631  21.520  0.00  0.00    +0.000 A 
ATOM     21  C   UNL     1      -4.817  14.063  20.675  0.00  0.00    +0.000 A 
ENDBRANCH  15  16
ENDBRANCH  13  15
ENDBRANCH   1  11
BRANCH   1  24
ATOM     22  C   UNL     1       0.240  10.089  22.205  0.00  0.00    +0.000 C 
ATOM     23  O   UNL     1       0.191   9.799  23.396  0.00  0.00    +0.000 OA
ATOM     24  N   UNL     1      -0.371  11.216  21.633  0.00  0.00    +0.000 N 
BRANCH  24  25
ATOM     25  C   UNL     1      -1.073  12.130  22.494  0.00  0.00    +0.000 A 
ATOM     26  C   UNL     1      -0.597  13.443  22.630  0.00  0.00    +0.000 A 
ATOM     27  C   UNL     1      -1.372  14.426  23.256  0.00  0.00    +0.000 A 
ATOM     28  C   UNL     1      -2.614  14.099  23.790  0.00  0.00    +0.000 A 
ATOM     29  C   UNL     1      -3.077  12.783  23.719  0.00  0.00    +0.000 A 
ATOM     30  C   UNL     1      -2.298  11.803  23.087  0.00  0.00    +0.000 A 
BRANCH  29  31
ATOM     31  C   UNL     1      -4.364  12.447  24.256  0.00  0.00    +0.000 C 
ATOM     32  N   UNL     1      -5.396  12.163  24.705  0.00  0.00    +0.000 NA
ENDBRANCH  29  31
ENDBRANCH  24  25
BRANCH  22  34
ATOM     33  C   UNL     1       1.607   8.444  20.632  0.00  0.00    +0.000 C 
ATOM     34  C   UNL     1       0.979   9.180  21.340  0.00  0.00    +0.000 C 
ENDBRANCH  22  34
ENDBRANCH   1  24
TORSDOF 9
ENDMDL
MODEL 9
REMARK VINA RESULT:      -6.0      8.247     11.140
REMARK  Name = 
REMARK  9 active torsions:
REMARK  status: ('A' for Active; 'I' for Inactive)
REMARK    1  A    between atoms: C_2  and  C_3
REMARK    2  A    between atoms: N_5  and  C_6
REMARK    3  A    between atoms: N_5  and  C_14
REMARK    4  A    between atoms: C_10  and  C_11
REMARK    5  A    between atoms: C_14  and  C_15
REMARK    6  A    between atoms: C_14  and  C_25
REMARK    7  A    between atoms: N_17  and  C_18
REMARK    8  A    between atoms: C_18  and  C_19
REMARK    9  A    between atoms: C_29  and  N_30
REMARK                            x       y       z     vdW  Elec       q    Type
REMARK                         _______ _______ _______ _____ _____    ______ ____
ROOT
ATOM      1  C   UNL     1      -0.232  10.824  19.558  0.00  0.00    +0.000 C 
ENDROOT
BRANCH   1   2
ATOM      2  C   UNL     1      -1.481  10.708  18.664  0.00  0.00    +0.000 A 
ATOM      3  C   UNL     1      -1.539   9.845  17.562  0.00  0.00    +0.000 A 
ATOM      4  C   UNL     1      -2.551   9.972  16.615  0.00  0.00    +0.000 A 
ATOM      5  C   UNL     1      -3.572  10.901  16.808  0.00  0.00    +0.000 A 
ATOM      6  C   UNL     1      -3.623  11.657  17.976  0.00  0.00    +0.000 A 
ATOM      7  C   UNL     1      -2.630  11.469  18.938  0.00  0.00    +0.000 A 
BRANCH   6   8
ATOM      8  N   UNL     1      -4.739  12.442  18.268  0.00  0.00    +0.000 N 
ATOM      9  H   UNL     1      -4.700  12.882  19.183  0.00  0.00    +0.000 HD
ATOM     10  H   UNL     1      -5.630  11.984  18.102  0.00  0.00    +0.000 HD
ENDBRANCH   6   8
ENDBRANCH   1   2
BRANCH   1  11
ATOM     11  C   UNL     1      -0.538  11.140  21.056  0.00  0.00    +0.000 C 
ATOM     12  O   UNL     1       0.221  10.794  21.963  0.00  0.00    +0.000 OA
ATOM     13  N   UNL     1      -1.655  11.911  21.315  0.00  0.00    +0.000 N 
ATOM     14  H   UNL     1      -2.313  12.113  20.574  0.00  0.00    +0.000 HD
BRANCH  13  15
ATOM     15  C   UNL     1      -2.058  12.234  22.663  0.00  0.00    +0.000 C 
BRANCH  15  16
ATOM     16  C   UNL     1      -2.071  13.725  22.868  0.00  0.00    +0.000 A 
ATOM     17  C   UNL     1      -2.827  14.558  22.028  0.00  0.00    +0.000 A 
ATOM     18  C   UNL     1      -2.814  15.943  22.204  0.00  0.00    +0.000 A 
ATOM     19  C   UNL     1      -2.039  16.512  23.213  0.00  0.00    +0.000 A 
ATOM     20  C   UNL     1      -1.279  15.696  24.048  0.00  0.00    +0.000 A 
ATOM     21  C   UNL     1      -1.290  14.311  23.876  0.00  0.00    +0.000 A 
ENDBRANCH  15  16
ENDBRANCH  13  15
ENDBRANCH   1  11
BRANCH   1  24
ATOM     22  C   UNL     1       1.921  11.291  18.322  0.00  0.00    +0.000 C 
ATOM     23  O   UNL     1       2.830  11.998  17.898  0.00  0.00    +0.000 OA
ATOM     24  N   UNL     1       0.846  11.754  19.096  0.00  0.00    +0.000 N 
BRANCH  24  25
ATOM     25  C   UNL     1       0.764  13.160  19.389  0.00  0.00    +0.000 A 
ATOM     26  C   UNL     1      -0.116  13.963  18.648  0.00  0.00    +0.000 A 
ATOM     27  C   UNL     1      -0.407  15.270  19.051  0.00  0.00    +0.000 A 
ATOM     28  C   UNL     1       0.210  15.806  20.177  0.00  0.00    +0.000 A 
ATOM     29  C   UNL     1       1.137  15.043  20.892  0.00  0.00    +0.000 A 
ATOM     30  C   UNL     1       1.421  13.732  20.485  0.00  0.00    +0.000 A 
BRANCH  29  31
ATOM     31  C   UNL     1       1.763  15.589  22.061  0.00  0.00    +0.000 C 
ATOM     32  N   UNL     1       2.253  16.025  23.019  0.00  0.00    +0.000 NA
ENDBRANCH  29  31
ENDBRANCH  24  25
BRANCH  22  34
ATOM     33  C   UNL     1       2.046   8.711  17.705  0.00  0.00    +0.000 C 
ATOM     34  C   UNL     1       1.988   9.873  17.996  0.00  0.00    +0.000 C 
ENDBRANCH  22  34
ENDBRANCH   1  24
TORSDOF 9
ENDMDL
