MODEL 1
REMARK VINA RESULT:      -8.4      0.000      0.000
REMARK  Name = 
REMARK  8 active torsions:
REMARK  status: ('A' for Active; 'I' for Inactive)
REMARK    1  A    between atoms: C_1  and  C_2
REMARK    2  A    between atoms: C_2  and  C_3
REMARK    3  A    between atoms: C_4  and  C_5
REMARK    4  A    between atoms: C_5  and  O_7
REMARK    5  A    between atoms: O_7  and  C_8
REMARK    6  A    between atoms: C_8  and  C_9
REMARK    7  A    between atoms: C_15  and  C_16
REMARK    8  A    between atoms: C_20  and  O_21
REMARK                            x       y       z     vdW  Elec       q    Type
REMARK                         _______ _______ _______ _____ _____    ______ ____
ROOT
ATOM      1  C   UNL     1       5.250   5.053  15.917  0.00  0.00    +0.000 C 
ATOM      2  C   UNL     1       4.389   4.741  16.915  0.00  0.00    +0.000 C 
ATOM      3  C   UNL     1       4.516   5.550  18.202  0.00  0.00    +0.000 C 
ATOM      4  N   UNL     1       5.831   6.190  18.201  0.00  0.00    +0.000 N 
ATOM      5  C   UNL     1       6.234   6.869  17.085  0.00  0.00    +0.000 C 
ATOM      6  O   UNL     1       7.013   7.817  17.131  0.00  0.00    +0.000 OA
ATOM      7  N   UNL     1       5.790   6.328  15.922  0.00  0.00    +0.000 N 
ATOM      8  H   UNL     1       6.185   6.589  19.068  0.00  0.00    +0.000 HD
ATOM      9  H   UNL     1       6.272   6.683  15.106  0.00  0.00    +0.000 HD
ENDROOT
BRANCH   3  10
ATOM     10  C   UNL     1       3.467   6.614  18.490  0.00  0.00    +0.000 A 
ATOM     11  C   UNL     1       2.796   6.572  19.731  0.00  0.00    +0.000 A 
ATOM     12  C   UNL     1       1.901   7.576  20.092  0.00  0.00    +0.000 A 
ATOM     13  C   UNL     1       1.661   8.632  19.225  0.00  0.00    +0.000 A 
ATOM     14  C   UNL     1       2.315   8.681  18.000  0.00  0.00    +0.000 A 
ATOM     15  C   UNL     1       3.212   7.682  17.627  0.00  0.00    +0.000 A 
BRANCH  14  16
ATOM     16  O   UNL     1       2.131   9.718  17.140  0.00  0.00    +0.000 OA
ATOM     17  H   UNL     1       2.453  10.527  17.565  0.00  0.00    +0.000 HD
ENDBRANCH  14  16
ENDBRANCH   3  10
BRANCH   1  19
ATOM     18  C   UNL     1       5.895   4.046  13.702  0.00  0.00    +0.000 C 
ATOM     19  C   UNL     1       6.162   4.058  15.218  0.00  0.00    +0.000 C 
ENDBRANCH   1  19
BRANCH   2  20
ATOM     20  C   UNL     1       3.525   3.521  16.998  0.00  0.00    +0.000 C 
ATOM     21  O   UNL     1       2.487   3.399  16.362  0.00  0.00    +0.000 OA
BRANCH  20  22
ATOM     22  O   UNL     1       4.081   2.539  17.769  0.00  0.00    +0.000 OA
BRANCH  22  23
ATOM     23  C   UNL     1       4.096   2.759  19.206  0.00  0.00    +0.000 C 
BRANCH  23  24
ATOM     24  C   UNL     1       3.054   1.963  20.039  0.00  0.00    +0.000 C 
ATOM     25  C   UNL     1       2.836   2.484  21.470  0.00  0.00    +0.000 C 
ATOM     26  C   UNL     1       2.099   3.824  21.530  0.00  0.00    +0.000 C 
ATOM     27  C   UNL     1       0.778   3.802  20.760  0.00  0.00    +0.000 C 
ATOM     28  C   UNL     1       0.947   3.265  19.342  0.00  0.00    +0.000 C 
ATOM     29  C   UNL     1       1.680   1.922  19.323  0.00  0.00    +0.000 C 
ENDBRANCH  23  24
ENDBRANCH  22  23
ENDBRANCH  20  22
ENDBRANCH   2  20
TORSDOF 7
ENDMDL
MODEL 2
REMARK VINA RESULT:      -8.2      0.610      1.303
REMARK  Name = 
REMARK  8 active torsions:
REMARK  status: ('A' for Active; 'I' for Inactive)
REMARK    1  A    between atoms: C_1  and  C_2
REMARK    2  A    between atoms: C_2  and  C_3
REMARK    3  A    between atoms: C_4  and  C_5
REMARK    4  A    between atoms: C_5  and  O_7
REMARK    5  A    between atoms: O_7  and  C_8
REMARK    6  A    between atoms: C_8  and  C_9
REMARK    7  A    between atoms: C_15  and  C_16
REMARK    8  A    between atoms: C_20  and  O_21
REMARK                            x       y       z     vdW  Elec       q    Type
REMARK                         _______ _______ _______ _____ _____    ______ ____
ROOT
ATOM      1  C   UNL     1       5.543   5.190  15.799  0.00  0.00    +0.000 C 
ATOM      2  C   UNL     1       4.718   4.760  16.785  0.00  0.00    +0.000 C 
ATOM      3  C   UNL     1       4.797   5.507  18.112  0.00  0.00    +0.000 C 
ATOM      4  N   UNL     1       6.059   6.246  18.137  0.00  0.00    +0.000 N 
ATOM      5  C   UNL     1       6.397   7.012  17.056  0.00  0.00    +0.000 C 
ATOM      6  O   UNL     1       7.103   8.012  17.147  0.00  0.00    +0.000 OA
ATOM      7  N   UNL     1       5.984   6.501  15.869  0.00  0.00    +0.000 N 
ATOM      8  H   UNL     1       6.392   6.624  19.021  0.00  0.00    +0.000 HD
ATOM      9  H   UNL     1       6.429   6.933  15.070  0.00  0.00    +0.000 HD
ENDROOT
BRANCH   3  10
ATOM     10  C   UNL     1       3.673   6.471  18.464  0.00  0.00    +0.000 A 
ATOM     11  C   UNL     1       3.047   6.337  19.721  0.00  0.00    +0.000 A 
ATOM     12  C   UNL     1       2.083   7.251  20.140  0.00  0.00    +0.000 A 
ATOM     13  C   UNL     1       1.730   8.308  19.313  0.00  0.00    +0.000 A 
ATOM     14  C   UNL     1       2.340   8.448  18.073  0.00  0.00    +0.000 A 
ATOM     15  C   UNL     1       3.304   7.539  17.642  0.00  0.00    +0.000 A 
BRANCH  14  16
ATOM     16  O   UNL     1       2.043   9.491  17.251  0.00  0.00    +0.000 OA
ATOM     17  H   UNL     1       2.872   9.834  16.886  0.00  0.00    +0.000 HD
ENDBRANCH  14  16
ENDBRANCH   3  10
BRANCH   1  19
ATOM     18  C   UNL     1       5.931   3.881  13.685  0.00  0.00    +0.000 C 
ATOM     19  C   UNL     1       6.521   4.306  15.042  0.00  0.00    +0.000 C 
ENDBRANCH   1  19
BRANCH   2  20
ATOM     20  C   UNL     1       3.951   3.475  16.808  0.00  0.00    +0.000 C 
ATOM     21  O   UNL     1       4.469   2.399  17.077  0.00  0.00    +0.000 OA
BRANCH  20  22
ATOM     22  O   UNL     1       2.614   3.661  16.603  0.00  0.00    +0.000 OA
BRANCH  22  23
ATOM     23  C   UNL     1       1.790   3.878  17.781  0.00  0.00    +0.000 C 
BRANCH  23  24
ATOM     24  C   UNL     1       1.404   2.615  18.598  0.00  0.00    +0.000 C 
ATOM     25  C   UNL     1       2.592   1.857  19.217  0.00  0.00    +0.000 C 
ATOM     26  C   UNL     1       3.257   2.602  20.378  0.00  0.00    +0.000 C 
ATOM     27  C   UNL     1       2.258   3.011  21.461  0.00  0.00    +0.000 C 
ATOM     28  C   UNL     1       1.050   3.742  20.884  0.00  0.00    +0.000 C 
ATOM     29  C   UNL     1       0.408   2.964  19.732  0.00  0.00    +0.000 C 
ENDBRANCH  23  24
ENDBRANCH  22  23
ENDBRANCH  20  22
ENDBRANCH   2  20
TORSDOF 7
ENDMDL
MODEL 3
REMARK VINA RESULT:      -8.2      0.938      1.328
REMARK  Name = 
REMARK  8 active torsions:
REMARK  status: ('A' for Active; 'I' for Inactive)
REMARK    1  A    between atoms: C_1  and  C_2
REMARK    2  A    between atoms: C_2  and  C_3
REMARK    3  A    between atoms: C_4  and  C_5
REMARK    4  A    between atoms: C_5  and  O_7
REMARK    5  A    between atoms: O_7  and  C_8
REMARK    6  A    between atoms: C_8  and  C_9
REMARK    7  A    between atoms: C_15  and  C_16
REMARK    8  A    between atoms: C_20  and  O_21
REMARK                            x       y       z     vdW  Elec       q    Type
REMARK                         _______ _______ _______ _____ _____    ______ ____
ROOT
ATOM      1  C   UNL     1       5.256   4.990  15.824  0.00  0.00    +0.000 C 
ATOM      2  C   UNL     1       4.417   4.704  16.849  0.00  0.00    +0.000 C 
ATOM      3  C   UNL     1       4.632   5.483  18.142  0.00  0.00    +0.000 C 
ATOM      4  N   UNL     1       5.976   6.059  18.101  0.00  0.00    +0.000 N 
ATOM      5  C   UNL     1       6.370   6.737  16.981  0.00  0.00    +0.000 C 
ATOM      6  O   UNL     1       7.197   7.644  17.012  0.00  0.00    +0.000 OA
ATOM      7  N   UNL     1       5.857   6.238  15.828  0.00  0.00    +0.000 N 
ATOM      8  H   UNL     1       6.382   6.425  18.960  0.00  0.00    +0.000 HD
ATOM      9  H   UNL     1       6.326   6.582  15.000  0.00  0.00    +0.000 HD
ENDROOT
BRANCH   3  10
ATOM     10  C   UNL     1       3.648   6.593  18.487  0.00  0.00    +0.000 A 
ATOM     11  C   UNL     1       3.300   7.516  17.477  0.00  0.00    +0.000 A 
ATOM     12  C   UNL     1       2.331   8.489  17.703  0.00  0.00    +0.000 A 
ATOM     13  C   UNL     1       1.697   8.558  18.936  0.00  0.00    +0.000 A 
ATOM     14  C   UNL     1       2.033   7.655  19.937  0.00  0.00    +0.000 A 
ATOM     15  C   UNL     1       3.003   6.678  19.723  0.00  0.00    +0.000 A 
BRANCH  14  16
ATOM     16  O   UNL     1       1.408   7.671  21.144  0.00  0.00    +0.000 OA
ATOM     17  H   UNL     1       1.126   8.580  21.328  0.00  0.00    +0.000 HD
ENDBRANCH  14  16
ENDBRANCH   3  10
BRANCH   1  19
ATOM     18  C   UNL     1       6.863   4.627  13.922  0.00  0.00    +0.000 C 
ATOM     19  C   UNL     1       6.090   3.964  15.076  0.00  0.00    +0.000 C 
ENDBRANCH   1  19
BRANCH   2  20
ATOM     20  C   UNL     1       3.498   3.526  16.946  0.00  0.00    +0.000 C 
ATOM     21  O   UNL     1       2.443   3.456  16.330  0.00  0.00    +0.000 OA
BRANCH  20  22
ATOM     22  O   UNL     1       4.021   2.517  17.704  0.00  0.00    +0.000 OA
BRANCH  22  23
ATOM     23  C   UNL     1       4.062   2.726  19.143  0.00  0.00    +0.000 C 
BRANCH  23  24
ATOM     24  C   UNL     1       2.979   1.993  19.980  0.00  0.00    +0.000 C 
ATOM     25  C   UNL     1       2.811   2.514  21.419  0.00  0.00    +0.000 C 
ATOM     26  C   UNL     1       2.166   3.899  21.499  0.00  0.00    +0.000 C 
ATOM     27  C   UNL     1       0.838   3.972  20.743  0.00  0.00    +0.000 C 
ATOM     28  C   UNL     1       0.955   3.439  19.319  0.00  0.00    +0.000 C 
ATOM     29  C   UNL     1       1.598   2.050  19.280  0.00  0.00    +0.000 C 
ENDBRANCH  23  24
ENDBRANCH  22  23
ENDBRANCH  20  22
ENDBRANCH   2  20
TORSDOF 7
ENDMDL
MODEL 4
REMARK VINA RESULT:      -8.2      2.520      5.973
REMARK  Name = 
REMARK  8 active torsions:
REMARK  status: ('A' for Active; 'I' for Inactive)
REMARK    1  A    between atoms: C_1  and  C_2
REMARK    2  A    between atoms: C_2  and  C_3
REMARK    3  A    between atoms: C_4  and  C_5
REMARK    4  A    between atoms: C_5  and  O_7
REMARK    5  A    between atoms: O_7  and  C_8
REMARK    6  A    between atoms: C_8  and  C_9
REMARK    7  A    between atoms: C_15  and  C_16
REMARK    8  A    between atoms: C_20  and  O_21
REMARK                            x       y       z     vdW  Elec       q    Type
REMARK                         _______ _______ _______ _____ _____    ______ ____
ROOT
ATOM      1  C   UNL     1       2.001   3.528  18.690  0.00  0.00    +0.000 C 
ATOM      2  C   UNL     1       2.873   4.558  18.813  0.00  0.00    +0.000 C 
ATOM      3  C   UNL     1       4.341   4.187  18.993  0.00  0.00    +0.000 C 
ATOM      4  N   UNL     1       4.403   2.789  19.417  0.00  0.00    +0.000 N 
ATOM      5  C   UNL     1       3.684   1.856  18.722  0.00  0.00    +0.000 C 
ATOM      6  O   UNL     1       4.026   0.680  18.642  0.00  0.00    +0.000 OA
ATOM      7  N   UNL     1       2.505   2.321  18.236  0.00  0.00    +0.000 N 
ATOM      8  H   UNL     1       5.275   2.427  19.797  0.00  0.00    +0.000 HD
ATOM      9  H   UNL     1       1.879   1.586  17.935  0.00  0.00    +0.000 HD
ENDROOT
BRANCH   3  10
ATOM     10  C   UNL     1       5.281   4.368  17.808  0.00  0.00    +0.000 A 
ATOM     11  C   UNL     1       6.658   4.532  18.066  0.00  0.00    +0.000 A 
ATOM     12  C   UNL     1       7.576   4.600  17.022  0.00  0.00    +0.000 A 
ATOM     13  C   UNL     1       7.137   4.509  15.709  0.00  0.00    +0.000 A 
ATOM     14  C   UNL     1       5.782   4.350  15.445  0.00  0.00    +0.000 A 
ATOM     15  C   UNL     1       4.853   4.281  16.481  0.00  0.00    +0.000 A 
BRANCH  14  16
ATOM     16  O   UNL     1       5.319   4.222  14.172  0.00  0.00    +0.000 OA
ATOM     17  H   UNL     1       4.956   3.329  14.070  0.00  0.00    +0.000 HD
ENDBRANCH  14  16
ENDBRANCH   3  10
BRANCH   1  19
ATOM     18  C   UNL     1       1.160   3.039  21.011  0.00  0.00    +0.000 C 
ATOM     19  C   UNL     1       0.765   3.334  19.553  0.00  0.00    +0.000 C 
ENDBRANCH   1  19
BRANCH   2  20
ATOM     20  C   UNL     1       2.529   5.991  19.071  0.00  0.00    +0.000 C 
ATOM     21  O   UNL     1       2.415   6.817  18.175  0.00  0.00    +0.000 OA
BRANCH  20  22
ATOM     22  O   UNL     1       2.258   6.234  20.388  0.00  0.00    +0.000 OA
BRANCH  22  23
ATOM     23  C   UNL     1       1.208   7.197  20.678  0.00  0.00    +0.000 C 
BRANCH  23  24
ATOM     24  C   UNL     1       1.657   8.666  20.901  0.00  0.00    +0.000 C 
ATOM     25  C   UNL     1       1.027   9.688  19.938  0.00  0.00    +0.000 C 
ATOM     26  C   UNL     1      -0.462   9.936  20.196  0.00  0.00    +0.000 C 
ATOM     27  C   UNL     1      -0.751  10.316  21.649  0.00  0.00    +0.000 C 
ATOM     28  C   UNL     1      -0.118   9.342  22.636  0.00  0.00    +0.000 C 
ATOM     29  C   UNL     1       1.370   9.126  22.352  0.00  0.00    +0.000 C 
ENDBRANCH  23  24
ENDBRANCH  22  23
ENDBRANCH  20  22
ENDBRANCH   2  20
TORSDOF 7
ENDMDL
MODEL 5
REMARK VINA RESULT:      -8.1      2.526      5.977
REMARK  Name = 
REMARK  8 active torsions:
REMARK  status: ('A' for Active; 'I' for Inactive)
REMARK    1  A    between atoms: C_1  and  C_2
REMARK    2  A    between atoms: C_2  and  C_3
REMARK    3  A    between atoms: C_4  and  C_5
REMARK    4  A    between atoms: C_5  and  O_7
REMARK    5  A    between atoms: O_7  and  C_8
REMARK    6  A    between atoms: C_8  and  C_9
REMARK    7  A    between atoms: C_15  and  C_16
REMARK    8  A    between atoms: C_20  and  O_21
REMARK                            x       y       z     vdW  Elec       q    Type
REMARK                         _______ _______ _______ _____ _____    ______ ____
ROOT
ATOM      1  C   UNL     1       1.986   3.827  18.892  0.00  0.00    +0.000 C 
ATOM      2  C   UNL     1       2.860   4.862  18.933  0.00  0.00    +0.000 C 
ATOM      3  C   UNL     1       4.335   4.501  19.084  0.00  0.00    +0.000 C 
ATOM      4  N   UNL     1       4.413   3.127  19.577  0.00  0.00    +0.000 N 
ATOM      5  C   UNL     1       3.673   2.159  18.956  0.00  0.00    +0.000 C 
ATOM      6  O   UNL     1       4.015   0.980  18.925  0.00  0.00    +0.000 OA
ATOM      7  N   UNL     1       2.479   2.598  18.485  0.00  0.00    +0.000 N 
ATOM      8  H   UNL     1       5.297   2.785  19.947  0.00  0.00    +0.000 HD
ATOM      9  H   UNL     1       1.844   1.848  18.242  0.00  0.00    +0.000 HD
ENDROOT
BRANCH   3  10
ATOM     10  C   UNL     1       5.234   4.621  17.862  0.00  0.00    +0.000 A 
ATOM     11  C   UNL     1       6.627   4.728  18.065  0.00  0.00    +0.000 A 
ATOM     12  C   UNL     1       7.506   4.739  16.985  0.00  0.00    +0.000 A 
ATOM     13  C   UNL     1       7.013   4.645  15.692  0.00  0.00    +0.000 A 
ATOM     14  C   UNL     1       5.643   4.542  15.482  0.00  0.00    +0.000 A 
ATOM     15  C   UNL     1       4.753   4.531  16.554  0.00  0.00    +0.000 A 
BRANCH  14  16
ATOM     16  O   UNL     1       5.126   4.413  14.230  0.00  0.00    +0.000 OA
ATOM     17  H   UNL     1       4.892   5.296  13.906  0.00  0.00    +0.000 HD
ENDBRANCH  14  16
ENDBRANCH   3  10
BRANCH   1  19
ATOM     18  C   UNL     1       1.194   3.082  21.162  0.00  0.00    +0.000 C 
ATOM     19  C   UNL     1       0.780   3.677  19.803  0.00  0.00    +0.000 C 
ENDBRANCH   1  19
BRANCH   2  20
ATOM     20  C   UNL     1       2.522   6.306  19.128  0.00  0.00    +0.000 C 
ATOM     21  O   UNL     1       2.564   7.125  18.219  0.00  0.00    +0.000 OA
BRANCH  20  22
ATOM     22  O   UNL     1       2.067   6.571  20.388  0.00  0.00    +0.000 OA
BRANCH  22  23
ATOM     23  C   UNL     1       1.782   7.960  20.709  0.00  0.00    +0.000 C 
BRANCH  23  24
ATOM     24  C   UNL     1       0.304   8.414  20.571  0.00  0.00    +0.000 C 
ATOM     25  C   UNL     1      -0.505   8.388  21.881  0.00  0.00    +0.000 C 
ATOM     26  C   UNL     1      -0.095   9.477  22.876  0.00  0.00    +0.000 C 
ATOM     27  C   UNL     1      -0.118  10.876  22.258  0.00  0.00    +0.000 C 
ATOM     28  C   UNL     1       0.651  10.937  20.942  0.00  0.00    +0.000 C 
ATOM     29  C   UNL     1       0.210   9.839  19.971  0.00  0.00    +0.000 C 
ENDBRANCH  23  24
ENDBRANCH  22  23
ENDBRANCH  20  22
ENDBRANCH   2  20
TORSDOF 7
ENDMDL
MODEL 6
REMARK VINA RESULT:      -8.1      1.144      1.869
REMARK  Name = 
REMARK  8 active torsions:
REMARK  status: ('A' for Active; 'I' for Inactive)
REMARK    1  A    between atoms: C_1  and  C_2
REMARK    2  A    between atoms: C_2  and  C_3
REMARK    3  A    between atoms: C_4  and  C_5
REMARK    4  A    between atoms: C_5  and  O_7
REMARK    5  A    between atoms: O_7  and  C_8
REMARK    6  A    between atoms: C_8  and  C_9
REMARK    7  A    between atoms: C_15  and  C_16
REMARK    8  A    between atoms: C_20  and  O_21
REMARK                            x       y       z     vdW  Elec       q    Type
REMARK                         _______ _______ _______ _____ _____    ______ ____
ROOT
ATOM      1  C   UNL     1       5.706   5.154  15.760  0.00  0.00    +0.000 C 
ATOM      2  C   UNL     1       4.884   4.748  16.758  0.00  0.00    +0.000 C 
ATOM      3  C   UNL     1       5.013   5.484  18.087  0.00  0.00    +0.000 C 
ATOM      4  N   UNL     1       6.300   6.177  18.094  0.00  0.00    +0.000 N 
ATOM      5  C   UNL     1       6.646   6.938  17.011  0.00  0.00    +0.000 C 
ATOM      6  O   UNL     1       7.388   7.912  17.096  0.00  0.00    +0.000 OA
ATOM      7  N   UNL     1       6.194   6.449  15.829  0.00  0.00    +0.000 N 
ATOM      8  H   UNL     1       6.661   6.538  18.974  0.00  0.00    +0.000 HD
ATOM      9  H   UNL     1       6.640   6.870  15.025  0.00  0.00    +0.000 HD
ENDROOT
BRANCH   3  10
ATOM     10  C   UNL     1       3.930   6.485  18.465  0.00  0.00    +0.000 A 
ATOM     11  C   UNL     1       3.515   7.420  17.493  0.00  0.00    +0.000 A 
ATOM     12  C   UNL     1       2.460   8.292  17.746  0.00  0.00    +0.000 A 
ATOM     13  C   UNL     1       1.806   8.247  18.969  0.00  0.00    +0.000 A 
ATOM     14  C   UNL     1       2.208   7.332  19.934  0.00  0.00    +0.000 A 
ATOM     15  C   UNL     1       3.263   6.454  19.692  0.00  0.00    +0.000 A 
BRANCH  14  16
ATOM     16  O   UNL     1       1.568   7.236  21.130  0.00  0.00    +0.000 OA
ATOM     17  H   UNL     1       2.202   7.445  21.831  0.00  0.00    +0.000 HD
ENDBRANCH  14  16
ENDBRANCH   3  10
BRANCH   1  19
ATOM     18  C   UNL     1       6.016   3.856  13.627  0.00  0.00    +0.000 C 
ATOM     19  C   UNL     1       6.638   4.241  14.981  0.00  0.00    +0.000 C 
ENDBRANCH   1  19
BRANCH   2  20
ATOM     20  C   UNL     1       4.073   3.491  16.788  0.00  0.00    +0.000 C 
ATOM     21  O   UNL     1       4.554   2.398  17.054  0.00  0.00    +0.000 OA
BRANCH  20  22
ATOM     22  O   UNL     1       2.741   3.724  16.592  0.00  0.00    +0.000 OA
BRANCH  22  23
ATOM     23  C   UNL     1       1.929   3.949  17.777  0.00  0.00    +0.000 C 
BRANCH  23  24
ATOM     24  C   UNL     1       1.489   2.685  18.564  0.00  0.00    +0.000 C 
ATOM     25  C   UNL     1       2.638   1.899  19.221  0.00  0.00    +0.000 C 
ATOM     26  C   UNL     1       3.270   2.619  20.415  0.00  0.00    +0.000 C 
ATOM     27  C   UNL     1       2.237   3.036  21.463  0.00  0.00    +0.000 C 
ATOM     28  C   UNL     1       1.066   3.795  20.847  0.00  0.00    +0.000 C 
ATOM     29  C   UNL     1       0.456   3.042  19.663  0.00  0.00    +0.000 C 
ENDBRANCH  23  24
ENDBRANCH  22  23
ENDBRANCH  20  22
ENDBRANCH   2  20
TORSDOF 7
ENDMDL
MODEL 7
REMARK VINA RESULT:      -8.0      2.452      5.960
REMARK  Name = 
REMARK  8 active torsions:
REMARK  status: ('A' for Active; 'I' for Inactive)
REMARK    1  A    between atoms: C_1  and  C_2
REMARK    2  A    between atoms: C_2  and  C_3
REMARK    3  A    between atoms: C_4  and  C_5
REMARK    4  A    between atoms: C_5  and  O_7
REMARK    5  A    between atoms: O_7  and  C_8
REMARK    6  A    between atoms: C_8  and  C_9
REMARK    7  A    between atoms: C_15  and  C_16
REMARK    8  A    between atoms: C_20  and  O_21
REMARK                            x       y       z     vdW  Elec       q    Type
REMARK                         _______ _______ _______ _____ _____    ______ ____
ROOT
ATOM      1  C   UNL     1       1.887   3.963  19.106  0.00  0.00    +0.000 C 
ATOM      2  C   UNL     1       2.737   5.018  19.119  0.00  0.00    +0.000 C 
ATOM      3  C   UNL     1       4.226   4.691  19.134  0.00  0.00    +0.000 C 
ATOM      4  N   UNL     1       4.376   3.301  19.562  0.00  0.00    +0.000 N 
ATOM      5  C   UNL     1       3.610   2.339  18.964  0.00  0.00    +0.000 C 
ATOM      6  O   UNL     1       3.976   1.172  18.857  0.00  0.00    +0.000 OA
ATOM      7  N   UNL     1       2.371   2.764  18.610  0.00  0.00    +0.000 N 
ATOM      8  H   UNL     1       5.296   2.968  19.845  0.00  0.00    +0.000 HD
ATOM      9  H   UNL     1       1.737   2.009  18.389  0.00  0.00    +0.000 HD
ENDROOT
BRANCH   3  10
ATOM     10  C   UNL     1       5.020   4.882  17.849  0.00  0.00    +0.000 A 
ATOM     11  C   UNL     1       4.565   4.235  16.680  0.00  0.00    +0.000 A 
ATOM     12  C   UNL     1       5.189   4.454  15.455  0.00  0.00    +0.000 A 
ATOM     13  C   UNL     1       6.274   5.316  15.377  0.00  0.00    +0.000 A 
ATOM     14  C   UNL     1       6.730   5.956  16.523  0.00  0.00    +0.000 A 
ATOM     15  C   UNL     1       6.114   5.745  17.754  0.00  0.00    +0.000 A 
BRANCH  14  16
ATOM     16  O   UNL     1       7.768   6.834  16.478  0.00  0.00    +0.000 OA
ATOM     17  H   UNL     1       7.452   7.694  16.793  0.00  0.00    +0.000 HD
ENDBRANCH  14  16
ENDBRANCH   3  10
BRANCH   1  19
ATOM     18  C   UNL     1       1.296   3.082  21.389  0.00  0.00    +0.000 C 
ATOM     19  C   UNL     1       0.763   3.746  20.106  0.00  0.00    +0.000 C 
ENDBRANCH   1  19
BRANCH   2  20
ATOM     20  C   UNL     1       2.383   6.445  19.400  0.00  0.00    +0.000 C 
ATOM     21  O   UNL     1       2.472   7.328  18.558  0.00  0.00    +0.000 OA
BRANCH  20  22
ATOM     22  O   UNL     1       1.858   6.616  20.649  0.00  0.00    +0.000 OA
BRANCH  22  23
ATOM     23  C   UNL     1       1.553   7.979  21.056  0.00  0.00    +0.000 C 
BRANCH  23  24
ATOM     24  C   UNL     1       0.063   8.407  20.977  0.00  0.00    +0.000 C 
ATOM     25  C   UNL     1      -0.625   8.609  22.339  0.00  0.00    +0.000 C 
ATOM     26  C   UNL     1      -0.140   9.850  23.093  0.00  0.00    +0.000 C 
ATOM     27  C   UNL     1      -0.234  11.123  22.250  0.00  0.00    +0.000 C 
ATOM     28  C   UNL     1       0.412  10.955  20.879  0.00  0.00    +0.000 C 
ATOM     29  C   UNL     1      -0.101   9.710  20.154  0.00  0.00    +0.000 C 
ENDBRANCH  23  24
ENDBRANCH  22  23
ENDBRANCH  20  22
ENDBRANCH   2  20
TORSDOF 7
ENDMDL
MODEL 8
REMARK VINA RESULT:      -8.0      2.414      6.131
REMARK  Name = 
REMARK  8 active torsions:
REMARK  status: ('A' for Active; 'I' for Inactive)
REMARK    1  A    between atoms: C_1  and  C_2
REMARK    2  A    between atoms: C_2  and  C_3
REMARK    3  A    between atoms: C_4  and  C_5
REMARK    4  A    between atoms: C_5  and  O_7
REMARK    5  A    between atoms: O_7  and  C_8
REMARK    6  A    between atoms: C_8  and  C_9
REMARK    7  A    between atoms: C_15  and  C_16
REMARK    8  A    between atoms: C_20  and  O_21
REMARK                            x       y       z     vdW  Elec       q    Type
REMARK                         _______ _______ _______ _____ _____    ______ ____
ROOT
ATOM      1  C   UNL     1       1.879   3.873  18.880  0.00  0.00    +0.000 C 
ATOM      2  C   UNL     1       2.701   4.892  19.233  0.00  0.00    +0.000 C 
ATOM      3  C   UNL     1       4.183   4.556  19.363  0.00  0.00    +0.000 C 
ATOM      4  N   UNL     1       4.305   3.104  19.488  0.00  0.00    +0.000 N 
ATOM      5  C   UNL     1       3.638   2.306  18.600  0.00  0.00    +0.000 C 
ATOM      6  O   UNL     1       4.037   1.188  18.285  0.00  0.00    +0.000 OA
ATOM      7  N   UNL     1       2.445   2.810  18.196  0.00  0.00    +0.000 N 
ATOM      8  H   UNL     1       5.188   2.709  19.803  0.00  0.00    +0.000 HD
ATOM      9  H   UNL     1       1.858   2.128  17.736  0.00  0.00    +0.000 HD
ENDROOT
BRANCH   3  10
ATOM     10  C   UNL     1       5.126   5.021  18.262  0.00  0.00    +0.000 A 
ATOM     11  C   UNL     1       6.467   4.581  18.301  0.00  0.00    +0.000 A 
ATOM     12  C   UNL     1       7.349   4.890  17.269  0.00  0.00    +0.000 A 
ATOM     13  C   UNL     1       6.910   5.640  16.187  0.00  0.00    +0.000 A 
ATOM     14  C   UNL     1       5.593   6.079  16.141  0.00  0.00    +0.000 A 
ATOM     15  C   UNL     1       4.701   5.777  17.168  0.00  0.00    +0.000 A 
BRANCH  14  16
ATOM     16  O   UNL     1       5.119   6.786  15.080  0.00  0.00    +0.000 OA
ATOM     17  H   UNL     1       5.876   7.119  14.574  0.00  0.00    +0.000 HD
ENDBRANCH  14  16
ENDBRANCH   3  10
BRANCH   1  19
ATOM     18  C   UNL     1       1.028   2.953  21.063  0.00  0.00    +0.000 C 
ATOM     19  C   UNL     1       0.644   3.450  19.657  0.00  0.00    +0.000 C 
ENDBRANCH   1  19
BRANCH   2  20
ATOM     20  C   UNL     1       2.287   6.224  19.775  0.00  0.00    +0.000 C 
ATOM     21  O   UNL     1       2.001   6.400  20.952  0.00  0.00    +0.000 OA
BRANCH  20  22
ATOM     22  O   UNL     1       2.371   7.217  18.841  0.00  0.00    +0.000 OA
BRANCH  22  23
ATOM     23  C   UNL     1       1.756   8.491  19.176  0.00  0.00    +0.000 C 
BRANCH  23  24
ATOM     24  C   UNL     1       1.331   9.389  17.984  0.00  0.00    +0.000 C 
ATOM     25  C   UNL     1      -0.187   9.600  17.842  0.00  0.00    +0.000 C 
ATOM     26  C   UNL     1      -0.788  10.488  18.934  0.00  0.00    +0.000 C 
ATOM     27  C   UNL     1      -0.069  11.832  19.059  0.00  0.00    +0.000 C 
ATOM     28  C   UNL     1       1.443  11.669  19.173  0.00  0.00    +0.000 C 
ATOM     29  C   UNL     1       2.008  10.781  18.062  0.00  0.00    +0.000 C 
ENDBRANCH  23  24
ENDBRANCH  22  23
ENDBRANCH  20  22
ENDBRANCH   2  20
TORSDOF 7
ENDMDL
MODEL 9
REMARK VINA RESULT:      -8.0      2.462      5.970
REMARK  Name = 
REMARK  8 active torsions:
REMARK  status: ('A' for Active; 'I' for Inactive)
REMARK    1  A    between atoms: C_1  and  C_2
REMARK    2  A    between atoms: C_2  and  C_3
REMARK    3  A    between atoms: C_4  and  C_5
REMARK    4  A    between atoms: C_5  and  O_7
REMARK    5  A    between atoms: O_7  and  C_8
REMARK    6  A    between atoms: C_8  and  C_9
REMARK    7  A    between atoms: C_15  and  C_16
REMARK    8  A    between atoms: C_20  and  O_21
REMARK                            x       y       z     vdW  Elec       q    Type
REMARK                         _______ _______ _______ _____ _____    ______ ____
ROOT
ATOM      1  C   UNL     1       1.874   3.749  19.022  0.00  0.00    +0.000 C 
ATOM      2  C   UNL     1       2.740   4.789  19.097  0.00  0.00    +0.000 C 
ATOM      3  C   UNL     1       4.224   4.439  19.097  0.00  0.00    +0.000 C 
ATOM      4  N   UNL     1       4.353   3.025  19.444  0.00  0.00    +0.000 N 
ATOM      5  C   UNL     1       3.574   2.111  18.789  0.00  0.00    +0.000 C 
ATOM      6  O   UNL     1       3.923   0.946  18.615  0.00  0.00    +0.000 OA
ATOM      7  N   UNL     1       2.343   2.574  18.458  0.00  0.00    +0.000 N 
ATOM      8  H   UNL     1       5.266   2.663  19.708  0.00  0.00    +0.000 HD
ATOM      9  H   UNL     1       1.698   1.841  18.192  0.00  0.00    +0.000 HD
ENDROOT
BRANCH   3  10
ATOM     10  C   UNL     1       5.024   4.693  17.826  0.00  0.00    +0.000 A 
ATOM     11  C   UNL     1       4.604   4.064  16.635  0.00  0.00    +0.000 A 
ATOM     12  C   UNL     1       5.234   4.337  15.424  0.00  0.00    +0.000 A 
ATOM     13  C   UNL     1       6.289   5.238  15.382  0.00  0.00    +0.000 A 
ATOM     14  C   UNL     1       6.710   5.861  16.550  0.00  0.00    +0.000 A 
ATOM     15  C   UNL     1       6.089   5.595  17.768  0.00  0.00    +0.000 A 
BRANCH  14  16
ATOM     16  O   UNL     1       7.718   6.775  16.541  0.00  0.00    +0.000 OA
ATOM     17  H   UNL     1       8.554   6.304  16.408  0.00  0.00    +0.000 HD
ENDBRANCH  14  16
ENDBRANCH   3  10
BRANCH   1  19
ATOM     18  C   UNL     1       1.290   2.907  21.321  0.00  0.00    +0.000 C 
ATOM     19  C   UNL     1       0.744   3.490  20.005  0.00  0.00    +0.000 C 
ENDBRANCH   1  19
BRANCH   2  20
ATOM     20  C   UNL     1       2.405   6.202  19.460  0.00  0.00    +0.000 C 
ATOM     21  O   UNL     1       2.503   7.130  18.668  0.00  0.00    +0.000 OA
BRANCH  20  22
ATOM     22  O   UNL     1       1.887   6.309  20.720  0.00  0.00    +0.000 OA
BRANCH  22  23
ATOM     23  C   UNL     1       0.925   7.375  20.949  0.00  0.00    +0.000 C 
BRANCH  23  24
ATOM     24  C   UNL     1       1.509   8.793  21.190  0.00  0.00    +0.000 C 
ATOM     25  C   UNL     1       0.892   9.903  20.320  0.00  0.00    +0.000 C 
ATOM     26  C   UNL     1      -0.547  10.255  20.704  0.00  0.00    +0.000 C 
ATOM     27  C   UNL     1      -0.693  10.593  22.189  0.00  0.00    +0.000 C 
ATOM     28  C   UNL     1      -0.068   9.529  23.086  0.00  0.00    +0.000 C 
ATOM     29  C   UNL     1       1.372   9.210  22.676  0.00  0.00    +0.000 C 
ENDBRANCH  23  24
ENDBRANCH  22  23
ENDBRANCH  20  22
ENDBRANCH   2  20
TORSDOF 7
ENDMDL
