MODEL 1
REMARK VINA RESULT:      -8.7      0.000      0.000
REMARK  Name = 
REMARK  7 active torsions:
REMARK  status: ('A' for Active; 'I' for Inactive)
REMARK    1  A    between atoms: C_1  and  C_2
REMARK    2  A    between atoms: C_2  and  C_3
REMARK    3  A    between atoms: C_6  and  C_7
REMARK    4  A    between atoms: C_13  and  C_14
REMARK    5  A    between atoms: C_14  and  C_15
REMARK    6  A    between atoms: C_15  and  C_16
REMARK    7  A    between atoms: C_31  and  C_32
REMARK                            x       y       z     vdW  Elec       q    Type
REMARK                         _______ _______ _______ _____ _____    ______ ____
ROOT
ATOM      1  C   UNL     1       4.356   3.673  18.232  0.00  0.00    +0.000 C 
ATOM      2  O   UNL     1       4.263   2.670  17.521  0.00  0.00    +0.000 OA
ATOM      3  N   UNL     1       3.413   3.914  19.231  0.00  0.00    +0.000 N 
ATOM      4  C   UNL     1       2.514   2.837  19.632  0.00  0.00    +0.000 C 
ATOM      5  C   UNL     1       1.060   3.293  19.621  0.00  0.00    +0.000 C 
ATOM      6  C   UNL     1       0.871   4.543  20.476  0.00  0.00    +0.000 C 
ATOM      7  C   UNL     1       1.827   5.659  20.038  0.00  0.00    +0.000 C 
ATOM      8  C   UNL     1       3.267   5.156  19.965  0.00  0.00    +0.000 C 
ENDROOT
BRANCH   1  12
ATOM      9  C   UNL     1       6.930   6.213  17.566  0.00  0.00    +0.000 A 
ATOM     10  N   UNL     1       7.630   5.214  18.105  0.00  0.00    +0.000 NA
ATOM     11  N   UNL     1       6.700   4.293  18.393  0.00  0.00    +0.000 N 
ATOM     12  C   UNL     1       5.429   4.615  17.985  0.00  0.00    +0.000 A 
ATOM     13  C   UNL     1       5.539   5.911  17.485  0.00  0.00    +0.000 A 
ATOM     14  C   UNL     1       4.503   6.852  16.985  0.00  0.00    +0.000 C 
ATOM     15  H   UNL     1       6.980   3.443  18.873  0.00  0.00    +0.000 HD
BRANCH   9  17
ATOM     16  C   UNL     1       8.266   8.176  18.345  0.00  0.00    +0.000 C 
ATOM     17  C   UNL     1       7.608   7.481  17.161  0.00  0.00    +0.000 C 
ENDBRANCH   9  17
ENDBRANCH   1  12
BRANCH   7  18
ATOM     18  C   UNL     1       1.810   6.873  20.981  0.00  0.00    +0.000 C 
BRANCH  18  19
ATOM     19  C   UNL     1       1.478   8.168  20.260  0.00  0.00    +0.000 C 
BRANCH  19  20
ATOM     20  C   UNL     1       0.333   8.914  20.913  0.00  0.00    +0.000 C 
ATOM     21  O   UNL     1      -0.385   8.384  21.759  0.00  0.00    +0.000 OA
ATOM     22  N   UNL     1       0.172  10.227  20.514  0.00  0.00    +0.000 N 
ATOM     23  C   UNL     1      -0.839  11.062  21.166  0.00  0.00    +0.000 C 
ATOM     24  C   UNL     1      -0.222  12.376  21.681  0.00  0.00    +0.000 C 
ATOM     25  N   UNL     1       0.520  13.035  20.605  0.00  0.00    +0.000 N 
ATOM     26  C   UNL     1       0.399  14.371  20.314  0.00  0.00    +0.000 A 
ATOM     27  C   UNL     1       0.081  15.309  21.294  0.00  0.00    +0.000 A 
ATOM     28  C   UNL     1      -0.073  16.651  20.965  0.00  0.00    +0.000 A 
ATOM     29  C   UNL     1       0.073  17.041  19.645  0.00  0.00    +0.000 A 
ATOM     30  C   UNL     1       0.391  16.065  18.721  0.00  0.00    +0.000 A 
ATOM     31  N   UNL     1       0.570  14.760  19.031  0.00  0.00    +0.000 NA
ATOM     32  C   UNL     1       1.514  12.232  19.891  0.00  0.00    +0.000 C 
ATOM     33  C   UNL     1       0.903  10.900  19.427  0.00  0.00    +0.000 C 
ENDBRANCH  19  20
ENDBRANCH  18  19
ENDBRANCH   7  18
TORSDOF 5
ENDMDL
MODEL 2
REMARK VINA RESULT:      -8.6      2.311      2.694
REMARK  Name = 
REMARK  7 active torsions:
REMARK  status: ('A' for Active; 'I' for Inactive)
REMARK    1  A    between atoms: C_1  and  C_2
REMARK    2  A    between atoms: C_2  and  C_3
REMARK    3  A    between atoms: C_6  and  C_7
REMARK    4  A    between atoms: C_13  and  C_14
REMARK    5  A    between atoms: C_14  and  C_15
REMARK    6  A    between atoms: C_15  and  C_16
REMARK    7  A    between atoms: C_31  and  C_32
REMARK                            x       y       z     vdW  Elec       q    Type
REMARK                         _______ _______ _______ _____ _____    ______ ____
ROOT
ATOM      1  C   UNL     1       5.264   3.785  17.391  0.00  0.00    +0.000 C 
ATOM      2  O   UNL     1       5.557   2.975  16.509  0.00  0.00    +0.000 OA
ATOM      3  N   UNL     1       4.160   3.560  18.213  0.00  0.00    +0.000 N 
ATOM      4  C   UNL     1       3.550   2.233  18.233  0.00  0.00    +0.000 C 
ATOM      5  C   UNL     1       2.044   2.311  18.019  0.00  0.00    +0.000 C 
ATOM      6  C   UNL     1       1.394   3.254  19.028  0.00  0.00    +0.000 C 
ATOM      7  C   UNL     1       2.051   4.638  18.990  0.00  0.00    +0.000 C 
ATOM      8  C   UNL     1       3.570   4.532  19.112  0.00  0.00    +0.000 C 
ENDROOT
BRANCH   1  12
ATOM      9  C   UNL     1       7.109   6.956  17.652  0.00  0.00    +0.000 A 
ATOM     10  N   UNL     1       7.824   6.131  18.418  0.00  0.00    +0.000 NA
ATOM     11  N   UNL     1       7.142   4.979  18.368  0.00  0.00    +0.000 N 
ATOM     12  C   UNL     1       6.054   4.992  17.529  0.00  0.00    +0.000 A 
ATOM     13  C   UNL     1       5.971   6.310  17.085  0.00  0.00    +0.000 A 
ATOM     14  C   UNL     1       4.956   6.988  16.237  0.00  0.00    +0.000 C 
ATOM     15  H   UNL     1       7.460   4.193  18.927  0.00  0.00    +0.000 HD
BRANCH   9  17
ATOM     16  C   UNL     1       8.524   8.808  18.551  0.00  0.00    +0.000 C 
ATOM     17  C   UNL     1       7.509   8.387  17.498  0.00  0.00    +0.000 C 
ENDBRANCH   9  17
ENDBRANCH   1  12
BRANCH   7  18
ATOM     18  C   UNL     1       1.563   5.569  20.112  0.00  0.00    +0.000 C 
BRANCH  18  19
ATOM     19  C   UNL     1       2.427   6.810  20.258  0.00  0.00    +0.000 C 
BRANCH  19  20
ATOM     20  C   UNL     1       1.975   7.938  19.354  0.00  0.00    +0.000 C 
ATOM     21  O   UNL     1       2.063   7.860  18.130  0.00  0.00    +0.000 OA
ATOM     22  N   UNL     1       1.436   9.037  19.995  0.00  0.00    +0.000 N 
ATOM     23  C   UNL     1       0.872  10.131  19.202  0.00  0.00    +0.000 C 
ATOM     24  C   UNL     1      -0.565  10.457  19.651  0.00  0.00    +0.000 C 
ATOM     25  N   UNL     1      -0.600  10.665  21.101  0.00  0.00    +0.000 N 
ATOM     26  C   UNL     1      -1.239  11.724  21.695  0.00  0.00    +0.000 A 
ATOM     27  C   UNL     1      -2.356  12.323  21.118  0.00  0.00    +0.000 A 
ATOM     28  C   UNL     1      -2.962  13.419  21.722  0.00  0.00    +0.000 A 
ATOM     29  C   UNL     1      -2.427  13.921  22.896  0.00  0.00    +0.000 A 
ATOM     30  C   UNL     1      -1.321  13.281  23.420  0.00  0.00    +0.000 A 
ATOM     31  N   UNL     1      -0.737  12.197  22.857  0.00  0.00    +0.000 NA
ATOM     32  C   UNL     1      -0.011   9.619  21.939  0.00  0.00    +0.000 C 
ATOM     33  C   UNL     1       1.403   9.264  21.450  0.00  0.00    +0.000 C 
ENDBRANCH  19  20
ENDBRANCH  18  19
ENDBRANCH   7  18
TORSDOF 5
ENDMDL
MODEL 3
REMARK VINA RESULT:      -8.6      2.639      3.193
REMARK  Name = 
REMARK  7 active torsions:
REMARK  status: ('A' for Active; 'I' for Inactive)
REMARK    1  A    between atoms: C_1  and  C_2
REMARK    2  A    between atoms: C_2  and  C_3
REMARK    3  A    between atoms: C_6  and  C_7
REMARK    4  A    between atoms: C_13  and  C_14
REMARK    5  A    between atoms: C_14  and  C_15
REMARK    6  A    between atoms: C_15  and  C_16
REMARK    7  A    between atoms: C_31  and  C_32
REMARK                            x       y       z     vdW  Elec       q    Type
REMARK                         _______ _______ _______ _____ _____    ______ ____
ROOT
ATOM      1  C   UNL     1       5.859   4.556  17.312  0.00  0.00    +0.000 C 
ATOM      2  O   UNL     1       6.400   3.672  16.644  0.00  0.00    +0.000 OA
ATOM      3  N   UNL     1       4.574   4.366  17.818  0.00  0.00    +0.000 N 
ATOM      4  C   UNL     1       4.006   3.021  17.824  0.00  0.00    +0.000 C 
ATOM      5  C   UNL     1       2.618   3.002  17.196  0.00  0.00    +0.000 C 
ATOM      6  C   UNL     1       1.696   4.014  17.871  0.00  0.00    +0.000 C 
ATOM      7  C   UNL     1       2.314   5.416  17.856  0.00  0.00    +0.000 C 
ATOM      8  C   UNL     1       3.740   5.398  18.403  0.00  0.00    +0.000 C 
ENDROOT
BRANCH   1  12
ATOM      9  C   UNL     1       7.758   7.632  17.987  0.00  0.00    +0.000 A 
ATOM     10  N   UNL     1       7.065   7.944  16.891  0.00  0.00    +0.000 NA
ATOM     11  N   UNL     1       6.397   6.818  16.606  0.00  0.00    +0.000 N 
ATOM     12  C   UNL     1       6.559   5.808  17.522  0.00  0.00    +0.000 A 
ATOM     13  C   UNL     1       7.505   6.298  18.420  0.00  0.00    +0.000 A 
ATOM     14  C   UNL     1       8.175   5.648  19.577  0.00  0.00    +0.000 C 
ATOM     15  H   UNL     1       5.830   6.782  15.764  0.00  0.00    +0.000 HD
BRANCH   9  17
ATOM     16  C   UNL     1       8.397  10.043  18.146  0.00  0.00    +0.000 C 
ATOM     17  C   UNL     1       8.698   8.620  18.597  0.00  0.00    +0.000 C 
ENDBRANCH   9  17
ENDBRANCH   1  12
BRANCH   7  18
ATOM     18  C   UNL     1       1.516   6.436  18.685  0.00  0.00    +0.000 C 
BRANCH  18  19
ATOM     19  C   UNL     1       2.344   7.651  19.070  0.00  0.00    +0.000 C 
BRANCH  19  20
ATOM     20  C   UNL     1       1.849   8.919  18.406  0.00  0.00    +0.000 C 
ATOM     21  O   UNL     1       1.986   9.114  17.200  0.00  0.00    +0.000 OA
ATOM     22  N   UNL     1       1.215   9.820  19.239  0.00  0.00    +0.000 N 
ATOM     23  C   UNL     1       0.607  11.026  18.672  0.00  0.00    +0.000 C 
ATOM     24  C   UNL     1      -0.863  11.163  19.110  0.00  0.00    +0.000 C 
ATOM     25  N   UNL     1      -0.963  11.050  20.566  0.00  0.00    +0.000 N 
ATOM     26  C   UNL     1      -1.693  11.916  21.341  0.00  0.00    +0.000 A 
ATOM     27  C   UNL     1      -2.827  12.561  20.850  0.00  0.00    +0.000 A 
ATOM     28  C   UNL     1      -3.527  13.462  21.645  0.00  0.00    +0.000 A 
ATOM     29  C   UNL     1      -3.068  13.729  22.924  0.00  0.00    +0.000 A 
ATOM     30  C   UNL     1      -1.942  13.055  23.352  0.00  0.00    +0.000 A 
ATOM     31  N   UNL     1      -1.267  12.155  22.601  0.00  0.00    +0.000 NA
ATOM     32  C   UNL     1      -0.336   9.883  21.189  0.00  0.00    +0.000 C 
ATOM     33  C   UNL     1       1.115   9.725  20.706  0.00  0.00    +0.000 C 
ENDBRANCH  19  20
ENDBRANCH  18  19
ENDBRANCH   7  18
TORSDOF 5
ENDMDL
MODEL 4
REMARK VINA RESULT:      -8.5      2.257      2.514
REMARK  Name = 
REMARK  7 active torsions:
REMARK  status: ('A' for Active; 'I' for Inactive)
REMARK    1  A    between atoms: C_1  and  C_2
REMARK    2  A    between atoms: C_2  and  C_3
REMARK    3  A    between atoms: C_6  and  C_7
REMARK    4  A    between atoms: C_13  and  C_14
REMARK    5  A    between atoms: C_14  and  C_15
REMARK    6  A    between atoms: C_15  and  C_16
REMARK    7  A    between atoms: C_31  and  C_32
REMARK                            x       y       z     vdW  Elec       q    Type
REMARK                         _______ _______ _______ _____ _____    ______ ____
ROOT
ATOM      1  C   UNL     1       4.887   3.644  19.302  0.00  0.00    +0.000 C 
ATOM      2  O   UNL     1       5.172   2.477  19.026  0.00  0.00    +0.000 OA
ATOM      3  N   UNL     1       3.722   3.932  20.011  0.00  0.00    +0.000 N 
ATOM      4  C   UNL     1       3.016   2.848  20.687  0.00  0.00    +0.000 C 
ATOM      5  C   UNL     1       1.535   2.841  20.328  0.00  0.00    +0.000 C 
ATOM      6  C   UNL     1       0.896   4.199  20.607  0.00  0.00    +0.000 C 
ATOM      7  C   UNL     1       1.655   5.321  19.890  0.00  0.00    +0.000 C 
ATOM      8  C   UNL     1       3.152   5.254  20.188  0.00  0.00    +0.000 C 
ENDROOT
BRANCH   1  12
ATOM      9  C   UNL     1       6.928   6.416  18.008  0.00  0.00    +0.000 A 
ATOM     10  N   UNL     1       7.649   5.971  19.038  0.00  0.00    +0.000 NA
ATOM     11  N   UNL     1       6.899   4.984  19.548  0.00  0.00    +0.000 N 
ATOM     12  C   UNL     1       5.755   4.709  18.841  0.00  0.00    +0.000 A 
ATOM     13  C   UNL     1       5.716   5.683  17.845  0.00  0.00    +0.000 A 
ATOM     14  C   UNL     1       4.682   5.986  16.821  0.00  0.00    +0.000 C 
ATOM     15  H   UNL     1       7.212   4.515  20.393  0.00  0.00    +0.000 HD
BRANCH   9  17
ATOM     16  C   UNL     1       8.169   8.584  18.046  0.00  0.00    +0.000 C 
ATOM     17  C   UNL     1       7.399   7.580  17.200  0.00  0.00    +0.000 C 
ENDBRANCH   9  17
ENDBRANCH   1  12
BRANCH   7  18
ATOM     18  C   UNL     1       1.170   6.725  20.285  0.00  0.00    +0.000 C 
BRANCH  18  19
ATOM     19  C   UNL     1       2.151   7.815  19.889  0.00  0.00    +0.000 C 
BRANCH  19  20
ATOM     20  C   UNL     1       1.499   8.910  19.071  0.00  0.00    +0.000 C 
ATOM     21  O   UNL     1       1.444   8.854  17.843  0.00  0.00    +0.000 OA
ATOM     22  N   UNL     1       0.952   9.951  19.795  0.00  0.00    +0.000 N 
ATOM     23  C   UNL     1       0.206  11.003  19.101  0.00  0.00    +0.000 C 
ATOM     24  C   UNL     1      -1.187  11.199  19.727  0.00  0.00    +0.000 C 
ATOM     25  N   UNL     1      -1.062  11.386  21.174  0.00  0.00    +0.000 N 
ATOM     26  C   UNL     1      -1.711  12.379  21.865  0.00  0.00    +0.000 A 
ATOM     27  C   UNL     1      -2.937  12.887  21.439  0.00  0.00    +0.000 A 
ATOM     28  C   UNL     1      -3.554  13.920  22.136  0.00  0.00    +0.000 A 
ATOM     29  C   UNL     1      -2.923  14.452  23.248  0.00  0.00    +0.000 A 
ATOM     30  C   UNL     1      -1.712  13.903  23.620  0.00  0.00    +0.000 A 
ATOM     31  N   UNL     1      -1.113  12.881  22.967  0.00  0.00    +0.000 NA
ATOM     32  C   UNL     1      -0.290  10.385  21.912  0.00  0.00    +0.000 C 
ATOM     33  C   UNL     1       1.078  10.158  21.248  0.00  0.00    +0.000 C 
ENDBRANCH  19  20
ENDBRANCH  18  19
ENDBRANCH   7  18
TORSDOF 5
ENDMDL
MODEL 5
REMARK VINA RESULT:      -8.5      2.390      2.854
REMARK  Name = 
REMARK  7 active torsions:
REMARK  status: ('A' for Active; 'I' for Inactive)
REMARK    1  A    between atoms: C_1  and  C_2
REMARK    2  A    between atoms: C_2  and  C_3
REMARK    3  A    between atoms: C_6  and  C_7
REMARK    4  A    between atoms: C_13  and  C_14
REMARK    5  A    between atoms: C_14  and  C_15
REMARK    6  A    between atoms: C_15  and  C_16
REMARK    7  A    between atoms: C_31  and  C_32
REMARK                            x       y       z     vdW  Elec       q    Type
REMARK                         _______ _______ _______ _____ _____    ______ ____
ROOT
ATOM      1  C   UNL     1       4.449   3.611  17.388  0.00  0.00    +0.000 C 
ATOM      2  O   UNL     1       4.637   2.760  16.516  0.00  0.00    +0.000 OA
ATOM      3  N   UNL     1       3.526   3.379  18.408  0.00  0.00    +0.000 N 
ATOM      4  C   UNL     1       3.023   2.024  18.614  0.00  0.00    +0.000 C 
ATOM      5  C   UNL     1       1.500   2.000  18.672  0.00  0.00    +0.000 C 
ATOM      6  C   UNL     1       0.975   2.971  19.725  0.00  0.00    +0.000 C 
ATOM      7  C   UNL     1       1.519   4.385  19.490  0.00  0.00    +0.000 C 
ATOM      8  C   UNL     1       3.039   4.376  19.342  0.00  0.00    +0.000 C 
ENDROOT
BRANCH   1  12
ATOM      9  C   UNL     1       6.451   6.689  17.188  0.00  0.00    +0.000 A 
ATOM     10  N   UNL     1       5.211   7.125  16.962  0.00  0.00    +0.000 NA
ATOM     11  N   UNL     1       4.472   6.008  16.990  0.00  0.00    +0.000 N 
ATOM     12  C   UNL     1       5.167   4.868  17.312  0.00  0.00    +0.000 A 
ATOM     13  C   UNL     1       6.496   5.279  17.391  0.00  0.00    +0.000 A 
ATOM     14  C   UNL     1       7.743   4.499  17.606  0.00  0.00    +0.000 C 
ATOM     15  H   UNL     1       3.479   6.070  16.784  0.00  0.00    +0.000 HD
BRANCH   9  17
ATOM     16  C   UNL     1       8.200   7.831  18.560  0.00  0.00    +0.000 C 
ATOM     17  C   UNL     1       7.604   7.639  17.173  0.00  0.00    +0.000 C 
ENDBRANCH   9  17
ENDBRANCH   1  12
BRANCH   7  18
ATOM     18  C   UNL     1       1.174   5.361  20.627  0.00  0.00    +0.000 C 
BRANCH  18  19
ATOM     19  C   UNL     1       2.198   6.473  20.772  0.00  0.00    +0.000 C 
BRANCH  19  20
ATOM     20  C   UNL     1       1.943   7.622  19.819  0.00  0.00    +0.000 C 
ATOM     21  O   UNL     1       2.162   7.522  18.613  0.00  0.00    +0.000 OA
ATOM     22  N   UNL     1       1.425   8.768  20.390  0.00  0.00    +0.000 N 
ATOM     23  C   UNL     1       1.044   9.894  19.535  0.00  0.00    +0.000 C 
ATOM     24  C   UNL     1      -0.403  10.339  19.818  0.00  0.00    +0.000 C 
ATOM     25  N   UNL     1      -0.584  10.567  21.253  0.00  0.00    +0.000 N 
ATOM     26  C   UNL     1      -1.198  11.682  21.768  0.00  0.00    +0.000 A 
ATOM     27  C   UNL     1      -2.192  12.361  21.065  0.00  0.00    +0.000 A 
ATOM     28  C   UNL     1      -2.772  13.509  21.593  0.00  0.00    +0.000 A 
ATOM     29  C   UNL     1      -2.333  13.981  22.819  0.00  0.00    +0.000 A 
ATOM     30  C   UNL     1      -1.349  13.262  23.466  0.00  0.00    +0.000 A 
ATOM     31  N   UNL     1      -0.794  12.128  22.977  0.00  0.00    +0.000 NA
ATOM     32  C   UNL     1      -0.180   9.488  22.156  0.00  0.00    +0.000 C 
ATOM     33  C   UNL     1       1.247   9.016  21.832  0.00  0.00    +0.000 C 
ENDBRANCH  19  20
ENDBRANCH  18  19
ENDBRANCH   7  18
TORSDOF 5
ENDMDL
MODEL 6
REMARK VINA RESULT:      -8.3      1.617      2.170
REMARK  Name = 
REMARK  7 active torsions:
REMARK  status: ('A' for Active; 'I' for Inactive)
REMARK    1  A    between atoms: C_1  and  C_2
REMARK    2  A    between atoms: C_2  and  C_3
REMARK    3  A    between atoms: C_6  and  C_7
REMARK    4  A    between atoms: C_13  and  C_14
REMARK    5  A    between atoms: C_14  and  C_15
REMARK    6  A    between atoms: C_15  and  C_16
REMARK    7  A    between atoms: C_31  and  C_32
REMARK                            x       y       z     vdW  Elec       q    Type
REMARK                         _______ _______ _______ _____ _____    ______ ____
ROOT
ATOM      1  C   UNL     1       4.498   3.879  18.362  0.00  0.00    +0.000 C 
ATOM      2  O   UNL     1       4.433   2.874  17.652  0.00  0.00    +0.000 OA
ATOM      3  N   UNL     1       3.529   4.113  19.337  0.00  0.00    +0.000 N 
ATOM      4  C   UNL     1       2.632   3.027  19.721  0.00  0.00    +0.000 C 
ATOM      5  C   UNL     1       1.174   3.468  19.674  0.00  0.00    +0.000 C 
ATOM      6  C   UNL     1       0.951   4.719  20.520  0.00  0.00    +0.000 C 
ATOM      7  C   UNL     1       1.906   5.843  20.102  0.00  0.00    +0.000 C 
ATOM      8  C   UNL     1       3.353   5.355  20.064  0.00  0.00    +0.000 C 
ENDROOT
BRANCH   1  12
ATOM      9  C   UNL     1       7.072   6.415  17.679  0.00  0.00    +0.000 A 
ATOM     10  N   UNL     1       7.635   5.667  18.629  0.00  0.00    +0.000 NA
ATOM     11  N   UNL     1       6.693   4.760  18.920  0.00  0.00    +0.000 N 
ATOM     12  C   UNL     1       5.567   4.832  18.137  0.00  0.00    +0.000 A 
ATOM     13  C   UNL     1       5.764   5.959  17.343  0.00  0.00    +0.000 A 
ATOM     14  C   UNL     1       4.867   6.627  16.362  0.00  0.00    +0.000 C 
ATOM     15  H   UNL     1       6.863   4.097  19.670  0.00  0.00    +0.000 HD
BRANCH   9  17
ATOM     16  C   UNL     1       8.181   8.591  18.207  0.00  0.00    +0.000 C 
ATOM     17  C   UNL     1       7.791   7.599  17.120  0.00  0.00    +0.000 C 
ENDBRANCH   9  17
ENDBRANCH   1  12
BRANCH   7  18
ATOM     18  C   UNL     1       1.854   7.059  21.041  0.00  0.00    +0.000 C 
BRANCH  18  19
ATOM     19  C   UNL     1       0.616   7.912  20.825  0.00  0.00    +0.000 C 
BRANCH  19  20
ATOM     20  C   UNL     1       0.929   9.220  20.130  0.00  0.00    +0.000 C 
ATOM     21  O   UNL     1       1.369   9.253  18.982  0.00  0.00    +0.000 OA
ATOM     22  N   UNL     1       0.663  10.362  20.860  0.00  0.00    +0.000 N 
ATOM     23  C   UNL     1       0.831  11.676  20.234  0.00  0.00    +0.000 C 
ATOM     24  C   UNL     1      -0.444  12.527  20.382  0.00  0.00    +0.000 C 
ATOM     25  N   UNL     1      -0.860  12.562  21.786  0.00  0.00    +0.000 N 
ATOM     26  C   UNL     1      -1.215  13.717  22.438  0.00  0.00    +0.000 A 
ATOM     27  C   UNL     1      -1.782  14.796  21.763  0.00  0.00    +0.000 A 
ATOM     28  C   UNL     1      -2.096  15.968  22.441  0.00  0.00    +0.000 A 
ATOM     29  C   UNL     1      -1.818  16.057  23.795  0.00  0.00    +0.000 A 
ATOM     30  C   UNL     1      -1.260  14.952  24.407  0.00  0.00    +0.000 A 
ATOM     31  N   UNL     1      -0.973  13.796  23.765  0.00  0.00    +0.000 NA
ATOM     32  C   UNL     1      -1.004  11.277  22.471  0.00  0.00    +0.000 C 
ATOM     33  C   UNL     1       0.253  10.414  22.274  0.00  0.00    +0.000 C 
ENDBRANCH  19  20
ENDBRANCH  18  19
ENDBRANCH   7  18
TORSDOF 5
ENDMDL
MODEL 7
REMARK VINA RESULT:      -8.3      1.410      1.848
REMARK  Name = 
REMARK  7 active torsions:
REMARK  status: ('A' for Active; 'I' for Inactive)
REMARK    1  A    between atoms: C_1  and  C_2
REMARK    2  A    between atoms: C_2  and  C_3
REMARK    3  A    between atoms: C_6  and  C_7
REMARK    4  A    between atoms: C_13  and  C_14
REMARK    5  A    between atoms: C_14  and  C_15
REMARK    6  A    between atoms: C_15  and  C_16
REMARK    7  A    between atoms: C_31  and  C_32
REMARK                            x       y       z     vdW  Elec       q    Type
REMARK                         _______ _______ _______ _____ _____    ______ ____
ROOT
ATOM      1  C   UNL     1       5.687   4.707  17.124  0.00  0.00    +0.000 C 
ATOM      2  O   UNL     1       6.004   3.989  16.174  0.00  0.00    +0.000 OA
ATOM      3  N   UNL     1       4.550   4.413  17.876  0.00  0.00    +0.000 N 
ATOM      4  C   UNL     1       3.926   3.101  17.735  0.00  0.00    +0.000 C 
ATOM      5  C   UNL     1       2.429   3.223  17.475  0.00  0.00    +0.000 C 
ATOM      6  C   UNL     1       1.751   4.065  18.552  0.00  0.00    +0.000 C 
ATOM      7  C   UNL     1       2.425   5.435  18.684  0.00  0.00    +0.000 C 
ATOM      8  C   UNL     1       3.937   5.295  18.851  0.00  0.00    +0.000 C 
ENDROOT
BRANCH   1  12
ATOM      9  C   UNL     1       7.806   7.574  18.024  0.00  0.00    +0.000 A 
ATOM     10  N   UNL     1       7.283   7.945  16.854  0.00  0.00    +0.000 NA
ATOM     11  N   UNL     1       6.539   6.893  16.490  0.00  0.00    +0.000 N 
ATOM     12  C   UNL     1       6.485   5.881  17.417  0.00  0.00    +0.000 A 
ATOM     13  C   UNL     1       7.364   6.279  18.422  0.00  0.00    +0.000 A 
ATOM     14  C   UNL     1       7.823   5.575  19.648  0.00  0.00    +0.000 C 
ATOM     15  H   UNL     1       6.073   6.907  15.588  0.00  0.00    +0.000 HD
BRANCH   9  17
ATOM     16  C   UNL     1       8.660   9.909  18.273  0.00  0.00    +0.000 C 
ATOM     17  C   UNL     1       8.766   8.465  18.742  0.00  0.00    +0.000 C 
ENDBRANCH   9  17
ENDBRANCH   1  12
BRANCH   7  18
ATOM     18  C   UNL     1       1.905   6.251  19.879  0.00  0.00    +0.000 C 
BRANCH  18  19
ATOM     19  C   UNL     1       1.976   7.749  19.639  0.00  0.00    +0.000 C 
BRANCH  19  20
ATOM     20  C   UNL     1       1.304   8.543  20.739  0.00  0.00    +0.000 C 
ATOM     21  O   UNL     1       1.171   8.090  21.875  0.00  0.00    +0.000 OA
ATOM     22  N   UNL     1       0.879   9.810  20.387  0.00  0.00    +0.000 N 
ATOM     23  C   UNL     1       0.315  10.694  21.410  0.00  0.00    +0.000 C 
ATOM     24  C   UNL     1       1.031  12.057  21.419  0.00  0.00    +0.000 C 
ATOM     25  N   UNL     1       1.056  12.617  20.066  0.00  0.00    +0.000 N 
ATOM     26  C   UNL     1       0.721  13.918  19.783  0.00  0.00    +0.000 A 
ATOM     27  C   UNL     1       0.911  14.942  20.708  0.00  0.00    +0.000 A 
ATOM     28  C   UNL     1       0.528  16.245  20.409  0.00  0.00    +0.000 A 
ATOM     29  C   UNL     1      -0.066  16.508  19.187  0.00  0.00    +0.000 A 
ATOM     30  C   UNL     1      -0.224  15.451  18.312  0.00  0.00    +0.000 A 
ATOM     31  N   UNL     1       0.169  14.184  18.578  0.00  0.00    +0.000 NA
ATOM     32  C   UNL     1       1.572  11.760  18.998  0.00  0.00    +0.000 C 
ATOM     33  C   UNL     1       0.888  10.383  19.030  0.00  0.00    +0.000 C 
ENDBRANCH  19  20
ENDBRANCH  18  19
ENDBRANCH   7  18
TORSDOF 5
ENDMDL
MODEL 8
REMARK VINA RESULT:      -8.0      2.206      2.578
REMARK  Name = 
REMARK  7 active torsions:
REMARK  status: ('A' for Active; 'I' for Inactive)
REMARK    1  A    between atoms: C_1  and  C_2
REMARK    2  A    between atoms: C_2  and  C_3
REMARK    3  A    between atoms: C_6  and  C_7
REMARK    4  A    between atoms: C_13  and  C_14
REMARK    5  A    between atoms: C_14  and  C_15
REMARK    6  A    between atoms: C_15  and  C_16
REMARK    7  A    between atoms: C_31  and  C_32
REMARK                            x       y       z     vdW  Elec       q    Type
REMARK                         _______ _______ _______ _____ _____    ______ ____
ROOT
ATOM      1  C   UNL     1       4.457   3.870  17.891  0.00  0.00    +0.000 C 
ATOM      2  O   UNL     1       4.540   2.857  17.194  0.00  0.00    +0.000 OA
ATOM      3  N   UNL     1       3.504   3.946  18.907  0.00  0.00    +0.000 N 
ATOM      4  C   UNL     1       2.830   2.725  19.340  0.00  0.00    +0.000 C 
ATOM      5  C   UNL     1       1.317   2.901  19.355  0.00  0.00    +0.000 C 
ATOM      6  C   UNL     1       0.913   4.107  20.200  0.00  0.00    +0.000 C 
ATOM      7  C   UNL     1       1.634   5.374  19.729  0.00  0.00    +0.000 C 
ATOM      8  C   UNL     1       3.142   5.149  19.631  0.00  0.00    +0.000 C 
ENDROOT
BRANCH   1  12
ATOM      9  C   UNL     1       6.790   6.659  17.345  0.00  0.00    +0.000 A 
ATOM     10  N   UNL     1       6.062   6.657  16.228  0.00  0.00    +0.000 NA
ATOM     11  N   UNL     1       5.231   5.618  16.392  0.00  0.00    +0.000 N 
ATOM     12  C   UNL     1       5.329   4.993  17.610  0.00  0.00    +0.000 A 
ATOM     13  C   UNL     1       6.398   5.624  18.243  0.00  0.00    +0.000 A 
ATOM     14  C   UNL     1       7.064   5.341  19.541  0.00  0.00    +0.000 C 
ATOM     15  H   UNL     1       4.600   5.368  15.636  0.00  0.00    +0.000 HD
BRANCH   9  17
ATOM     16  C   UNL     1       7.373   9.071  17.635  0.00  0.00    +0.000 C 
ATOM     17  C   UNL     1       7.896   7.646  17.527  0.00  0.00    +0.000 C 
ENDBRANCH   9  17
ENDBRANCH   1  12
BRANCH   7  18
ATOM     18  C   UNL     1       1.409   6.578  20.659  0.00  0.00    +0.000 C 
BRANCH  18  19
ATOM     19  C   UNL     1       2.276   7.770  20.292  0.00  0.00    +0.000 C 
BRANCH  19  20
ATOM     20  C   UNL     1       1.646   8.633  19.219  0.00  0.00    +0.000 C 
ATOM     21  O   UNL     1       1.706   8.331  18.028  0.00  0.00    +0.000 OA
ATOM     22  N   UNL     1       0.983   9.758  19.670  0.00  0.00    +0.000 N 
ATOM     23  C   UNL     1       0.251  10.597  18.719  0.00  0.00    +0.000 C 
ATOM     24  C   UNL     1      -1.201  10.818  19.180  0.00  0.00    +0.000 C 
ATOM     25  N   UNL     1      -1.218  11.298  20.564  0.00  0.00    +0.000 N 
ATOM     26  C   UNL     1      -1.977  12.362  20.984  0.00  0.00    +0.000 A 
ATOM     27  C   UNL     1      -3.183  12.691  20.368  0.00  0.00    +0.000 A 
ATOM     28  C   UNL     1      -3.913  13.797  20.789  0.00  0.00    +0.000 A 
ATOM     29  C   UNL     1      -3.414  14.582  21.814  0.00  0.00    +0.000 A 
ATOM     30  C   UNL     1      -2.215  14.201  22.385  0.00  0.00    +0.000 A 
ATOM     31  N   UNL     1      -1.508  13.113  22.005  0.00  0.00    +0.000 NA
ATOM     32  C   UNL     1      -0.467  10.518  21.549  0.00  0.00    +0.000 C 
ATOM     33  C   UNL     1       0.966  10.258  21.056  0.00  0.00    +0.000 C 
ENDBRANCH  19  20
ENDBRANCH  18  19
ENDBRANCH   7  18
TORSDOF 5
ENDMDL
MODEL 9
REMARK VINA RESULT:      -8.0      0.932      1.122
REMARK  Name = 
REMARK  7 active torsions:
REMARK  status: ('A' for Active; 'I' for Inactive)
REMARK    1  A    between atoms: C_1  and  C_2
REMARK    2  A    between atoms: C_2  and  C_3
REMARK    3  A    between atoms: C_6  and  C_7
REMARK    4  A    between atoms: C_13  and  C_14
REMARK    5  A    between atoms: C_14  and  C_15
REMARK    6  A    between atoms: C_15  and  C_16
REMARK    7  A    between atoms: C_31  and  C_32
REMARK                            x       y       z     vdW  Elec       q    Type
REMARK                         _______ _______ _______ _____ _____    ______ ____
ROOT
ATOM      1  C   UNL     1       4.480   4.178  17.939  0.00  0.00    +0.000 C 
ATOM      2  O   UNL     1       4.460   3.154  17.254  0.00  0.00    +0.000 OA
ATOM      3  N   UNL     1       3.621   4.310  19.029  0.00  0.00    +0.000 N 
ATOM      4  C   UNL     1       2.933   3.127  19.537  0.00  0.00    +0.000 C 
ATOM      5  C   UNL     1       1.435   3.371  19.675  0.00  0.00    +0.000 C 
ATOM      6  C   UNL     1       1.157   4.605  20.530  0.00  0.00    +0.000 C 
ATOM      7  C   UNL     1       1.891   5.832  19.979  0.00  0.00    +0.000 C 
ATOM      8  C   UNL     1       3.374   5.538  19.760  0.00  0.00    +0.000 C 
ENDROOT
BRANCH   1  12
ATOM      9  C   UNL     1       6.884   6.847  17.148  0.00  0.00    +0.000 A 
ATOM     10  N   UNL     1       6.036   6.895  16.120  0.00  0.00    +0.000 NA
ATOM     11  N   UNL     1       5.174   5.900  16.371  0.00  0.00    +0.000 N 
ATOM     12  C   UNL     1       5.375   5.257  17.567  0.00  0.00    +0.000 A 
ATOM     13  C   UNL     1       6.540   5.824  18.079  0.00  0.00    +0.000 A 
ATOM     14  C   UNL     1       7.332   5.491  19.292  0.00  0.00    +0.000 C 
ATOM     15  H   UNL     1       4.450   5.692  15.690  0.00  0.00    +0.000 HD
BRANCH   9  17
ATOM     16  C   UNL     1       7.751   9.017  18.031  0.00  0.00    +0.000 C 
ATOM     17  C   UNL     1       8.055   7.772  17.209  0.00  0.00    +0.000 C 
ENDBRANCH   9  17
ENDBRANCH   1  12
BRANCH   7  18
ATOM     18  C   UNL     1       1.798   7.057  20.905  0.00  0.00    +0.000 C 
BRANCH  18  19
ATOM     19  C   UNL     1       1.457   8.332  20.153  0.00  0.00    +0.000 C 
BRANCH  19  20
ATOM     20  C   UNL     1       0.343   9.114  20.817  0.00  0.00    +0.000 C 
ATOM     21  O   UNL     1      -0.390   8.603  21.663  0.00  0.00    +0.000 OA
ATOM     22  N   UNL     1       0.227  10.435  20.431  0.00  0.00    +0.000 N 
ATOM     23  C   UNL     1      -0.749  11.300  21.095  0.00  0.00    +0.000 C 
ATOM     24  C   UNL     1      -0.084  12.586  21.618  0.00  0.00    +0.000 C 
ATOM     25  N   UNL     1       0.677  13.228  20.544  0.00  0.00    +0.000 N 
ATOM     26  C   UNL     1       0.603  14.570  20.265  0.00  0.00    +0.000 A 
ATOM     27  C   UNL     1       0.324  15.510  21.255  0.00  0.00    +0.000 A 
ATOM     28  C   UNL     1       0.217  16.859  20.938  0.00  0.00    +0.000 A 
ATOM     29  C   UNL     1       0.370  17.255  19.620  0.00  0.00    +0.000 A 
ATOM     30  C   UNL     1       0.649  16.277  18.687  0.00  0.00    +0.000 A 
ATOM     31  N   UNL     1       0.782  14.963  18.985  0.00  0.00    +0.000 NA
ATOM     32  C   UNL     1       1.639  12.396  19.818  0.00  0.00    +0.000 C 
ATOM     33  C   UNL     1       0.977  11.090  19.346  0.00  0.00    +0.000 C 
ENDBRANCH  19  20
ENDBRANCH  18  19
ENDBRANCH   7  18
TORSDOF 5
ENDMDL
