MODEL 1
REMARK VINA RESULT:      -8.0      0.000      0.000
REMARK  Name = 
REMARK  4 active torsions:
REMARK  status: ('A' for Active; 'I' for Inactive)
REMARK    1  A    between atoms: C_1  and  C_2
REMARK    2  A    between atoms: C_6  and  C_7
REMARK    3  A    between atoms: N_9  and  C_10
REMARK    4  A    between atoms: C_10  and  C_11
REMARK                            x       y       z     vdW  Elec       q    Type
REMARK                         _______ _______ _______ _____ _____    ______ ____
ROOT
ATOM      1  C   UNL     1       3.806   6.750  17.757  0.00  0.00    +0.000 C 
ATOM      2  O   UNL     1       4.448   7.381  16.920  0.00  0.00    +0.000 OA
ATOM      3  N   UNL     1       2.704   7.298  18.364  0.00  0.00    +0.000 N 
ATOM      4  H   UNL     1       2.145   6.726  18.992  0.00  0.00    +0.000 HD
ENDROOT
BRANCH   1  10
ATOM      5  C   UNL     1       6.737   5.889  18.628  0.00  0.00    +0.000 C 
ATOM      6  C   UNL     1       5.503   5.052  18.552  0.00  0.00    +0.000 A 
ATOM      7  N   UNL     1       5.541   3.725  18.893  0.00  0.00    +0.000 N 
ATOM      8  C   UNL     1       4.300   3.183  18.759  0.00  0.00    +0.000 A 
ATOM      9  C   UNL     1       3.441   4.160  18.294  0.00  0.00    +0.000 A 
ATOM     10  C   UNL     1       4.196   5.386  18.171  0.00  0.00    +0.000 A 
ATOM     11  C   UNL     1       2.053   3.829  18.042  0.00  0.00    +0.000 C 
ATOM     12  O   UNL     1       1.256   4.656  17.602  0.00  0.00    +0.000 OA
ATOM     13  C   UNL     1       1.575   2.414  18.348  0.00  0.00    +0.000 C 
ATOM     14  C   UNL     1       2.582   1.359  18.816  0.00  0.00    +0.000 C 
ATOM     15  C   UNL     1       4.029   1.768  19.071  0.00  0.00    +0.000 C 
ATOM     16  H   UNL     1       6.370   3.242  19.228  0.00  0.00    +0.000 HD
ENDBRANCH   1  10
BRANCH   3  17
ATOM     17  C   UNL     1       2.242   8.638  18.079  0.00  0.00    +0.000 C 
BRANCH  17  18
ATOM     18  C   UNL     1       1.478   9.218  19.252  0.00  0.00    +0.000 A 
ATOM     19  C   UNL     1       1.276   8.412  20.417  0.00  0.00    +0.000 A 
ATOM     20  C   UNL     1       0.667   8.880  21.598  0.00  0.00    +0.000 A 
ATOM     21  C   UNL     1       0.417  10.261  21.600  0.00  0.00    +0.000 A 
ATOM     22  N   UNL     1       0.007  11.046  22.604  0.00  0.00    +0.000 NA
ATOM     23  O   UNL     1       0.000  12.334  22.093  0.00  0.00    +0.000 OA
ATOM     24  N   UNL     1       0.311  12.356  20.743  0.00  0.00    +0.000 NA
ATOM     25  C   UNL     1       0.611  11.092  20.420  0.00  0.00    +0.000 A 
ATOM     26  C   UNL     1       1.066  10.570  19.196  0.00  0.00    +0.000 A 
ENDBRANCH  17  18
ENDBRANCH   3  17
TORSDOF 3
ENDMDL
MODEL 2
REMARK VINA RESULT:      -8.0      1.317      3.312
REMARK  Name = 
REMARK  4 active torsions:
REMARK  status: ('A' for Active; 'I' for Inactive)
REMARK    1  A    between atoms: C_1  and  C_2
REMARK    2  A    between atoms: C_6  and  C_7
REMARK    3  A    between atoms: N_9  and  C_10
REMARK    4  A    between atoms: C_10  and  C_11
REMARK                            x       y       z     vdW  Elec       q    Type
REMARK                         _______ _______ _______ _____ _____    ______ ____
ROOT
ATOM      1  C   UNL     1       2.439   5.082  19.566  0.00  0.00    +0.000 C 
ATOM      2  O   UNL     1       1.434   4.481  19.190  0.00  0.00    +0.000 OA
ATOM      3  N   UNL     1       2.345   6.161  20.409  0.00  0.00    +0.000 N 
ATOM      4  H   UNL     1       3.194   6.587  20.768  0.00  0.00    +0.000 HD
ENDROOT
BRANCH   1  10
ATOM      5  C   UNL     1       3.931   2.406  20.406  0.00  0.00    +0.000 C 
ATOM      6  C   UNL     1       4.409   3.499  19.508  0.00  0.00    +0.000 A 
ATOM      7  N   UNL     1       5.642   3.420  18.914  0.00  0.00    +0.000 N 
ATOM      8  C   UNL     1       5.845   4.517  18.135  0.00  0.00    +0.000 A 
ATOM      9  C   UNL     1       4.744   5.344  18.244  0.00  0.00    +0.000 A 
ATOM     10  C   UNL     1       3.791   4.693  19.115  0.00  0.00    +0.000 A 
ATOM     11  C   UNL     1       4.722   6.601  17.525  0.00  0.00    +0.000 C 
ATOM     12  O   UNL     1       3.776   7.384  17.611  0.00  0.00    +0.000 OA
ATOM     13  C   UNL     1       5.904   6.949  16.629  0.00  0.00    +0.000 C 
ATOM     14  C   UNL     1       7.120   6.017  16.583  0.00  0.00    +0.000 C 
ATOM     15  C   UNL     1       7.083   4.702  17.356  0.00  0.00    +0.000 C 
ATOM     16  H   UNL     1       6.282   2.636  19.019  0.00  0.00    +0.000 HD
ENDBRANCH   1  10
BRANCH   3  17
ATOM     17  C   UNL     1       1.079   6.666  20.889  0.00  0.00    +0.000 C 
BRANCH  17  18
ATOM     18  C   UNL     1       1.054   8.181  20.887  0.00  0.00    +0.000 A 
ATOM     19  C   UNL     1       1.272   8.878  19.657  0.00  0.00    +0.000 A 
ATOM     20  C   UNL     1       1.176  10.277  19.520  0.00  0.00    +0.000 A 
ATOM     21  C   UNL     1       0.685  10.927  20.663  0.00  0.00    +0.000 A 
ATOM     22  N   UNL     1       0.321  12.206  20.818  0.00  0.00    +0.000 NA
ATOM     23  O   UNL     1      -0.166  12.302  22.112  0.00  0.00    +0.000 OA
ATOM     24  N   UNL     1      -0.023  11.112  22.807  0.00  0.00    +0.000 NA
ATOM     25  C   UNL     1       0.466  10.233  21.924  0.00  0.00    +0.000 A 
ATOM     26  C   UNL     1       0.727   8.860  22.085  0.00  0.00    +0.000 A 
ENDBRANCH  17  18
ENDBRANCH   3  17
TORSDOF 3
ENDMDL
MODEL 3
REMARK VINA RESULT:      -7.9      1.694      2.059
REMARK  Name = 
REMARK  4 active torsions:
REMARK  status: ('A' for Active; 'I' for Inactive)
REMARK    1  A    between atoms: C_1  and  C_2
REMARK    2  A    between atoms: C_6  and  C_7
REMARK    3  A    between atoms: N_9  and  C_10
REMARK    4  A    between atoms: C_10  and  C_11
REMARK                            x       y       z     vdW  Elec       q    Type
REMARK                         _______ _______ _______ _____ _____    ______ ____
ROOT
ATOM      1  C   UNL     1       3.343   6.913  17.904  0.00  0.00    +0.000 C 
ATOM      2  O   UNL     1       4.190   7.622  17.363  0.00  0.00    +0.000 OA
ATOM      3  N   UNL     1       2.095   7.402  18.200  0.00  0.00    +0.000 N 
ATOM      4  H   UNL     1       1.390   6.773  18.572  0.00  0.00    +0.000 HD
ENDROOT
BRANCH   1  10
ATOM      5  C   UNL     1       5.229   4.941  16.277  0.00  0.00    +0.000 C 
ATOM      6  C   UNL     1       4.471   4.680  17.537  0.00  0.00    +0.000 A 
ATOM      7  N   UNL     1       4.545   3.457  18.152  0.00  0.00    +0.000 N 
ATOM      8  C   UNL     1       3.787   3.467  19.282  0.00  0.00    +0.000 A 
ATOM      9  C   UNL     1       3.182   4.704  19.395  0.00  0.00    +0.000 A 
ATOM     10  C   UNL     1       3.627   5.514  18.283  0.00  0.00    +0.000 A 
ATOM     11  C   UNL     1       2.295   4.965  20.510  0.00  0.00    +0.000 C 
ATOM     12  O   UNL     1       1.711   6.041  20.640  0.00  0.00    +0.000 OA
ATOM     13  C   UNL     1       2.096   3.873  21.554  0.00  0.00    +0.000 C 
ATOM     14  C   UNL     1       2.755   2.504  21.353  0.00  0.00    +0.000 C 
ATOM     15  C   UNL     1       3.685   2.290  20.163  0.00  0.00    +0.000 C 
ATOM     16  H   UNL     1       5.113   2.682  17.821  0.00  0.00    +0.000 HD
ENDBRANCH   1  10
BRANCH   3  17
ATOM     17  C   UNL     1       1.705   8.765  17.918  0.00  0.00    +0.000 C 
BRANCH  17  18
ATOM     18  C   UNL     1       1.110   9.432  19.141  0.00  0.00    +0.000 A 
ATOM     19  C   UNL     1      -0.098  10.186  19.003  0.00  0.00    +0.000 A 
ATOM     20  C   UNL     1      -0.790  10.765  20.085  0.00  0.00    +0.000 A 
ATOM     21  C   UNL     1      -0.283  10.402  21.343  0.00  0.00    +0.000 A 
ATOM     22  N   UNL     1      -0.791  10.635  22.560  0.00  0.00    +0.000 NA
ATOM     23  O   UNL     1       0.058   9.994  23.448  0.00  0.00    +0.000 OA
ATOM     24  N   UNL     1       1.153   9.437  22.806  0.00  0.00    +0.000 NA
ATOM     25  C   UNL     1       0.949   9.642  21.499  0.00  0.00    +0.000 A 
ATOM     26  C   UNL     1       1.716   9.213  20.401  0.00  0.00    +0.000 A 
ENDBRANCH  17  18
ENDBRANCH   3  17
TORSDOF 3
ENDMDL
MODEL 4
REMARK VINA RESULT:      -7.9      0.717      1.398
REMARK  Name = 
REMARK  4 active torsions:
REMARK  status: ('A' for Active; 'I' for Inactive)
REMARK    1  A    between atoms: C_1  and  C_2
REMARK    2  A    between atoms: C_6  and  C_7
REMARK    3  A    between atoms: N_9  and  C_10
REMARK    4  A    between atoms: C_10  and  C_11
REMARK                            x       y       z     vdW  Elec       q    Type
REMARK                         _______ _______ _______ _____ _____    ______ ____
ROOT
ATOM      1  C   UNL     1       3.642   6.694  17.630  0.00  0.00    +0.000 C 
ATOM      2  O   UNL     1       4.294   7.308  16.787  0.00  0.00    +0.000 OA
ATOM      3  N   UNL     1       2.490   7.223  18.156  0.00  0.00    +0.000 N 
ATOM      4  H   UNL     1       1.929   6.660  18.790  0.00  0.00    +0.000 HD
ENDROOT
BRANCH   1  10
ATOM      5  C   UNL     1       6.570   6.010  18.654  0.00  0.00    +0.000 C 
ATOM      6  C   UNL     1       5.375   5.118  18.582  0.00  0.00    +0.000 A 
ATOM      7  N   UNL     1       5.454   3.815  19.001  0.00  0.00    +0.000 N 
ATOM      8  C   UNL     1       4.242   3.214  18.854  0.00  0.00    +0.000 A 
ATOM      9  C   UNL     1       3.363   4.125  18.302  0.00  0.00    +0.000 A 
ATOM     10  C   UNL     1       4.072   5.373  18.135  0.00  0.00    +0.000 A 
ATOM     11  C   UNL     1       2.000   3.721  18.020  0.00  0.00    +0.000 C 
ATOM     12  O   UNL     1       1.187   4.487  17.504  0.00  0.00    +0.000 OA
ATOM     13  C   UNL     1       1.569   2.306  18.389  0.00  0.00    +0.000 C 
ATOM     14  C   UNL     1       2.599   1.323  18.955  0.00  0.00    +0.000 C 
ATOM     15  C   UNL     1       4.018   1.808  19.238  0.00  0.00    +0.000 C 
ATOM     16  H   UNL     1       6.289   3.387  19.393  0.00  0.00    +0.000 HD
ENDBRANCH   1  10
BRANCH   3  17
ATOM     17  C   UNL     1       1.985   8.523  17.777  0.00  0.00    +0.000 C 
BRANCH  17  18
ATOM     18  C   UNL     1       1.632   9.353  18.994  0.00  0.00    +0.000 A 
ATOM     19  C   UNL     1       1.271  10.726  18.817  0.00  0.00    +0.000 A 
ATOM     20  C   UNL     1       0.832  11.563  19.862  0.00  0.00    +0.000 A 
ATOM     21  C   UNL     1       0.620  10.891  21.077  0.00  0.00    +0.000 A 
ATOM     22  N   UNL     1       0.058  11.340  22.206  0.00  0.00    +0.000 NA
ATOM     23  O   UNL     1       0.021  10.252  23.064  0.00  0.00    +0.000 OA
ATOM     24  N   UNL     1       0.642   9.142  22.517  0.00  0.00    +0.000 NA
ATOM     25  C   UNL     1       0.989   9.496  21.273  0.00  0.00    +0.000 A 
ATOM     26  C   UNL     1       1.581   8.722  20.259  0.00  0.00    +0.000 A 
ENDBRANCH  17  18
ENDBRANCH   3  17
TORSDOF 3
ENDMDL
MODEL 5
REMARK VINA RESULT:      -7.8      1.308      1.352
REMARK  Name = 
REMARK  4 active torsions:
REMARK  status: ('A' for Active; 'I' for Inactive)
REMARK    1  A    between atoms: C_1  and  C_2
REMARK    2  A    between atoms: C_6  and  C_7
REMARK    3  A    between atoms: N_9  and  C_10
REMARK    4  A    between atoms: C_10  and  C_11
REMARK                            x       y       z     vdW  Elec       q    Type
REMARK                         _______ _______ _______ _____ _____    ______ ____
ROOT
ATOM      1  C   UNL     1       3.502   6.968  17.807  0.00  0.00    +0.000 C 
ATOM      2  O   UNL     1       4.494   7.696  17.828  0.00  0.00    +0.000 OA
ATOM      3  N   UNL     1       2.240   7.487  17.949  0.00  0.00    +0.000 N 
ATOM      4  H   UNL     1       1.436   6.875  17.846  0.00  0.00    +0.000 HD
ENDROOT
BRANCH   1  10
ATOM      5  C   UNL     1       5.378   5.509  15.698  0.00  0.00    +0.000 C 
ATOM      6  C   UNL     1       4.462   4.903  16.709  0.00  0.00    +0.000 A 
ATOM      7  N   UNL     1       4.357   3.540  16.821  0.00  0.00    +0.000 N 
ATOM      8  C   UNL     1       3.479   3.230  17.814  0.00  0.00    +0.000 A 
ATOM      9  C   UNL     1       2.978   4.405  18.341  0.00  0.00    +0.000 A 
ATOM     10  C   UNL     1       3.616   5.503  17.651  0.00  0.00    +0.000 A 
ATOM     11  C   UNL     1       1.997   4.348  19.405  0.00  0.00    +0.000 C 
ATOM     12  O   UNL     1       1.500   5.365  19.888  0.00  0.00    +0.000 OA
ATOM     13  C   UNL     1       1.585   2.983  19.944  0.00  0.00    +0.000 C 
ATOM     14  C   UNL     1       2.138   1.712  19.290  0.00  0.00    +0.000 C 
ATOM     15  C   UNL     1       3.174   1.834  18.177  0.00  0.00    +0.000 C 
ATOM     16  H   UNL     1       4.887   2.875  16.265  0.00  0.00    +0.000 HD
ENDBRANCH   1  10
BRANCH   3  17
ATOM     17  C   UNL     1       1.995   8.898  18.150  0.00  0.00    +0.000 C 
BRANCH  17  18
ATOM     18  C   UNL     1       1.319   9.155  19.481  0.00  0.00    +0.000 A 
ATOM     19  C   UNL     1       1.514   8.226  20.551  0.00  0.00    +0.000 A 
ATOM     20  C   UNL     1       1.014   8.414  21.854  0.00  0.00    +0.000 A 
ATOM     21  C   UNL     1       0.441   9.678  22.066  0.00  0.00    +0.000 A 
ATOM     22  N   UNL     1       0.026  10.239  23.209  0.00  0.00    +0.000 NA
ATOM     23  O   UNL     1      -0.377  11.521  22.871  0.00  0.00    +0.000 OA
ATOM     24  N   UNL     1      -0.309  11.741  21.505  0.00  0.00    +0.000 NA
ATOM     25  C   UNL     1       0.230  10.631  20.986  0.00  0.00    +0.000 A 
ATOM     26  C   UNL     1       0.588  10.354  19.654  0.00  0.00    +0.000 A 
ENDBRANCH  17  18
ENDBRANCH   3  17
TORSDOF 3
ENDMDL
MODEL 6
REMARK VINA RESULT:      -7.8      2.508      7.402
REMARK  Name = 
REMARK  4 active torsions:
REMARK  status: ('A' for Active; 'I' for Inactive)
REMARK    1  A    between atoms: C_1  and  C_2
REMARK    2  A    between atoms: C_6  and  C_7
REMARK    3  A    between atoms: N_9  and  C_10
REMARK    4  A    between atoms: C_10  and  C_11
REMARK                            x       y       z     vdW  Elec       q    Type
REMARK                         _______ _______ _______ _____ _____    ______ ____
ROOT
ATOM      1  C   UNL     1       1.672   9.212  18.514  0.00  0.00    +0.000 C 
ATOM      2  O   UNL     1       1.473   9.237  17.300  0.00  0.00    +0.000 OA
ATOM      3  N   UNL     1       2.330   8.160  19.101  0.00  0.00    +0.000 N 
ATOM      4  H   UNL     1       2.553   8.203  20.091  0.00  0.00    +0.000 HD
ENDROOT
BRANCH   1  10
ATOM      5  C   UNL     1       2.101  12.315  17.985  0.00  0.00    +0.000 C 
ATOM      6  C   UNL     1       1.405  11.650  19.126  0.00  0.00    +0.000 A 
ATOM      7  N   UNL     1       0.836  12.399  20.124  0.00  0.00    +0.000 N 
ATOM      8  C   UNL     1       0.252  11.576  21.037  0.00  0.00    +0.000 A 
ATOM      9  C   UNL     1       0.467  10.267  20.650  0.00  0.00    +0.000 A 
ATOM     10  C   UNL     1       1.197  10.292  19.403  0.00  0.00    +0.000 A 
ATOM     11  C   UNL     1      -0.037   9.187  21.474  0.00  0.00    +0.000 C 
ATOM     12  O   UNL     1       0.152   8.006  21.187  0.00  0.00    +0.000 OA
ATOM     13  C   UNL     1      -0.836   9.537  22.724  0.00  0.00    +0.000 C 
ATOM     14  C   UNL     1      -1.003  11.005  23.130  0.00  0.00    +0.000 C 
ATOM     15  C   UNL     1      -0.456  12.100  22.219  0.00  0.00    +0.000 C 
ATOM     16  H   UNL     1       0.827  13.415  20.146  0.00  0.00    +0.000 HD
ENDBRANCH   1  10
BRANCH   3  17
ATOM     17  C   UNL     1       2.809   7.023  18.349  0.00  0.00    +0.000 C 
BRANCH  17  18
ATOM     18  C   UNL     1       2.293   5.722  18.930  0.00  0.00    +0.000 A 
ATOM     19  C   UNL     1       1.863   4.686  18.041  0.00  0.00    +0.000 A 
ATOM     20  C   UNL     1       1.458   3.406  18.466  0.00  0.00    +0.000 A 
ATOM     21  C   UNL     1       1.666   3.170  19.835  0.00  0.00    +0.000 A 
ATOM     22  N   UNL     1       1.548   2.028  20.524  0.00  0.00    +0.000 NA
ATOM     23  O   UNL     1       1.947   2.329  21.817  0.00  0.00    +0.000 OA
ATOM     24  N   UNL     1       2.224   3.678  21.971  0.00  0.00    +0.000 NA
ATOM     25  C   UNL     1       2.096   4.216  20.752  0.00  0.00    +0.000 A 
ATOM     26  C   UNL     1       2.337   5.536  20.332  0.00  0.00    +0.000 A 
ENDBRANCH  17  18
ENDBRANCH   3  17
TORSDOF 3
ENDMDL
MODEL 7
REMARK VINA RESULT:      -7.8      1.567      3.341
REMARK  Name = 
REMARK  4 active torsions:
REMARK  status: ('A' for Active; 'I' for Inactive)
REMARK    1  A    between atoms: C_1  and  C_2
REMARK    2  A    between atoms: C_6  and  C_7
REMARK    3  A    between atoms: N_9  and  C_10
REMARK    4  A    between atoms: C_10  and  C_11
REMARK                            x       y       z     vdW  Elec       q    Type
REMARK                         _______ _______ _______ _____ _____    ______ ____
ROOT
ATOM      1  C   UNL     1       2.248   4.797  19.342  0.00  0.00    +0.000 C 
ATOM      2  O   UNL     1       1.151   4.261  19.486  0.00  0.00    +0.000 OA
ATOM      3  N   UNL     1       2.570   5.944  20.022  0.00  0.00    +0.000 N 
ATOM      4  H   UNL     1       3.511   6.320  19.947  0.00  0.00    +0.000 HD
ENDROOT
BRANCH   1  10
ATOM      5  C   UNL     1       3.037   1.728  19.117  0.00  0.00    +0.000 C 
ATOM      6  C   UNL     1       3.576   2.888  18.349  0.00  0.00    +0.000 A 
ATOM      7  N   UNL     1       4.538   2.700  17.390  0.00  0.00    +0.000 N 
ATOM      8  C   UNL     1       4.856   3.894  16.821  0.00  0.00    +0.000 A 
ATOM      9  C   UNL     1       4.116   4.885  17.435  0.00  0.00    +0.000 A 
ATOM     10  C   UNL     1       3.264   4.253  18.417  0.00  0.00    +0.000 A 
ATOM     11  C   UNL     1       4.289   6.264  17.025  0.00  0.00    +0.000 C 
ATOM     12  O   UNL     1       3.673   7.185  17.560  0.00  0.00    +0.000 OA
ATOM     13  C   UNL     1       5.256   6.569  15.887  0.00  0.00    +0.000 C 
ATOM     14  C   UNL     1       6.086   5.436  15.274  0.00  0.00    +0.000 C 
ATOM     15  C   UNL     1       5.855   4.002  15.742  0.00  0.00    +0.000 C 
ATOM     16  H   UNL     1       4.920   1.794  17.130  0.00  0.00    +0.000 HD
ENDBRANCH   1  10
BRANCH   3  17
ATOM     17  C   UNL     1       1.650   6.599  20.925  0.00  0.00    +0.000 C 
BRANCH  17  18
ATOM     18  C   UNL     1       1.504   8.070  20.590  0.00  0.00    +0.000 A 
ATOM     19  C   UNL     1       1.560   8.480  19.220  0.00  0.00    +0.000 A 
ATOM     20  C   UNL     1       1.341   9.802  18.787  0.00  0.00    +0.000 A 
ATOM     21  C   UNL     1       0.897  10.666  19.802  0.00  0.00    +0.000 A 
ATOM     22  N   UNL     1       0.445  11.922  19.706  0.00  0.00    +0.000 NA
ATOM     23  O   UNL     1       0.063  12.281  20.989  0.00  0.00    +0.000 OA
ATOM     24  N   UNL     1       0.359  11.291  21.912  0.00  0.00    +0.000 NA
ATOM     25  C   UNL     1       0.841  10.265  21.200  0.00  0.00    +0.000 A 
ATOM     26  C   UNL     1       1.225   8.983  21.634  0.00  0.00    +0.000 A 
ENDBRANCH  17  18
ENDBRANCH   3  17
TORSDOF 3
ENDMDL
MODEL 8
REMARK VINA RESULT:      -7.6      3.392      7.864
REMARK  Name = 
REMARK  4 active torsions:
REMARK  status: ('A' for Active; 'I' for Inactive)
REMARK    1  A    between atoms: C_1  and  C_2
REMARK    2  A    between atoms: C_6  and  C_7
REMARK    3  A    between atoms: N_9  and  C_10
REMARK    4  A    between atoms: C_10  and  C_11
REMARK                            x       y       z     vdW  Elec       q    Type
REMARK                         _______ _______ _______ _____ _____    ______ ____
ROOT
ATOM      1  C   UNL     1       3.848   4.361  18.954  0.00  0.00    +0.000 C 
ATOM      2  O   UNL     1       4.791   3.836  19.545  0.00  0.00    +0.000 OA
ATOM      3  N   UNL     1       3.600   4.088  17.632  0.00  0.00    +0.000 N 
ATOM      4  H   UNL     1       2.768   4.472  17.192  0.00  0.00    +0.000 HD
ENDROOT
BRANCH   1  10
ATOM      5  C   UNL     1       2.289   3.804  21.666  0.00  0.00    +0.000 C 
ATOM      6  C   UNL     1       2.286   5.037  20.825  0.00  0.00    +0.000 A 
ATOM      7  N   UNL     1       1.548   6.131  21.197  0.00  0.00    +0.000 N 
ATOM      8  C   UNL     1       1.717   7.128  20.287  0.00  0.00    +0.000 A 
ATOM      9  C   UNL     1       2.553   6.673  19.286  0.00  0.00    +0.000 A 
ATOM     10  C   UNL     1       2.950   5.325  19.624  0.00  0.00    +0.000 A 
ATOM     11  C   UNL     1       2.875   7.544  18.173  0.00  0.00    +0.000 C 
ATOM     12  O   UNL     1       3.592   7.175  17.244  0.00  0.00    +0.000 OA
ATOM     13  C   UNL     1       2.312   8.960  18.171  0.00  0.00    +0.000 C 
ATOM     14  C   UNL     1       1.351   9.395  19.283  0.00  0.00    +0.000 C 
ATOM     15  C   UNL     1       1.055   8.437  20.433  0.00  0.00    +0.000 C 
ATOM     16  H   UNL     1       0.992   6.186  22.046  0.00  0.00    +0.000 HD
ENDBRANCH   1  10
BRANCH   3  17
ATOM     17  C   UNL     1       4.428   3.196  16.853  0.00  0.00    +0.000 C 
BRANCH  17  18
ATOM     18  C   UNL     1       5.330   3.965  15.909  0.00  0.00    +0.000 A 
ATOM     19  C   UNL     1       6.288   4.877  16.453  0.00  0.00    +0.000 A 
ATOM     20  C   UNL     1       7.239   5.570  15.679  0.00  0.00    +0.000 A 
ATOM     21  C   UNL     1       7.280   5.167  14.334  0.00  0.00    +0.000 A 
ATOM     22  N   UNL     1       8.158   5.495  13.378  0.00  0.00    +0.000 NA
ATOM     23  O   UNL     1       7.788   4.760  12.263  0.00  0.00    +0.000 OA
ATOM     24  N   UNL     1       6.623   4.043  12.480  0.00  0.00    +0.000 NA
ATOM     25  C   UNL     1       6.307   4.246  13.765  0.00  0.00    +0.000 A 
ATOM     26  C   UNL     1       5.260   3.691  14.523  0.00  0.00    +0.000 A 
ENDBRANCH  17  18
ENDBRANCH   3  17
TORSDOF 3
ENDMDL
MODEL 9
REMARK VINA RESULT:      -7.6      1.881      2.059
REMARK  Name = 
REMARK  4 active torsions:
REMARK  status: ('A' for Active; 'I' for Inactive)
REMARK    1  A    between atoms: C_1  and  C_2
REMARK    2  A    between atoms: C_6  and  C_7
REMARK    3  A    between atoms: N_9  and  C_10
REMARK    4  A    between atoms: C_10  and  C_11
REMARK                            x       y       z     vdW  Elec       q    Type
REMARK                         _______ _______ _______ _____ _____    ______ ____
ROOT
ATOM      1  C   UNL     1       3.454   6.850  17.849  0.00  0.00    +0.000 C 
ATOM      2  O   UNL     1       4.507   7.430  17.592  0.00  0.00    +0.000 OA
ATOM      3  N   UNL     1       2.275   7.542  17.968  0.00  0.00    +0.000 N 
ATOM      4  H   UNL     1       1.408   7.029  18.101  0.00  0.00    +0.000 HD
ENDROOT
BRANCH   1  10
ATOM      5  C   UNL     1       4.858   4.690  15.990  0.00  0.00    +0.000 C 
ATOM      6  C   UNL     1       4.044   4.472  17.223  0.00  0.00    +0.000 A 
ATOM      7  N   UNL     1       3.827   3.204  17.697  0.00  0.00    +0.000 N 
ATOM      8  C   UNL     1       3.077   3.263  18.830  0.00  0.00    +0.000 A 
ATOM      9  C   UNL     1       2.771   4.585  19.088  0.00  0.00    +0.000 A 
ATOM     10  C   UNL     1       3.404   5.389  18.067  0.00  0.00    +0.000 A 
ATOM     11  C   UNL     1       1.952   4.917  20.237  0.00  0.00    +0.000 C 
ATOM     12  O   UNL     1       1.630   6.077  20.493  0.00  0.00    +0.000 OA
ATOM     13  C   UNL     1       1.495   3.790  21.155  0.00  0.00    +0.000 C 
ATOM     14  C   UNL     1       1.824   2.338  20.795  0.00  0.00    +0.000 C 
ATOM     15  C   UNL     1       2.696   2.049  19.576  0.00  0.00    +0.000 C 
ATOM     16  H   UNL     1       4.206   2.361  17.275  0.00  0.00    +0.000 HD
ENDBRANCH   1  10
BRANCH   3  17
ATOM     17  C   UNL     1       2.195   8.977  17.819  0.00  0.00    +0.000 C 
BRANCH  17  18
ATOM     18  C   UNL     1       1.071   9.556  18.653  0.00  0.00    +0.000 A 
ATOM     19  C   UNL     1       1.182   9.536  20.079  0.00  0.00    +0.000 A 
ATOM     20  C   UNL     1       0.246  10.130  20.948  0.00  0.00    +0.000 A 
ATOM     21  C   UNL     1      -0.733  10.894  20.292  0.00  0.00    +0.000 A 
ATOM     22  N   UNL     1      -1.658  11.711  20.811  0.00  0.00    +0.000 NA
ATOM     23  O   UNL     1      -2.309  12.276  19.725  0.00  0.00    +0.000 OA
ATOM     24  N   UNL     1      -1.864  11.748  18.524  0.00  0.00    +0.000 NA
ATOM     25  C   UNL     1      -0.862  10.919  18.841  0.00  0.00    +0.000 A 
ATOM     26  C   UNL     1      -0.014  10.182  17.995  0.00  0.00    +0.000 A 
ENDBRANCH  17  18
ENDBRANCH   3  17
TORSDOF 3
ENDMDL
