MODEL 1
REMARK VINA RESULT:      -6.9      0.000      0.000
REMARK  Name = 
REMARK  7 active torsions:
REMARK  status: ('A' for Active; 'I' for Inactive)
REMARK    1  A    between atoms: C_1  and  C_2
REMARK    2  A    between atoms: C_2  and  C_3
REMARK    3  A    between atoms: C_2  and  N_6
REMARK    4  A    between atoms: N_6  and  C_7
REMARK    5  A    between atoms: C_7  and  C_8
REMARK    6  A    between atoms: C_14  and  S_15
REMARK    7  A    between atoms: N_16  and  C_17
REMARK                            x       y       z     vdW  Elec       q    Type
REMARK                         _______ _______ _______ _____ _____    ______ ____
ROOT
ATOM      1  N   UNL     1       5.774   4.888  17.053  0.00  0.00    +0.000 N 
ATOM      2  C   UNL     1       4.786   4.259  17.823  0.00  0.00    +0.000 C 
ATOM      3  N   UNL     1       4.167   4.841  18.817  0.00  0.00    +0.000 NA
ENDROOT
BRANCH   3   4
ATOM      4  C   UNL     1       3.121   4.237  19.566  0.00  0.00    +0.000 A 
ATOM      5  C   UNL     1       3.346   3.707  20.848  0.00  0.00    +0.000 A 
ATOM      6  C   UNL     1       2.343   3.030  21.553  0.00  0.00    +0.000 A 
ATOM      7  C   UNL     1       1.055   2.951  21.035  0.00  0.00    +0.000 A 
ATOM      8  C   UNL     1       0.779   3.556  19.812  0.00  0.00    +0.000 A 
ATOM      9  C   UNL     1       1.799   4.184  19.080  0.00  0.00    +0.000 A 
ATOM     10 CL   UNL     1       1.358   4.900  17.568  0.00  0.00    +0.000 Cl
ENDBRANCH   3   4
BRANCH   1  12
ATOM     11  C   UNL     1       4.439   6.954  16.366  0.00  0.00    +0.000 C 
ATOM     12  C   UNL     1       5.784   6.342  16.748  0.00  0.00    +0.000 C 
BRANCH  12  13
ATOM     13  C   UNL     1       6.519   7.222  17.742  0.00  0.00    +0.000 C 
ATOM     14  C   UNL     1       7.814   6.790  18.387  0.00  0.00    +0.000 C 
ATOM     15  C   UNL     1       7.802   7.977  17.472  0.00  0.00    +0.000 C 
ENDBRANCH  12  13
ENDBRANCH   1  12
BRANCH   2  16
ATOM     16  S   UNL     1       4.374   2.582  17.359  0.00  0.00    +0.000 S 
ATOM     17  H   UNL     1       4.270   2.123  18.611  0.00  0.00    +0.000 HD
ENDBRANCH   2  16
BRANCH   1  18
ATOM     18  C   UNL     1       6.818   4.132  16.333  0.00  0.00    +0.000 C 
BRANCH  18  19
ATOM     19  C   UNL     1       6.837   4.299  14.823  0.00  0.00    +0.000 A 
ATOM     20  C   UNL     1       7.744   5.142  14.164  0.00  0.00    +0.000 A 
ATOM     21  C   UNL     1       7.765   5.223  12.771  0.00  0.00    +0.000 A 
ATOM     22  C   UNL     1       6.878   4.464  12.013  0.00  0.00    +0.000 A 
ATOM     23  C   UNL     1       5.955   3.637  12.649  0.00  0.00    +0.000 A 
ATOM     24  C   UNL     1       5.937   3.550  14.043  0.00  0.00    +0.000 A 
ENDBRANCH  18  19
ENDBRANCH   1  18
TORSDOF 6
ENDMDL
MODEL 2
REMARK VINA RESULT:      -6.7      0.127      1.012
REMARK  Name = 
REMARK  7 active torsions:
REMARK  status: ('A' for Active; 'I' for Inactive)
REMARK    1  A    between atoms: C_1  and  C_2
REMARK    2  A    between atoms: C_2  and  C_3
REMARK    3  A    between atoms: C_2  and  N_6
REMARK    4  A    between atoms: N_6  and  C_7
REMARK    5  A    between atoms: C_7  and  C_8
REMARK    6  A    between atoms: C_14  and  S_15
REMARK    7  A    between atoms: N_16  and  C_17
REMARK                            x       y       z     vdW  Elec       q    Type
REMARK                         _______ _______ _______ _____ _____    ______ ____
ROOT
ATOM      1  N   UNL     1       5.780   4.975  17.141  0.00  0.00    +0.000 N 
ATOM      2  C   UNL     1       4.801   4.313  17.894  0.00  0.00    +0.000 C 
ATOM      3  N   UNL     1       4.131   4.881  18.863  0.00  0.00    +0.000 NA
ENDROOT
BRANCH   3   4
ATOM      4  C   UNL     1       3.094   4.241  19.594  0.00  0.00    +0.000 A 
ATOM      5  C   UNL     1       3.300   3.768  20.902  0.00  0.00    +0.000 A 
ATOM      6  C   UNL     1       2.312   3.057  21.594  0.00  0.00    +0.000 A 
ATOM      7  C   UNL     1       1.052   2.885  21.033  0.00  0.00    +0.000 A 
ATOM      8  C   UNL     1       0.787   3.431  19.780  0.00  0.00    +0.000 A 
ATOM      9  C   UNL     1       1.797   4.094  19.063  0.00  0.00    +0.000 A 
ATOM     10 CL   UNL     1       1.373   4.732  17.512  0.00  0.00    +0.000 Cl
ENDBRANCH   3   4
BRANCH   1  12
ATOM     11  C   UNL     1       4.348   7.000  16.531  0.00  0.00    +0.000 C 
ATOM     12  C   UNL     1       5.732   6.424  16.813  0.00  0.00    +0.000 C 
BRANCH  12  13
ATOM     13  C   UNL     1       6.526   7.336  17.730  0.00  0.00    +0.000 C 
ATOM     14  C   UNL     1       7.799   6.883  18.402  0.00  0.00    +0.000 C 
ATOM     15  C   UNL     1       7.847   7.992  17.395  0.00  0.00    +0.000 C 
ENDBRANCH  12  13
ENDBRANCH   1  12
BRANCH   2  16
ATOM     16  S   UNL     1       4.478   2.612  17.447  0.00  0.00    +0.000 S 
ATOM     17  H   UNL     1       5.598   2.452  16.733  0.00  0.00    +0.000 HD
ENDBRANCH   2  16
BRANCH   1  18
ATOM     18  C   UNL     1       6.876   4.257  16.459  0.00  0.00    +0.000 C 
BRANCH  18  19
ATOM     19  C   UNL     1       6.836   4.271  14.941  0.00  0.00    +0.000 A 
ATOM     20  C   UNL     1       5.894   3.542  14.200  0.00  0.00    +0.000 A 
ATOM     21  C   UNL     1       5.855   3.628  12.808  0.00  0.00    +0.000 A 
ATOM     22  C   UNL     1       6.759   4.442  12.132  0.00  0.00    +0.000 A 
ATOM     23  C   UNL     1       7.716   5.158  12.848  0.00  0.00    +0.000 A 
ATOM     24  C   UNL     1       7.752   5.078  14.241  0.00  0.00    +0.000 A 
ENDBRANCH  18  19
ENDBRANCH   1  18
TORSDOF 6
ENDMDL
MODEL 3
REMARK VINA RESULT:      -6.7      1.459      2.067
REMARK  Name = 
REMARK  7 active torsions:
REMARK  status: ('A' for Active; 'I' for Inactive)
REMARK    1  A    between atoms: C_1  and  C_2
REMARK    2  A    between atoms: C_2  and  C_3
REMARK    3  A    between atoms: C_2  and  N_6
REMARK    4  A    between atoms: N_6  and  C_7
REMARK    5  A    between atoms: C_7  and  C_8
REMARK    6  A    between atoms: C_14  and  S_15
REMARK    7  A    between atoms: N_16  and  C_17
REMARK                            x       y       z     vdW  Elec       q    Type
REMARK                         _______ _______ _______ _____ _____    ______ ____
ROOT
ATOM      1  N   UNL     1       5.614   5.604  17.284  0.00  0.00    +0.000 N 
ATOM      2  C   UNL     1       4.499   5.114  17.978  0.00  0.00    +0.000 C 
ATOM      3  N   UNL     1       4.575   4.194  18.903  0.00  0.00    +0.000 NA
ENDROOT
BRANCH   3   4
ATOM      4  C   UNL     1       3.462   3.732  19.657  0.00  0.00    +0.000 A 
ATOM      5  C   UNL     1       3.054   4.377  20.837  0.00  0.00    +0.000 A 
ATOM      6  C   UNL     1       2.016   3.875  21.633  0.00  0.00    +0.000 A 
ATOM      7  C   UNL     1       1.291   2.765  21.216  0.00  0.00    +0.000 A 
ATOM      8  C   UNL     1       1.607   2.166  20.000  0.00  0.00    +0.000 A 
ATOM      9  C   UNL     1       2.684   2.635  19.232  0.00  0.00    +0.000 A 
ATOM     10 CL   UNL     1       3.004   1.820  17.740  0.00  0.00    +0.000 Cl
ENDBRANCH   3   4
BRANCH   1  12
ATOM     11  C   UNL     1       7.852   4.489  17.801  0.00  0.00    +0.000 C 
ATOM     12  C   UNL     1       6.970   5.731  17.880  0.00  0.00    +0.000 C 
BRANCH  12  13
ATOM     13  C   UNL     1       7.747   6.977  17.497  0.00  0.00    +0.000 C 
ATOM     14  C   UNL     1       7.162   8.361  17.646  0.00  0.00    +0.000 C 
ATOM     15  C   UNL     1       8.355   7.969  18.464  0.00  0.00    +0.000 C 
ENDBRANCH  12  13
ENDBRANCH   1  12
BRANCH   2  16
ATOM     16  S   UNL     1       2.922   5.839  17.549  0.00  0.00    +0.000 S 
ATOM     17  H   UNL     1       2.457   5.888  18.802  0.00  0.00    +0.000 HD
ENDBRANCH   2  16
BRANCH   1  18
ATOM     18  C   UNL     1       5.511   6.198  15.935  0.00  0.00    +0.000 C 
BRANCH  18  19
ATOM     19  C   UNL     1       5.904   5.293  14.780  0.00  0.00    +0.000 A 
ATOM     20  C   UNL     1       5.050   4.307  14.265  0.00  0.00    +0.000 A 
ATOM     21  C   UNL     1       5.427   3.535  13.165  0.00  0.00    +0.000 A 
ATOM     22  C   UNL     1       6.666   3.735  12.563  0.00  0.00    +0.000 A 
ATOM     23  C   UNL     1       7.536   4.696  13.071  0.00  0.00    +0.000 A 
ATOM     24  C   UNL     1       7.157   5.473  14.169  0.00  0.00    +0.000 A 
ENDBRANCH  18  19
ENDBRANCH   1  18
TORSDOF 6
ENDMDL
MODEL 4
REMARK VINA RESULT:      -6.5      1.484      1.856
REMARK  Name = 
REMARK  7 active torsions:
REMARK  status: ('A' for Active; 'I' for Inactive)
REMARK    1  A    between atoms: C_1  and  C_2
REMARK    2  A    between atoms: C_2  and  C_3
REMARK    3  A    between atoms: C_2  and  N_6
REMARK    4  A    between atoms: N_6  and  C_7
REMARK    5  A    between atoms: C_7  and  C_8
REMARK    6  A    between atoms: C_14  and  S_15
REMARK    7  A    between atoms: N_16  and  C_17
REMARK                            x       y       z     vdW  Elec       q    Type
REMARK                         _______ _______ _______ _____ _____    ______ ____
ROOT
ATOM      1  N   UNL     1       5.605   5.666  17.343  0.00  0.00    +0.000 N 
ATOM      2  C   UNL     1       4.494   5.162  18.032  0.00  0.00    +0.000 C 
ATOM      3  N   UNL     1       4.573   4.218  18.934  0.00  0.00    +0.000 NA
ENDROOT
BRANCH   3   4
ATOM      4  C   UNL     1       3.465   3.741  19.685  0.00  0.00    +0.000 A 
ATOM      5  C   UNL     1       3.025   4.398  20.847  0.00  0.00    +0.000 A 
ATOM      6  C   UNL     1       1.993   3.883  21.640  0.00  0.00    +0.000 A 
ATOM      7  C   UNL     1       1.303   2.746  21.238  0.00  0.00    +0.000 A 
ATOM      8  C   UNL     1       1.650   2.131  20.038  0.00  0.00    +0.000 A 
ATOM      9  C   UNL     1       2.723   2.615  19.273  0.00  0.00    +0.000 A 
ATOM     10 CL   UNL     1       3.082   1.779  17.802  0.00  0.00    +0.000 Cl
ENDBRANCH   3   4
BRANCH   1  12
ATOM     11  C   UNL     1       7.825   4.515  17.863  0.00  0.00    +0.000 C 
ATOM     12  C   UNL     1       6.966   5.774  17.932  0.00  0.00    +0.000 C 
BRANCH  12  13
ATOM     13  C   UNL     1       7.764   7.001  17.532  0.00  0.00    +0.000 C 
ATOM     14  C   UNL     1       7.198   8.395  17.649  0.00  0.00    +0.000 C 
ATOM     15  C   UNL     1       8.377   8.003  18.486  0.00  0.00    +0.000 C 
ENDBRANCH  12  13
ENDBRANCH   1  12
BRANCH   2  16
ATOM     16  S   UNL     1       2.916   5.902  17.633  0.00  0.00    +0.000 S 
ATOM     17  H   UNL     1       2.339   4.764  17.230  0.00  0.00    +0.000 HD
ENDBRANCH   2  16
BRANCH   1  18
ATOM     18  C   UNL     1       5.494   6.293  16.010  0.00  0.00    +0.000 C 
BRANCH  18  19
ATOM     19  C   UNL     1       5.890   5.421  14.831  0.00  0.00    +0.000 A 
ATOM     20  C   UNL     1       7.146   5.506  14.213  0.00  0.00    +0.000 A 
ATOM     21  C   UNL     1       7.491   4.647  13.169  0.00  0.00    +0.000 A 
ATOM     22  C   UNL     1       6.584   3.690  12.722  0.00  0.00    +0.000 A 
ATOM     23  C   UNL     1       5.324   3.603  13.309  0.00  0.00    +0.000 A 
ATOM     24  C   UNL     1       4.980   4.458  14.358  0.00  0.00    +0.000 A 
ENDBRANCH  18  19
ENDBRANCH   1  18
TORSDOF 6
ENDMDL
MODEL 5
REMARK VINA RESULT:      -6.4      1.205      1.507
REMARK  Name = 
REMARK  7 active torsions:
REMARK  status: ('A' for Active; 'I' for Inactive)
REMARK    1  A    between atoms: C_1  and  C_2
REMARK    2  A    between atoms: C_2  and  C_3
REMARK    3  A    between atoms: C_2  and  N_6
REMARK    4  A    between atoms: N_6  and  C_7
REMARK    5  A    between atoms: C_7  and  C_8
REMARK    6  A    between atoms: C_14  and  S_15
REMARK    7  A    between atoms: N_16  and  C_17
REMARK                            x       y       z     vdW  Elec       q    Type
REMARK                         _______ _______ _______ _____ _____    ______ ____
ROOT
ATOM      1  N   UNL     1       5.691   4.531  16.788  0.00  0.00    +0.000 N 
ATOM      2  C   UNL     1       4.674   4.020  17.606  0.00  0.00    +0.000 C 
ATOM      3  N   UNL     1       4.235   4.629  18.676  0.00  0.00    +0.000 NA
ENDROOT
BRANCH   3   4
ATOM      4  C   UNL     1       3.164   4.153  19.479  0.00  0.00    +0.000 A 
ATOM      5  C   UNL     1       1.878   4.717  19.401  0.00  0.00    +0.000 A 
ATOM      6  C   UNL     1       0.842   4.315  20.253  0.00  0.00    +0.000 A 
ATOM      7  C   UNL     1       1.036   3.264  21.142  0.00  0.00    +0.000 A 
ATOM      8  C   UNL     1       2.270   2.618  21.169  0.00  0.00    +0.000 A 
ATOM      9  C   UNL     1       3.325   3.061  20.356  0.00  0.00    +0.000 A 
ATOM     10 CL   UNL     1       4.821   2.199  20.467  0.00  0.00    +0.000 Cl
ENDBRANCH   3   4
BRANCH   1  12
ATOM     11  C   UNL     1       4.752   6.745  15.928  0.00  0.00    +0.000 C 
ATOM     12  C   UNL     1       5.915   5.982  16.556  0.00  0.00    +0.000 C 
BRANCH  12  13
ATOM     13  C   UNL     1       6.509   6.754  17.719  0.00  0.00    +0.000 C 
ATOM     14  C   UNL     1       7.730   6.267  18.461  0.00  0.00    +0.000 C 
ATOM     15  C   UNL     1       7.797   7.548  17.685  0.00  0.00    +0.000 C 
ENDBRANCH  12  13
ENDBRANCH   1  12
BRANCH   2  16
ATOM     16  S   UNL     1       3.960   2.462  17.095  0.00  0.00    +0.000 S 
ATOM     17  H   UNL     1       3.043   2.415  18.068  0.00  0.00    +0.000 HD
ENDBRANCH   2  16
BRANCH   1  18
ATOM     18  C   UNL     1       6.541   3.666  15.945  0.00  0.00    +0.000 C 
BRANCH  18  19
ATOM     19  C   UNL     1       6.736   4.122  14.510  0.00  0.00    +0.000 A 
ATOM     20  C   UNL     1       7.696   5.078  14.142  0.00  0.00    +0.000 A 
ATOM     21  C   UNL     1       7.883   5.427  12.804  0.00  0.00    +0.000 A 
ATOM     22  C   UNL     1       7.111   4.830  11.811  0.00  0.00    +0.000 A 
ATOM     23  C   UNL     1       6.140   3.894  12.157  0.00  0.00    +0.000 A 
ATOM     24  C   UNL     1       5.956   3.539  13.496  0.00  0.00    +0.000 A 
ENDBRANCH  18  19
ENDBRANCH   1  18
TORSDOF 6
ENDMDL
MODEL 6
REMARK VINA RESULT:      -6.2      1.147      1.780
REMARK  Name = 
REMARK  7 active torsions:
REMARK  status: ('A' for Active; 'I' for Inactive)
REMARK    1  A    between atoms: C_1  and  C_2
REMARK    2  A    between atoms: C_2  and  C_3
REMARK    3  A    between atoms: C_2  and  N_6
REMARK    4  A    between atoms: N_6  and  C_7
REMARK    5  A    between atoms: C_7  and  C_8
REMARK    6  A    between atoms: C_14  and  S_15
REMARK    7  A    between atoms: N_16  and  C_17
REMARK                            x       y       z     vdW  Elec       q    Type
REMARK                         _______ _______ _______ _____ _____    ______ ____
ROOT
ATOM      1  N   UNL     1       5.823   4.807  16.927  0.00  0.00    +0.000 N 
ATOM      2  C   UNL     1       4.809   4.209  17.688  0.00  0.00    +0.000 C 
ATOM      3  N   UNL     1       4.237   4.791  18.709  0.00  0.00    +0.000 NA
ENDROOT
BRANCH   3   4
ATOM      4  C   UNL     1       3.167   4.222  19.452  0.00  0.00    +0.000 A 
ATOM      5  C   UNL     1       1.847   4.689  19.316  0.00  0.00    +0.000 A 
ATOM      6  C   UNL     1       0.805   4.195  20.110  0.00  0.00    +0.000 A 
ATOM      7  C   UNL     1       1.035   3.148  20.994  0.00  0.00    +0.000 A 
ATOM      8  C   UNL     1       2.311   2.597  21.076  0.00  0.00    +0.000 A 
ATOM      9  C   UNL     1       3.367   3.132  20.322  0.00  0.00    +0.000 A 
ATOM     10 CL   UNL     1       4.918   2.384  20.497  0.00  0.00    +0.000 Cl
ENDBRANCH   3   4
BRANCH   1  12
ATOM     11  C   UNL     1       4.635   6.937  16.168  0.00  0.00    +0.000 C 
ATOM     12  C   UNL     1       5.912   6.268  16.670  0.00  0.00    +0.000 C 
BRANCH  12  13
ATOM     13  C   UNL     1       6.566   7.093  17.762  0.00  0.00    +0.000 C 
ATOM     14  C   UNL     1       7.836   6.649  18.447  0.00  0.00    +0.000 C 
ATOM     15  C   UNL     1       7.841   7.897  17.617  0.00  0.00    +0.000 C 
ENDBRANCH  12  13
ENDBRANCH   1  12
BRANCH   2  16
ATOM     16  S   UNL     1       4.298   2.574  17.176  0.00  0.00    +0.000 S 
ATOM     17  H   UNL     1       4.744   1.950  18.271  0.00  0.00    +0.000 HD
ENDBRANCH   2  16
BRANCH   1  18
ATOM     18  C   UNL     1       6.815   4.018  16.168  0.00  0.00    +0.000 C 
BRANCH  18  19
ATOM     19  C   UNL     1       6.744   4.140  14.656  0.00  0.00    +0.000 A 
ATOM     20  C   UNL     1       5.748   3.516  13.890  0.00  0.00    +0.000 A 
ATOM     21  C   UNL     1       5.684   3.700  12.509  0.00  0.00    +0.000 A 
ATOM     22  C   UNL     1       6.617   4.510  11.868  0.00  0.00    +0.000 A 
ATOM     23  C   UNL     1       7.626   5.123  12.607  0.00  0.00    +0.000 A 
ATOM     24  C   UNL     1       7.687   4.944  13.991  0.00  0.00    +0.000 A 
ENDBRANCH  18  19
ENDBRANCH   1  18
TORSDOF 6
ENDMDL
MODEL 7
REMARK VINA RESULT:      -5.8      2.754      4.858
REMARK  Name = 
REMARK  7 active torsions:
REMARK  status: ('A' for Active; 'I' for Inactive)
REMARK    1  A    between atoms: C_1  and  C_2
REMARK    2  A    between atoms: C_2  and  C_3
REMARK    3  A    between atoms: C_2  and  N_6
REMARK    4  A    between atoms: N_6  and  C_7
REMARK    5  A    between atoms: C_7  and  C_8
REMARK    6  A    between atoms: C_14  and  S_15
REMARK    7  A    between atoms: N_16  and  C_17
REMARK                            x       y       z     vdW  Elec       q    Type
REMARK                         _______ _______ _______ _____ _____    ______ ____
ROOT
ATOM      1  N   UNL     1       3.556   4.192  18.439  0.00  0.00    +0.000 N 
ATOM      2  C   UNL     1       3.350   5.569  18.602  0.00  0.00    +0.000 C 
ATOM      3  N   UNL     1       2.203   6.157  18.383  0.00  0.00    +0.000 NA
ENDROOT
BRANCH   3   4
ATOM      4  C   UNL     1       1.964   7.541  18.603  0.00  0.00    +0.000 A 
ATOM      5  C   UNL     1       2.110   8.485  17.572  0.00  0.00    +0.000 A 
ATOM      6  C   UNL     1       1.965   9.859  17.803  0.00  0.00    +0.000 A 
ATOM      7  C   UNL     1       1.571  10.319  19.054  0.00  0.00    +0.000 A 
ATOM      8  C   UNL     1       1.320   9.398  20.068  0.00  0.00    +0.000 A 
ATOM      9  C   UNL     1       1.523   8.026  19.851  0.00  0.00    +0.000 A 
ATOM     10 CL   UNL     1       1.192   6.961  21.174  0.00  0.00    +0.000 Cl
ENDBRANCH   3   4
BRANCH   1  12
ATOM     11  C   UNL     1       2.462   2.006  17.699  0.00  0.00    +0.000 C 
ATOM     12  C   UNL     1       2.513   3.164  18.691  0.00  0.00    +0.000 C 
BRANCH  12  13
ATOM     13  C   UNL     1       2.410   2.663  20.120  0.00  0.00    +0.000 C 
ATOM     14  C   UNL     1       2.467   3.600  21.302  0.00  0.00    +0.000 C 
ATOM     15  C   UNL     1       1.211   2.829  21.029  0.00  0.00    +0.000 C 
ENDBRANCH  12  13
ENDBRANCH   1  12
BRANCH   2  16
ATOM     16  S   UNL     1       4.760   6.515  19.163  0.00  0.00    +0.000 S 
ATOM     17  H   UNL     1       4.273   6.760  20.385  0.00  0.00    +0.000 HD
ENDBRANCH   2  16
BRANCH   1  18
ATOM     18  C   UNL     1       4.887   3.617  18.155  0.00  0.00    +0.000 C 
BRANCH  18  19
ATOM     19  C   UNL     1       5.550   4.081  16.870  0.00  0.00    +0.000 A 
ATOM     20  C   UNL     1       6.875   4.539  16.823  0.00  0.00    +0.000 A 
ATOM     21  C   UNL     1       7.465   4.902  15.612  0.00  0.00    +0.000 A 
ATOM     22  C   UNL     1       6.740   4.816  14.427  0.00  0.00    +0.000 A 
ATOM     23  C   UNL     1       5.417   4.382  14.455  0.00  0.00    +0.000 A 
ATOM     24  C   UNL     1       4.827   4.013  15.666  0.00  0.00    +0.000 A 
ENDBRANCH  18  19
ENDBRANCH   1  18
TORSDOF 6
ENDMDL
MODEL 8
REMARK VINA RESULT:      -5.8      2.755      4.962
REMARK  Name = 
REMARK  7 active torsions:
REMARK  status: ('A' for Active; 'I' for Inactive)
REMARK    1  A    between atoms: C_1  and  C_2
REMARK    2  A    between atoms: C_2  and  C_3
REMARK    3  A    between atoms: C_2  and  N_6
REMARK    4  A    between atoms: N_6  and  C_7
REMARK    5  A    between atoms: C_7  and  C_8
REMARK    6  A    between atoms: C_14  and  S_15
REMARK    7  A    between atoms: N_16  and  C_17
REMARK                            x       y       z     vdW  Elec       q    Type
REMARK                         _______ _______ _______ _____ _____    ______ ____
ROOT
ATOM      1  N   UNL     1       3.534   4.200  18.468  0.00  0.00    +0.000 N 
ATOM      2  C   UNL     1       3.337   5.580  18.617  0.00  0.00    +0.000 C 
ATOM      3  N   UNL     1       2.194   6.173  18.393  0.00  0.00    +0.000 NA
ENDROOT
BRANCH   3   4
ATOM      4  C   UNL     1       1.963   7.560  18.599  0.00  0.00    +0.000 A 
ATOM      5  C   UNL     1       2.135   8.496  17.564  0.00  0.00    +0.000 A 
ATOM      6  C   UNL     1       1.998   9.872  17.784  0.00  0.00    +0.000 A 
ATOM      7  C   UNL     1       1.587  10.345  19.025  0.00  0.00    +0.000 A 
ATOM      8  C   UNL     1       1.311   9.433  20.040  0.00  0.00    +0.000 A 
ATOM      9  C   UNL     1       1.504   8.058  19.835  0.00  0.00    +0.000 A 
ATOM     10 CL   UNL     1       1.141   7.005  21.159  0.00  0.00    +0.000 Cl
ENDBRANCH   3   4
BRANCH   1  12
ATOM     11  C   UNL     1       2.408   2.030  17.731  0.00  0.00    +0.000 C 
ATOM     12  C   UNL     1       2.485   3.181  18.730  0.00  0.00    +0.000 C 
BRANCH  12  13
ATOM     13  C   UNL     1       2.398   2.672  20.156  0.00  0.00    +0.000 C 
ATOM     14  C   UNL     1       2.461   3.604  21.343  0.00  0.00    +0.000 C 
ATOM     15  C   UNL     1       1.208   2.826  21.078  0.00  0.00    +0.000 C 
ENDBRANCH  12  13
ENDBRANCH   1  12
BRANCH   2  16
ATOM     16  S   UNL     1       4.752   6.523  19.169  0.00  0.00    +0.000 S 
ATOM     17  H   UNL     1       5.658   5.586  18.868  0.00  0.00    +0.000 HD
ENDBRANCH   2  16
BRANCH   1  18
ATOM     18  C   UNL     1       4.861   3.615  18.189  0.00  0.00    +0.000 C 
BRANCH  18  19
ATOM     19  C   UNL     1       5.503   4.019  16.873  0.00  0.00    +0.000 A 
ATOM     20  C   UNL     1       4.805   4.016  15.657  0.00  0.00    +0.000 A 
ATOM     21  C   UNL     1       5.415   4.449  14.479  0.00  0.00    +0.000 A 
ATOM     22  C   UNL     1       6.735   4.890  14.497  0.00  0.00    +0.000 A 
ATOM     23  C   UNL     1       7.452   4.882  15.691  0.00  0.00    +0.000 A 
ATOM     24  C   UNL     1       6.841   4.454  16.871  0.00  0.00    +0.000 A 
ENDBRANCH  18  19
ENDBRANCH   1  18
TORSDOF 6
ENDMDL
MODEL 9
REMARK VINA RESULT:      -5.8      3.001      7.166
REMARK  Name = 
REMARK  7 active torsions:
REMARK  status: ('A' for Active; 'I' for Inactive)
REMARK    1  A    between atoms: C_1  and  C_2
REMARK    2  A    between atoms: C_2  and  C_3
REMARK    3  A    between atoms: C_2  and  N_6
REMARK    4  A    between atoms: N_6  and  C_7
REMARK    5  A    between atoms: C_7  and  C_8
REMARK    6  A    between atoms: C_14  and  S_15
REMARK    7  A    between atoms: N_16  and  C_17
REMARK                            x       y       z     vdW  Elec       q    Type
REMARK                         _______ _______ _______ _____ _____    ______ ____
ROOT
ATOM      1  N   UNL     1       2.969   5.431  18.851  0.00  0.00    +0.000 N 
ATOM      2  C   UNL     1       3.922   5.442  17.824  0.00  0.00    +0.000 C 
ATOM      3  N   UNL     1       4.265   4.377  17.148  0.00  0.00    +0.000 NA
ENDROOT
BRANCH   3   4
ATOM      4  C   UNL     1       5.184   4.384  16.064  0.00  0.00    +0.000 A 
ATOM      5  C   UNL     1       4.747   4.346  14.728  0.00  0.00    +0.000 A 
ATOM      6  C   UNL     1       5.647   4.262  13.659  0.00  0.00    +0.000 A 
ATOM      7  C   UNL     1       7.017   4.314  13.892  0.00  0.00    +0.000 A 
ATOM      8  C   UNL     1       7.477   4.455  15.199  0.00  0.00    +0.000 A 
ATOM      9  C   UNL     1       6.575   4.481  16.274  0.00  0.00    +0.000 A 
ATOM     10 CL   UNL     1       7.244   4.651  17.861  0.00  0.00    +0.000 Cl
ENDBRANCH   3   4
BRANCH   1  12
ATOM     11  C   UNL     1       1.151   4.232  17.517  0.00  0.00    +0.000 C 
ATOM     12  C   UNL     1       1.785   4.533  18.872  0.00  0.00    +0.000 C 
BRANCH  12  13
ATOM     13  C   UNL     1       1.928   3.269  19.700  0.00  0.00    +0.000 C 
ATOM     14  C   UNL     1       2.784   3.219  20.941  0.00  0.00    +0.000 C 
ATOM     15  C   UNL     1       1.302   3.027  21.056  0.00  0.00    +0.000 C 
ENDBRANCH  12  13
ENDBRANCH   1  12
BRANCH   2  16
ATOM     16  S   UNL     1       4.657   7.028  17.447  0.00  0.00    +0.000 S 
ATOM     17  H   UNL     1       4.663   6.856  16.120  0.00  0.00    +0.000 HD
ENDBRANCH   2  16
BRANCH   1  18
ATOM     18  C   UNL     1       2.963   6.432  19.938  0.00  0.00    +0.000 C 
BRANCH  18  19
ATOM     19  C   UNL     1       2.074   7.644  19.720  0.00  0.00    +0.000 A 
ATOM     20  C   UNL     1       1.929   8.263  18.470  0.00  0.00    +0.000 A 
ATOM     21  C   UNL     1       1.058   9.339  18.300  0.00  0.00    +0.000 A 
ATOM     22  C   UNL     1       0.319   9.818  19.378  0.00  0.00    +0.000 A 
ATOM     23  C   UNL     1       0.465   9.231  20.632  0.00  0.00    +0.000 A 
ATOM     24  C   UNL     1       1.332   8.149  20.802  0.00  0.00    +0.000 A 
ENDBRANCH  18  19
ENDBRANCH   1  18
TORSDOF 6
ENDMDL
