MODEL 1
REMARK VINA RESULT:      -9.0      0.000      0.000
REMARK  Name = 
REMARK  6 active torsions:
REMARK  status: ('A' for Active; 'I' for Inactive)
REMARK    1  A    between atoms: C_2  and  C_3
REMARK    2  A    between atoms: N_5  and  C_6
REMARK    3  A    between atoms: C_11  and  C_12
REMARK    4  A    between atoms: C_20  and  C_21
REMARK    5  A    between atoms: C_26  and  O_27
REMARK    6  A    between atoms: O_27  and  C_28
REMARK                            x       y       z     vdW  Elec       q    Type
REMARK                         _______ _______ _______ _____ _____    ______ ____
ROOT
ATOM      1  C   UNL     1       2.750   6.542  18.153  0.00  0.00    +0.000 C 
ATOM      2  O   UNL     1       1.896   5.643  18.324  0.00  0.00    +0.000 OA
ATOM      3  N   UNL     1       2.494   8.162  18.223  0.00  0.00    +0.000 N 
ATOM      4  C   UNL     1       1.132   9.120  18.516  0.00  0.00    +0.000 A 
ATOM      5  N   UNL     1       1.397   9.829  19.564  0.00  0.00    +0.000 NA
ATOM      6  N   UNL     1       0.176  10.009  19.948  0.00  0.00    +0.000 N 
ATOM      7  C   UNL     1      -0.690  10.514  19.047  0.00  0.00    +0.000 A 
ATOM      8  C   UNL     1      -1.802  11.397  19.589  0.00  0.00    +0.000 A 
ATOM      9  C   UNL     1      -2.969  11.850  19.012  0.00  0.00    +0.000 A 
ATOM     10  C   UNL     1      -2.935  11.457  17.716  0.00  0.00    +0.000 A 
ATOM     11  C   UNL     1      -1.724  10.528  17.199  0.00  0.00    +0.000 A 
ATOM     12  C   UNL     1      -0.395   9.867  17.795  0.00  0.00    +0.000 A 
ATOM     13  H   UNL     1       3.205   8.486  18.843  0.00  0.00    +0.000 HD
ATOM     14  H   UNL     1      -0.131   9.437  20.684  0.00  0.00    +0.000 HD
ENDROOT
BRANCH   9  15
ATOM     15  C   UNL     1      -4.081  12.475  19.820  0.00  0.00    +0.000 A 
ATOM     16  C   UNL     1      -3.999  12.704  21.210  0.00  0.00    +0.000 A 
ATOM     17  C   UNL     1      -5.135  12.984  21.989  0.00  0.00    +0.000 A 
ATOM     18  F   UNL     1      -5.050  12.952  23.332  0.00  0.00    +0.000 F 
ATOM     19  C   UNL     1      -6.381  13.188  21.388  0.00  0.00    +0.000 A 
ATOM     20  C   UNL     1      -6.505  12.951  20.022  0.00  0.00    +0.000 A 
ATOM     21  C   UNL     1      -5.362  12.626  19.246  0.00  0.00    +0.000 A 
BRANCH  20  22
ATOM     22  O   UNL     1      -7.776  13.034  19.511  0.00  0.00    +0.000 OA
ATOM     23  C   UNL     1      -7.885  13.482  18.160  0.00  0.00    +0.000 C 
ENDBRANCH  20  22
ENDBRANCH   9  15
BRANCH   1  29
ATOM     24  C   UNL     1       5.044   5.015  18.410  0.00  0.00    +0.000 A 
ATOM     25  C   UNL     1       6.383   4.567  18.051  0.00  0.00    +0.000 A 
ATOM     26  C   UNL     1       7.026   4.949  16.877  0.00  0.00    +0.000 A 
ATOM     27  C   UNL     1       6.275   5.698  15.979  0.00  0.00    +0.000 A 
ATOM     28  C   UNL     1       4.946   6.180  16.345  0.00  0.00    +0.000 A 
ATOM     29  C   UNL     1       4.288   5.901  17.610  0.00  0.00    +0.000 A 
BRANCH  24  32
ATOM     30  C   UNL     1       3.849   3.224  19.495  0.00  0.00    +0.000 C 
ATOM     31  O   UNL     1       3.763   2.572  18.458  0.00  0.00    +0.000 OA
ATOM     32  N   UNL     1       4.476   4.463  19.567  0.00  0.00    +0.000 N 
ATOM     33  H   UNL     1       4.513   5.037  20.398  0.00  0.00    +0.000 HD
BRANCH  30  35
ATOM     34  C   UNL     1       2.004   3.520  21.054  0.00  0.00    +0.000 C 
ATOM     35  C   UNL     1       3.111   2.833  20.730  0.00  0.00    +0.000 C 
ENDBRANCH  30  35
ENDBRANCH  24  32
ENDBRANCH   1  29
TORSDOF 5
ENDMDL
MODEL 2
REMARK VINA RESULT:      -8.9      3.931     11.442
REMARK  Name = 
REMARK  6 active torsions:
REMARK  status: ('A' for Active; 'I' for Inactive)
REMARK    1  A    between atoms: C_2  and  C_3
REMARK    2  A    between atoms: N_5  and  C_6
REMARK    3  A    between atoms: C_11  and  C_12
REMARK    4  A    between atoms: C_20  and  C_21
REMARK    5  A    between atoms: C_26  and  O_27
REMARK    6  A    between atoms: O_27  and  C_28
REMARK                            x       y       z     vdW  Elec       q    Type
REMARK                         _______ _______ _______ _____ _____    ______ ____
ROOT
ATOM      1  C   UNL     1      -0.779  13.124  22.674  0.00  0.00    +0.000 C 
ATOM      2  O   UNL     1       0.289  13.770  22.571  0.00  0.00    +0.000 OA
ATOM      3  N   UNL     1      -1.061  11.605  22.120  0.00  0.00    +0.000 N 
ATOM      4  C   UNL     1      -0.122  10.468  21.293  0.00  0.00    +0.000 A 
ATOM      5  N   UNL     1      -0.058   9.421  22.048  0.00  0.00    +0.000 NA
ATOM      6  N   UNL     1       1.062   8.964  21.592  0.00  0.00    +0.000 N 
ATOM      7  C   UNL     1       1.165   8.787  20.259  0.00  0.00    +0.000 A 
ATOM      8  C   UNL     1       2.046   7.643  19.787  0.00  0.00    +0.000 A 
ATOM      9  C   UNL     1       2.566   7.345  18.546  0.00  0.00    +0.000 A 
ATOM     10  C   UNL     1       2.036   8.243  17.682  0.00  0.00    +0.000 A 
ATOM     11  C   UNL     1       1.101   9.431  18.243  0.00  0.00    +0.000 A 
ATOM     12  C   UNL     1       0.526   9.926  19.650  0.00  0.00    +0.000 A 
ATOM     13  H   UNL     1      -1.441  11.133  22.912  0.00  0.00    +0.000 HD
ATOM     14  H   UNL     1       1.855   9.140  22.144  0.00  0.00    +0.000 HD
ENDROOT
BRANCH   9  15
ATOM     15  C   UNL     1       3.660   6.322  18.351  0.00  0.00    +0.000 A 
ATOM     16  C   UNL     1       3.614   5.022  18.898  0.00  0.00    +0.000 A 
ATOM     17  C   UNL     1       4.756   4.206  18.977  0.00  0.00    +0.000 A 
ATOM     18  F   UNL     1       4.725   3.083  19.720  0.00  0.00    +0.000 F 
ATOM     19  C   UNL     1       5.959   4.599  18.385  0.00  0.00    +0.000 A 
ATOM     20  C   UNL     1       6.048   5.884  17.855  0.00  0.00    +0.000 A 
ATOM     21  C   UNL     1       4.903   6.721  17.816  0.00  0.00    +0.000 A 
BRANCH  20  22
ATOM     22  O   UNL     1       7.289   6.265  17.411  0.00  0.00    +0.000 OA
ATOM     23  C   UNL     1       7.579   7.662  17.472  0.00  0.00    +0.000 C 
ENDBRANCH  20  22
ENDBRANCH   9  15
BRANCH   1  29
ATOM     24  C   UNL     1      -3.164  14.520  22.512  0.00  0.00    +0.000 A 
ATOM     25  C   UNL     1      -4.194  15.439  22.979  0.00  0.00    +0.000 A 
ATOM     26  C   UNL     1      -4.222  15.961  24.269  0.00  0.00    +0.000 A 
ATOM     27  C   UNL     1      -3.273  15.466  25.155  0.00  0.00    +0.000 A 
ATOM     28  C   UNL     1      -2.216  14.573  24.687  0.00  0.00    +0.000 A 
ATOM     29  C   UNL     1      -2.084  14.099  23.320  0.00  0.00    +0.000 A 
BRANCH  24  32
ATOM     30  C   UNL     1      -4.163  12.895  21.038  0.00  0.00    +0.000 C 
ATOM     31  O   UNL     1      -4.789  12.363  21.950  0.00  0.00    +0.000 OA
ATOM     32  N   UNL     1      -3.321  13.986  21.226  0.00  0.00    +0.000 N 
ATOM     33  H   UNL     1      -2.760  14.406  20.498  0.00  0.00    +0.000 HD
BRANCH  30  35
ATOM     34  C   UNL     1      -2.887  12.091  19.128  0.00  0.00    +0.000 C 
ATOM     35  C   UNL     1      -4.096  12.291  19.676  0.00  0.00    +0.000 C 
ENDBRANCH  30  35
ENDBRANCH  24  32
ENDBRANCH   1  29
TORSDOF 5
ENDMDL
MODEL 3
REMARK VINA RESULT:      -8.8      3.970     11.516
REMARK  Name = 
REMARK  6 active torsions:
REMARK  status: ('A' for Active; 'I' for Inactive)
REMARK    1  A    between atoms: C_2  and  C_3
REMARK    2  A    between atoms: N_5  and  C_6
REMARK    3  A    between atoms: C_11  and  C_12
REMARK    4  A    between atoms: C_20  and  C_21
REMARK    5  A    between atoms: C_26  and  O_27
REMARK    6  A    between atoms: O_27  and  C_28
REMARK                            x       y       z     vdW  Elec       q    Type
REMARK                         _______ _______ _______ _____ _____    ______ ____
ROOT
ATOM      1  C   UNL     1      -0.796  13.372  22.732  0.00  0.00    +0.000 C 
ATOM      2  O   UNL     1       0.253  14.037  22.574  0.00  0.00    +0.000 OA
ATOM      3  N   UNL     1      -1.072  11.840  22.214  0.00  0.00    +0.000 N 
ATOM      4  C   UNL     1      -0.147  10.708  21.363  0.00  0.00    +0.000 A 
ATOM      5  N   UNL     1      -0.029   9.674  22.129  0.00  0.00    +0.000 NA
ATOM      6  N   UNL     1       1.079   9.232  21.631  0.00  0.00    +0.000 N 
ATOM      7  C   UNL     1       1.126   9.037  20.298  0.00  0.00    +0.000 A 
ATOM      8  C   UNL     1       2.009   7.903  19.805  0.00  0.00    +0.000 A 
ATOM      9  C   UNL     1       2.480   7.596  18.547  0.00  0.00    +0.000 A 
ATOM     10  C   UNL     1       1.894   8.471  17.693  0.00  0.00    +0.000 A 
ATOM     11  C   UNL     1       0.962   9.648  18.277  0.00  0.00    +0.000 A 
ATOM     12  C   UNL     1       0.438  10.154  19.701  0.00  0.00    +0.000 A 
ATOM     13  H   UNL     1      -1.407  11.372  23.029  0.00  0.00    +0.000 HD
ATOM     14  H   UNL     1       1.891   9.432  22.145  0.00  0.00    +0.000 HD
ENDROOT
BRANCH   9  15
ATOM     15  C   UNL     1       3.584   6.591  18.319  0.00  0.00    +0.000 A 
ATOM     16  C   UNL     1       4.366   6.549  17.144  0.00  0.00    +0.000 A 
ATOM     17  C   UNL     1       5.157   5.434  16.815  0.00  0.00    +0.000 A 
ATOM     18  F   UNL     1       5.686   5.331  15.582  0.00  0.00    +0.000 F 
ATOM     19  C   UNL     1       5.311   4.376  17.715  0.00  0.00    +0.000 A 
ATOM     20  C   UNL     1       4.540   4.374  18.874  0.00  0.00    +0.000 A 
ATOM     21  C   UNL     1       3.709   5.482  19.181  0.00  0.00    +0.000 A 
BRANCH  20  22
ATOM     22  O   UNL     1       4.630   3.247  19.653  0.00  0.00    +0.000 OA
ATOM     23  C   UNL     1       3.875   2.117  19.216  0.00  0.00    +0.000 C 
ENDBRANCH  20  22
ENDBRANCH   9  15
BRANCH   1  29
ATOM     24  C   UNL     1      -3.195  14.750  22.646  0.00  0.00    +0.000 A 
ATOM     25  C   UNL     1      -4.220  15.657  23.148  0.00  0.00    +0.000 A 
ATOM     26  C   UNL     1      -4.217  16.169  24.442  0.00  0.00    +0.000 A 
ATOM     27  C   UNL     1      -3.240  15.676  25.298  0.00  0.00    +0.000 A 
ATOM     28  C   UNL     1      -2.190  14.795  24.795  0.00  0.00    +0.000 A 
ATOM     29  C   UNL     1      -2.091  14.331  23.422  0.00  0.00    +0.000 A 
BRANCH  24  32
ATOM     30  C   UNL     1      -4.178  13.095  21.195  0.00  0.00    +0.000 C 
ATOM     31  O   UNL     1      -4.735  12.521  22.126  0.00  0.00    +0.000 OA
ATOM     32  N   UNL     1      -3.383  14.224  21.360  0.00  0.00    +0.000 N 
ATOM     33  H   UNL     1      -2.877  14.681  20.615  0.00  0.00    +0.000 HD
BRANCH  30  35
ATOM     34  C   UNL     1      -5.299  12.124  19.265  0.00  0.00    +0.000 C 
ATOM     35  C   UNL     1      -4.141  12.511  19.823  0.00  0.00    +0.000 C 
ENDBRANCH  30  35
ENDBRANCH  24  32
ENDBRANCH   1  29
TORSDOF 5
ENDMDL
MODEL 4
REMARK VINA RESULT:      -8.8      1.699      1.938
REMARK  Name = 
REMARK  6 active torsions:
REMARK  status: ('A' for Active; 'I' for Inactive)
REMARK    1  A    between atoms: C_2  and  C_3
REMARK    2  A    between atoms: N_5  and  C_6
REMARK    3  A    between atoms: C_11  and  C_12
REMARK    4  A    between atoms: C_20  and  C_21
REMARK    5  A    between atoms: C_26  and  O_27
REMARK    6  A    between atoms: O_27  and  C_28
REMARK                            x       y       z     vdW  Elec       q    Type
REMARK                         _______ _______ _______ _____ _____    ______ ____
ROOT
ATOM      1  C   UNL     1       2.446   6.490  18.256  0.00  0.00    +0.000 C 
ATOM      2  O   UNL     1       1.419   5.997  17.735  0.00  0.00    +0.000 OA
ATOM      3  N   UNL     1       2.510   7.801  19.240  0.00  0.00    +0.000 N 
ATOM      4  C   UNL     1       1.346   8.865  19.851  0.00  0.00    +0.000 A 
ATOM      5  N   UNL     1       1.402   8.775  21.140  0.00  0.00    +0.000 NA
ATOM      6  N   UNL     1       0.184   9.137  21.378  0.00  0.00    +0.000 N 
ATOM      7  C   UNL     1      -0.233  10.303  20.845  0.00  0.00    +0.000 A 
ATOM      8  C   UNL     1      -1.260  11.090  21.643  0.00  0.00    +0.000 A 
ATOM      9  C   UNL     1      -2.068  12.149  21.292  0.00  0.00    +0.000 A 
ATOM     10  C   UNL     1      -1.705  12.511  20.038  0.00  0.00    +0.000 A 
ATOM     11  C   UNL     1      -0.604  11.640  19.246  0.00  0.00    +0.000 A 
ATOM     12  C   UNL     1       0.307  10.353  19.511  0.00  0.00    +0.000 A 
ATOM     13  H   UNL     1       3.037   7.482  20.024  0.00  0.00    +0.000 HD
ATOM     14  H   UNL     1      -0.448   8.413  21.576  0.00  0.00    +0.000 HD
ENDROOT
BRANCH   9  15
ATOM     15  C   UNL     1      -3.230  12.598  22.146  0.00  0.00    +0.000 A 
ATOM     16  C   UNL     1      -3.219  12.556  23.557  0.00  0.00    +0.000 A 
ATOM     17  C   UNL     1      -4.397  12.671  24.316  0.00  0.00    +0.000 A 
ATOM     18  F   UNL     1      -4.377  12.382  25.630  0.00  0.00    +0.000 F 
ATOM     19  C   UNL     1      -5.616  12.975  23.702  0.00  0.00    +0.000 A 
ATOM     20  C   UNL     1      -5.669  13.003  22.311  0.00  0.00    +0.000 A 
ATOM     21  C   UNL     1      -4.484  12.843  21.548  0.00  0.00    +0.000 A 
BRANCH  20  22
ATOM     22  O   UNL     1      -6.916  13.171  21.761  0.00  0.00    +0.000 OA
ATOM     23  C   UNL     1      -7.781  12.036  21.804  0.00  0.00    +0.000 C 
ENDBRANCH  20  22
ENDBRANCH   9  15
BRANCH   1  29
ATOM     24  C   UNL     1       4.396   4.527  18.196  0.00  0.00    +0.000 A 
ATOM     25  C   UNL     1       5.678   3.946  17.821  0.00  0.00    +0.000 A 
ATOM     26  C   UNL     1       6.531   4.522  16.883  0.00  0.00    +0.000 A 
ATOM     27  C   UNL     1       6.045   5.638  16.213  0.00  0.00    +0.000 A 
ATOM     28  C   UNL     1       4.778   6.246  16.606  0.00  0.00    +0.000 A 
ATOM     29  C   UNL     1       3.915   5.743  17.661  0.00  0.00    +0.000 A 
BRANCH  24  32
ATOM     30  C   UNL     1       2.695   2.856  18.549  0.00  0.00    +0.000 C 
ATOM     31  O   UNL     1       2.566   2.645  17.346  0.00  0.00    +0.000 OA
ATOM     32  N   UNL     1       3.590   3.783  19.070  0.00  0.00    +0.000 N 
ATOM     33  H   UNL     1       3.675   4.006  20.052  0.00  0.00    +0.000 HD
BRANCH  30  35
ATOM     34  C   UNL     1       1.204   3.097  20.458  0.00  0.00    +0.000 C 
ATOM     35  C   UNL     1       1.755   2.275  19.551  0.00  0.00    +0.000 C 
ENDBRANCH  30  35
ENDBRANCH  24  32
ENDBRANCH   1  29
TORSDOF 5
ENDMDL
MODEL 5
REMARK VINA RESULT:      -8.8      1.322      1.451
REMARK  Name = 
REMARK  6 active torsions:
REMARK  status: ('A' for Active; 'I' for Inactive)
REMARK    1  A    between atoms: C_2  and  C_3
REMARK    2  A    between atoms: N_5  and  C_6
REMARK    3  A    between atoms: C_11  and  C_12
REMARK    4  A    between atoms: C_20  and  C_21
REMARK    5  A    between atoms: C_26  and  O_27
REMARK    6  A    between atoms: O_27  and  C_28
REMARK                            x       y       z     vdW  Elec       q    Type
REMARK                         _______ _______ _______ _____ _____    ______ ____
ROOT
ATOM      1  C   UNL     1       2.912   6.939  18.203  0.00  0.00    +0.000 C 
ATOM      2  O   UNL     1       2.338   6.166  19.003  0.00  0.00    +0.000 OA
ATOM      3  N   UNL     1       2.398   8.428  17.742  0.00  0.00    +0.000 N 
ATOM      4  C   UNL     1       1.049   9.372  18.128  0.00  0.00    +0.000 A 
ATOM      5  N   UNL     1       1.500  10.465  18.651  0.00  0.00    +0.000 NA
ATOM      6  N   UNL     1       0.454  10.746  19.357  0.00  0.00    +0.000 N 
ATOM      7  C   UNL     1      -0.732  10.795  18.718  0.00  0.00    +0.000 A 
ATOM      8  C   UNL     1      -1.755  11.783  19.252  0.00  0.00    +0.000 A 
ATOM      9  C   UNL     1      -3.107  11.911  19.018  0.00  0.00    +0.000 A 
ATOM     10  C   UNL     1      -3.417  11.011  18.054  0.00  0.00    +0.000 A 
ATOM     11  C   UNL     1      -2.285   9.994  17.523  0.00  0.00    +0.000 A 
ATOM     12  C   UNL     1      -0.738   9.692  17.792  0.00  0.00    +0.000 A 
ATOM     13  H   UNL     1       3.197   9.007  17.885  0.00  0.00    +0.000 HD
ATOM     14  H   UNL     1       0.508  10.525  20.312  0.00  0.00    +0.000 HD
ENDROOT
BRANCH   9  15
ATOM     15  C   UNL     1      -3.999  12.778  19.875  0.00  0.00    +0.000 A 
ATOM     16  C   UNL     1      -3.507  13.706  20.818  0.00  0.00    +0.000 A 
ATOM     17  C   UNL     1      -4.327  14.263  21.815  0.00  0.00    +0.000 A 
ATOM     18  F   UNL     1      -3.772  14.944  22.834  0.00  0.00    +0.000 F 
ATOM     19  C   UNL     1      -5.705  14.026  21.822  0.00  0.00    +0.000 A 
ATOM     20  C   UNL     1      -6.223  13.100  20.920  0.00  0.00    +0.000 A 
ATOM     21  C   UNL     1      -5.382  12.507  19.943  0.00  0.00    +0.000 A 
BRANCH  20  22
ATOM     22  O   UNL     1      -7.556  12.805  21.062  0.00  0.00    +0.000 OA
ATOM     23  C   UNL     1      -7.916  12.057  22.223  0.00  0.00    +0.000 C 
ENDBRANCH  20  22
ENDBRANCH   9  15
BRANCH   1  29
ATOM     24  C   UNL     1       4.366   4.782  17.258  0.00  0.00    +0.000 A 
ATOM     25  C   UNL     1       5.548   4.109  16.735  0.00  0.00    +0.000 A 
ATOM     26  C   UNL     1       6.692   4.788  16.324  0.00  0.00    +0.000 A 
ATOM     27  C   UNL     1       6.617   6.175  16.320  0.00  0.00    +0.000 A 
ATOM     28  C   UNL     1       5.451   6.857  16.874  0.00  0.00    +0.000 A 
ATOM     29  C   UNL     1       4.286   6.183  17.421  0.00  0.00    +0.000 A 
BRANCH  24  32
ATOM     30  C   UNL     1       3.280   3.101  18.602  0.00  0.00    +0.000 C 
ATOM     31  O   UNL     1       4.252   2.977  19.341  0.00  0.00    +0.000 OA
ATOM     32  N   UNL     1       3.246   3.984  17.528  0.00  0.00    +0.000 N 
ATOM     33  H   UNL     1       2.476   4.063  16.879  0.00  0.00    +0.000 HD
BRANCH  30  35
ATOM     34  C   UNL     1       0.882   2.685  18.638  0.00  0.00    +0.000 C 
ATOM     35  C   UNL     1       2.119   2.166  18.670  0.00  0.00    +0.000 C 
ENDBRANCH  30  35
ENDBRANCH  24  32
ENDBRANCH   1  29
TORSDOF 5
ENDMDL
MODEL 6
REMARK VINA RESULT:      -8.7      4.414     11.777
REMARK  Name = 
REMARK  6 active torsions:
REMARK  status: ('A' for Active; 'I' for Inactive)
REMARK    1  A    between atoms: C_2  and  C_3
REMARK    2  A    between atoms: N_5  and  C_6
REMARK    3  A    between atoms: C_11  and  C_12
REMARK    4  A    between atoms: C_20  and  C_21
REMARK    5  A    between atoms: C_26  and  O_27
REMARK    6  A    between atoms: O_27  and  C_28
REMARK                            x       y       z     vdW  Elec       q    Type
REMARK                         _______ _______ _______ _____ _____    ______ ____
ROOT
ATOM      1  C   UNL     1      -0.717  11.815  22.106  0.00  0.00    +0.000 C 
ATOM      2  O   UNL     1       0.274  12.578  22.164  0.00  0.00    +0.000 OA
ATOM      3  N   UNL     1      -0.760  10.317  21.437  0.00  0.00    +0.000 N 
ATOM      4  C   UNL     1       0.387   9.350  20.658  0.00  0.00    +0.000 A 
ATOM      5  N   UNL     1       0.490   8.265  21.354  0.00  0.00    +0.000 NA
ATOM      6  N   UNL     1       1.698   7.965  21.004  0.00  0.00    +0.000 N 
ATOM      7  C   UNL     1       1.963   7.895  19.684  0.00  0.00    +0.000 A 
ATOM      8  C   UNL     1       3.015   6.889  19.251  0.00  0.00    +0.000 A 
ATOM      9  C   UNL     1       3.697   6.737  18.063  0.00  0.00    +0.000 A 
ATOM     10  C   UNL     1       3.162   7.631  17.196  0.00  0.00    +0.000 A 
ATOM     11  C   UNL     1       2.042   8.668  17.714  0.00  0.00    +0.000 A 
ATOM     12  C   UNL     1       1.265   8.998  19.072  0.00  0.00    +0.000 A 
ATOM     13  H   UNL     1      -1.166   9.752  22.151  0.00  0.00    +0.000 HD
ATOM     14  H   UNL     1       2.401   8.187  21.652  0.00  0.00    +0.000 HD
ENDROOT
BRANCH   9  15
ATOM     15  C   UNL     1       4.916   5.855  17.936  0.00  0.00    +0.000 A 
ATOM     16  C   UNL     1       5.992   5.880  18.848  0.00  0.00    +0.000 A 
ATOM     17  C   UNL     1       7.237   5.298  18.550  0.00  0.00    +0.000 A 
ATOM     18  F   UNL     1       8.300   5.556  19.334  0.00  0.00    +0.000 F 
ATOM     19  C   UNL     1       7.413   4.544  17.387  0.00  0.00    +0.000 A 
ATOM     20  C   UNL     1       6.380   4.514  16.453  0.00  0.00    +0.000 A 
ATOM     21  C   UNL     1       5.140   5.139  16.740  0.00  0.00    +0.000 A 
BRANCH  20  22
ATOM     22  O   UNL     1       6.658   3.872  15.272  0.00  0.00    +0.000 OA
ATOM     23  C   UNL     1       6.931   4.710  14.149  0.00  0.00    +0.000 C 
ENDBRANCH  20  22
ENDBRANCH   9  15
BRANCH   1  29
ATOM     24  C   UNL     1      -2.654  13.792  22.065  0.00  0.00    +0.000 A 
ATOM     25  C   UNL     1      -3.795  14.538  22.579  0.00  0.00    +0.000 A 
ATOM     26  C   UNL     1      -4.543  14.126  23.679  0.00  0.00    +0.000 A 
ATOM     27  C   UNL     1      -4.225  12.881  24.207  0.00  0.00    +0.000 A 
ATOM     28  C   UNL     1      -3.063  12.143  23.721  0.00  0.00    +0.000 A 
ATOM     29  C   UNL     1      -2.187  12.595  22.654  0.00  0.00    +0.000 A 
BRANCH  24  32
ATOM     30  C   UNL     1      -1.169  15.328  20.948  0.00  0.00    +0.000 C 
ATOM     31  O   UNL     1      -0.861  15.887  21.997  0.00  0.00    +0.000 OA
ATOM     32  N   UNL     1      -2.063  14.264  20.885  0.00  0.00    +0.000 N 
ATOM     33  H   UNL     1      -2.367  13.825  20.028  0.00  0.00    +0.000 HD
BRANCH  30  35
ATOM     34  C   UNL     1      -0.064  15.078  18.794  0.00  0.00    +0.000 C 
ATOM     35  C   UNL     1      -0.762  15.872  19.620  0.00  0.00    +0.000 C 
ENDBRANCH  30  35
ENDBRANCH  24  32
ENDBRANCH   1  29
TORSDOF 5
ENDMDL
MODEL 7
REMARK VINA RESULT:      -8.7      1.780      2.230
REMARK  Name = 
REMARK  6 active torsions:
REMARK  status: ('A' for Active; 'I' for Inactive)
REMARK    1  A    between atoms: C_2  and  C_3
REMARK    2  A    between atoms: N_5  and  C_6
REMARK    3  A    between atoms: C_11  and  C_12
REMARK    4  A    between atoms: C_20  and  C_21
REMARK    5  A    between atoms: C_26  and  O_27
REMARK    6  A    between atoms: O_27  and  C_28
REMARK                            x       y       z     vdW  Elec       q    Type
REMARK                         _______ _______ _______ _____ _____    ______ ____
ROOT
ATOM      1  C   UNL     1       2.990   6.995  18.294  0.00  0.00    +0.000 C 
ATOM      2  O   UNL     1       2.380   6.152  18.990  0.00  0.00    +0.000 OA
ATOM      3  N   UNL     1       2.431   8.464  17.824  0.00  0.00    +0.000 N 
ATOM      4  C   UNL     1       0.982   9.299  18.070  0.00  0.00    +0.000 A 
ATOM      5  N   UNL     1       1.285  10.396  18.682  0.00  0.00    +0.000 NA
ATOM      6  N   UNL     1       0.144  10.577  19.262  0.00  0.00    +0.000 N 
ATOM      7  C   UNL     1      -0.956  10.573  18.483  0.00  0.00    +0.000 A 
ATOM      8  C   UNL     1      -2.104  11.468  18.918  0.00  0.00    +0.000 A 
ATOM      9  C   UNL     1      -3.424  11.514  18.522  0.00  0.00    +0.000 A 
ATOM     10  C   UNL     1      -3.548  10.637  17.497  0.00  0.00    +0.000 A 
ATOM     11  C   UNL     1      -2.291   9.722  17.077  0.00  0.00    +0.000 A 
ATOM     12  C   UNL     1      -0.770   9.512  17.526  0.00  0.00    +0.000 A 
ATOM     13  H   UNL     1       3.163   9.089  18.085  0.00  0.00    +0.000 HD
ATOM     14  H   UNL     1       0.097  10.320  20.208  0.00  0.00    +0.000 HD
ENDROOT
BRANCH   9  15
ATOM     15  C   UNL     1      -4.473  12.283  19.290  0.00  0.00    +0.000 A 
ATOM     16  C   UNL     1      -5.727  12.637  18.750  0.00  0.00    +0.000 A 
ATOM     17  C   UNL     1      -6.550  13.607  19.349  0.00  0.00    +0.000 A 
ATOM     18  F   UNL     1      -7.612  14.091  18.678  0.00  0.00    +0.000 F 
ATOM     19  C   UNL     1      -6.217  14.160  20.590  0.00  0.00    +0.000 A 
ATOM     20  C   UNL     1      -4.978  13.849  21.143  0.00  0.00    +0.000 A 
ATOM     21  C   UNL     1      -4.131  12.901  20.512  0.00  0.00    +0.000 A 
BRANCH  20  22
ATOM     22  O   UNL     1      -4.647  14.524  22.292  0.00  0.00    +0.000 OA
ATOM     23  C   UNL     1      -3.437  15.280  22.252  0.00  0.00    +0.000 C 
ENDBRANCH  20  22
ENDBRANCH   9  15
BRANCH   1  29
ATOM     24  C   UNL     1       4.643   5.007  17.304  0.00  0.00    +0.000 A 
ATOM     25  C   UNL     1       5.916   4.422  16.905  0.00  0.00    +0.000 A 
ATOM     26  C   UNL     1       7.097   5.152  16.815  0.00  0.00    +0.000 A 
ATOM     27  C   UNL     1       6.989   6.524  17.011  0.00  0.00    +0.000 A 
ATOM     28  C   UNL     1       5.726   7.114  17.445  0.00  0.00    +0.000 A 
ATOM     29  C   UNL     1       4.500   6.366  17.664  0.00  0.00    +0.000 A 
BRANCH  24  32
ATOM     30  C   UNL     1       3.328   3.206  18.219  0.00  0.00    +0.000 C 
ATOM     31  O   UNL     1       4.110   3.025  19.148  0.00  0.00    +0.000 OA
ATOM     32  N   UNL     1       3.513   4.180  17.244  0.00  0.00    +0.000 N 
ATOM     33  H   UNL     1       2.909   4.311  16.445  0.00  0.00    +0.000 HD
BRANCH  30  35
ATOM     34  C   UNL     1       1.041   2.452  18.575  0.00  0.00    +0.000 C 
ATOM     35  C   UNL     1       2.208   2.260  17.941  0.00  0.00    +0.000 C 
ENDBRANCH  30  35
ENDBRANCH  24  32
ENDBRANCH   1  29
TORSDOF 5
ENDMDL
MODEL 8
REMARK VINA RESULT:      -8.7      3.639     11.561
REMARK  Name = 
REMARK  6 active torsions:
REMARK  status: ('A' for Active; 'I' for Inactive)
REMARK    1  A    between atoms: C_2  and  C_3
REMARK    2  A    between atoms: N_5  and  C_6
REMARK    3  A    between atoms: C_11  and  C_12
REMARK    4  A    between atoms: C_20  and  C_21
REMARK    5  A    between atoms: C_26  and  O_27
REMARK    6  A    between atoms: O_27  and  C_28
REMARK                            x       y       z     vdW  Elec       q    Type
REMARK                         _______ _______ _______ _____ _____    ______ ____
ROOT
ATOM      1  C   UNL     1      -4.691  12.400  19.384  0.00  0.00    +0.000 C 
ATOM      2  O   UNL     1      -5.337  11.327  19.394  0.00  0.00    +0.000 OA
ATOM      3  N   UNL     1      -3.068  12.563  19.205  0.00  0.00    +0.000 N 
ATOM      4  C   UNL     1      -1.798  11.467  18.994  0.00  0.00    +0.000 A 
ATOM      5  N   UNL     1      -1.240  11.760  17.865  0.00  0.00    +0.000 NA
ATOM      6  N   UNL     1      -0.761  10.585  17.615  0.00  0.00    +0.000 N 
ATOM      7  C   UNL     1       0.004  10.011  18.565  0.00  0.00    +0.000 A 
ATOM      8  C   UNL     1       1.121   9.101  18.085  0.00  0.00    +0.000 A 
ATOM      9  C   UNL     1       1.900   8.182  18.756  0.00  0.00    +0.000 A 
ATOM     10  C   UNL     1       1.580   8.292  20.068  0.00  0.00    +0.000 A 
ATOM     11  C   UNL     1       0.389   9.282  20.515  0.00  0.00    +0.000 A 
ATOM     12  C   UNL     1      -0.633  10.300  19.825  0.00  0.00    +0.000 A 
ATOM     13  H   UNL     1      -2.979  13.240  18.478  0.00  0.00    +0.000 HD
ATOM     14  H   UNL     1      -1.268  10.042  16.973  0.00  0.00    +0.000 HD
ENDROOT
BRANCH   9  15
ATOM     15  C   UNL     1       2.757   7.168  18.035  0.00  0.00    +0.000 A 
ATOM     16  C   UNL     1       2.545   5.775  18.115  0.00  0.00    +0.000 A 
ATOM     17  C   UNL     1       3.521   4.848  17.710  0.00  0.00    +0.000 A 
ATOM     18  F   UNL     1       3.382   3.548  18.028  0.00  0.00    +0.000 F 
ATOM     19  C   UNL     1       4.691   5.274  17.074  0.00  0.00    +0.000 A 
ATOM     20  C   UNL     1       4.943   6.641  16.996  0.00  0.00    +0.000 A 
ATOM     21  C   UNL     1       3.973   7.573  17.447  0.00  0.00    +0.000 A 
BRANCH  20  22
ATOM     22  O   UNL     1       6.167   6.998  16.486  0.00  0.00    +0.000 OA
ATOM     23  C   UNL     1       7.092   7.570  17.410  0.00  0.00    +0.000 C 
ENDBRANCH  20  22
ENDBRANCH   9  15
BRANCH   1  29
ATOM     24  C   UNL     1      -5.655  14.364  21.079  0.00  0.00    +0.000 A 
ATOM     25  C   UNL     1      -6.565  15.423  21.495  0.00  0.00    +0.000 A 
ATOM     26  C   UNL     1      -7.532  15.972  20.657  0.00  0.00    +0.000 A 
ATOM     27  C   UNL     1      -7.516  15.543  19.336  0.00  0.00    +0.000 A 
ATOM     28  C   UNL     1      -6.632  14.458  18.918  0.00  0.00    +0.000 A 
ATOM     29  C   UNL     1      -5.691  13.779  19.793  0.00  0.00    +0.000 A 
BRANCH  24  32
ATOM     30  C   UNL     1      -4.906  12.940  22.874  0.00  0.00    +0.000 C 
ATOM     31  O   UNL     1      -5.965  12.319  22.905  0.00  0.00    +0.000 OA
ATOM     32  N   UNL     1      -4.659  13.984  21.989  0.00  0.00    +0.000 N 
ATOM     33  H   UNL     1      -3.815  14.539  21.982  0.00  0.00    +0.000 HD
BRANCH  30  35
ATOM     34  C   UNL     1      -2.601  13.122  23.634  0.00  0.00    +0.000 C 
ATOM     35  C   UNL     1      -3.860  12.759  23.923  0.00  0.00    +0.000 C 
ENDBRANCH  30  35
ENDBRANCH  24  32
ENDBRANCH   1  29
TORSDOF 5
ENDMDL
MODEL 9
REMARK VINA RESULT:      -8.7      4.348      5.650
REMARK  Name = 
REMARK  6 active torsions:
REMARK  status: ('A' for Active; 'I' for Inactive)
REMARK    1  A    between atoms: C_2  and  C_3
REMARK    2  A    between atoms: N_5  and  C_6
REMARK    3  A    between atoms: C_11  and  C_12
REMARK    4  A    between atoms: C_20  and  C_21
REMARK    5  A    between atoms: C_26  and  O_27
REMARK    6  A    between atoms: O_27  and  C_28
REMARK                            x       y       z     vdW  Elec       q    Type
REMARK                         _______ _______ _______ _____ _____    ______ ____
ROOT
ATOM      1  C   UNL     1       2.489   6.509  19.246  0.00  0.00    +0.000 C 
ATOM      2  O   UNL     1       2.834   6.707  20.433  0.00  0.00    +0.000 OA
ATOM      3  N   UNL     1       1.854   7.616  18.215  0.00  0.00    +0.000 N 
ATOM      4  C   UNL     1       1.466   9.256  18.352  0.00  0.00    +0.000 A 
ATOM      5  N   UNL     1       2.172   9.879  17.466  0.00  0.00    +0.000 NA
ATOM      6  N   UNL     1       2.204  11.025  18.064  0.00  0.00    +0.000 N 
ATOM      7  C   UNL     1       1.025  11.569  18.427  0.00  0.00    +0.000 A 
ATOM      8  C   UNL     1       0.939  13.086  18.411  0.00  0.00    +0.000 A 
ATOM      9  C   UNL     1       0.012  13.952  18.949  0.00  0.00    +0.000 A 
ATOM     10  C   UNL     1      -0.984  13.184  19.452  0.00  0.00    +0.000 A 
ATOM     11  C   UNL     1      -0.838  11.579  19.434  0.00  0.00    +0.000 A 
ATOM     12  C   UNL     1       0.221  10.488  18.938  0.00  0.00    +0.000 A 
ATOM     13  H   UNL     1       2.419   7.529  17.398  0.00  0.00    +0.000 HD
ATOM     14  H   UNL     1       3.031  11.233  18.550  0.00  0.00    +0.000 HD
ENDROOT
BRANCH   9  15
ATOM     15  C   UNL     1       0.266  15.436  19.072  0.00  0.00    +0.000 A 
ATOM     16  C   UNL     1      -0.688  16.418  18.731  0.00  0.00    +0.000 A 
ATOM     17  C   UNL     1      -0.336  17.767  18.549  0.00  0.00    +0.000 A 
ATOM     18  F   UNL     1      -1.217  18.618  17.990  0.00  0.00    +0.000 F 
ATOM     19  C   UNL     1       0.956  18.215  18.840  0.00  0.00    +0.000 A 
ATOM     20  C   UNL     1       1.928  17.271  19.159  0.00  0.00    +0.000 A 
ATOM     21  C   UNL     1       1.578  15.904  19.299  0.00  0.00    +0.000 A 
BRANCH  20  22
ATOM     22  O   UNL     1       3.207  17.751  19.301  0.00  0.00    +0.000 OA
ATOM     23  C   UNL     1       4.131  16.892  19.968  0.00  0.00    +0.000 C 
ENDBRANCH  20  22
ENDBRANCH   9  15
BRANCH   1  29
ATOM     24  C   UNL     1       3.782   4.190  18.464  0.00  0.00    +0.000 A 
ATOM     25  C   UNL     1       3.863   2.823  17.967  0.00  0.00    +0.000 A 
ATOM     26  C   UNL     1       2.750   2.000  17.814  0.00  0.00    +0.000 A 
ATOM     27  C   UNL     1       1.542   2.506  18.278  0.00  0.00    +0.000 A 
ATOM     28  C   UNL     1       1.446   3.887  18.744  0.00  0.00    +0.000 A 
ATOM     29  C   UNL     1       2.562   4.814  18.808  0.00  0.00    +0.000 A 
BRANCH  24  32
ATOM     30  C   UNL     1       5.628   5.477  17.597  0.00  0.00    +0.000 C 
ATOM     31  O   UNL     1       5.181   5.461  16.454  0.00  0.00    +0.000 OA
ATOM     32  N   UNL     1       4.993   4.865  18.673  0.00  0.00    +0.000 N 
ATOM     33  H   UNL     1       5.369   4.825  19.610  0.00  0.00    +0.000 HD
BRANCH  30  35
ATOM     34  C   UNL     1       7.317   7.226  17.497  0.00  0.00    +0.000 C 
ATOM     35  C   UNL     1       6.998   5.986  17.897  0.00  0.00    +0.000 C 
ENDBRANCH  30  35
ENDBRANCH  24  32
ENDBRANCH   1  29
TORSDOF 5
ENDMDL
