MODEL 1
REMARK VINA RESULT:      -8.8      0.000      0.000
REMARK  Name = 
REMARK  4 active torsions:
REMARK  status: ('A' for Active; 'I' for Inactive)
REMARK    1  A    between atoms: C_1  and  C_2
REMARK    2  A    between atoms: C_5  and  C_6
REMARK    3  A    between atoms: C_12  and  C_13
REMARK    4  A    between atoms: C_23  and  C_24
REMARK                            x       y       z     vdW  Elec       q    Type
REMARK                         _______ _______ _______ _____ _____    ______ ____
ROOT
ATOM      1  C   UNL     1      -0.312   8.499  21.867  0.00  0.00    +0.000 C 
ATOM      2  C   UNL     1       0.705   8.497  20.743  0.00  0.00    +0.000 A 
ATOM      3  N   UNL     1       1.366   7.286  20.553  0.00  0.00    +0.000 N 
ATOM      4  C   UNL     1       2.248   7.103  19.550  0.00  0.00    +0.000 A 
ATOM      5  C   UNL     1       3.038   6.056  19.153  0.00  0.00    +0.000 A 
ATOM      6  C   UNL     1       3.708   6.511  17.983  0.00  0.00    +0.000 A 
ATOM      7  N   UNL     1       3.378   7.792  17.704  0.00  0.00    +0.000 NA
ATOM      8  N   UNL     1       2.501   8.145  18.690  0.00  0.00    +0.000 N 
ATOM      9  C   UNL     1       1.909   9.426  18.796  0.00  0.00    +0.000 A 
ATOM     10  O   UNL     1       2.171  10.317  18.002  0.00  0.00    +0.000 OA
ATOM     11  C   UNL     1       0.908   9.558  19.936  0.00  0.00    +0.000 A 
ATOM     12  H   UNL     1       1.097   6.508  21.148  0.00  0.00    +0.000 HD
ENDROOT
BRANCH  11  13
ATOM     13  C   UNL     1       0.166  10.835  20.100  0.00  0.00    +0.000 A 
ATOM     14  C   UNL     1      -1.021  11.020  19.391  0.00  0.00    +0.000 A 
ATOM     15  C   UNL     1      -1.747  12.203  19.522  0.00  0.00    +0.000 A 
ATOM     16  C   UNL     1      -1.288  13.246  20.299  0.00  0.00    +0.000 A 
ATOM     17  N   UNL     1      -1.924  14.414  20.172  0.00  0.00    +0.000 NA
ATOM     18  C   UNL     1      -1.411  15.472  20.822  0.00  0.00    +0.000 A 
ATOM     19  C   UNL     1      -0.430  15.382  21.786  0.00  0.00    +0.000 A 
ATOM     20  C   UNL     1       0.241  14.166  21.904  0.00  0.00    +0.000 A 
ATOM     21  C   UNL     1      -0.127  13.078  21.078  0.00  0.00    +0.000 A 
ATOM     22  C   UNL     1       0.615  11.871  20.945  0.00  0.00    +0.000 A 
ENDBRANCH  11  13
BRANCH   5  23
ATOM     23  C   UNL     1       3.159   4.803  19.834  0.00  0.00    +0.000 C 
ATOM     24  C   UNL     1       4.159   3.949  19.632  0.00  0.00    +0.000 C 
ATOM     25  C   UNL     1       4.235   2.611  20.299  0.00  0.00    +0.000 C 
ATOM     26  C   UNL     1       2.917   2.273  20.984  0.00  0.00    +0.000 C 
ATOM     27  C   UNL     1       2.369   3.512  21.671  0.00  0.00    +0.000 C 
ATOM     28  O   UNL     1       2.140   4.583  20.745  0.00  0.00    +0.000 OA
ENDBRANCH   5  23
BRANCH   6  29
ATOM     29  C   UNL     1       4.687   5.778  17.173  0.00  0.00    +0.000 A 
ATOM     30  C   UNL     1       4.292   4.719  16.360  0.00  0.00    +0.000 A 
ATOM     31  C   UNL     1       5.210   4.103  15.491  0.00  0.00    +0.000 A 
ATOM     32  C   UNL     1       6.536   4.546  15.476  0.00  0.00    +0.000 A 
ATOM     33  C   UNL     1       6.954   5.562  16.310  0.00  0.00    +0.000 A 
ATOM     34  C   UNL     1       6.035   6.180  17.167  0.00  0.00    +0.000 A 
ENDBRANCH   6  29
TORSDOF 3
ENDMDL
MODEL 2
REMARK VINA RESULT:      -8.6      0.696      1.667
REMARK  Name = 
REMARK  4 active torsions:
REMARK  status: ('A' for Active; 'I' for Inactive)
REMARK    1  A    between atoms: C_1  and  C_2
REMARK    2  A    between atoms: C_5  and  C_6
REMARK    3  A    between atoms: C_12  and  C_13
REMARK    4  A    between atoms: C_23  and  C_24
REMARK                            x       y       z     vdW  Elec       q    Type
REMARK                         _______ _______ _______ _____ _____    ______ ____
ROOT
ATOM      1  C   UNL     1      -0.183   8.395  21.960  0.00  0.00    +0.000 C 
ATOM      2  C   UNL     1       0.780   8.433  20.791  0.00  0.00    +0.000 A 
ATOM      3  N   UNL     1       1.467   7.244  20.558  0.00  0.00    +0.000 N 
ATOM      4  C   UNL     1       2.307   7.096  19.514  0.00  0.00    +0.000 A 
ATOM      5  C   UNL     1       3.108   6.076  19.071  0.00  0.00    +0.000 A 
ATOM      6  C   UNL     1       3.709   6.562  17.876  0.00  0.00    +0.000 A 
ATOM      7  N   UNL     1       3.330   7.835  17.625  0.00  0.00    +0.000 NA
ATOM      8  N   UNL     1       2.490   8.152  18.655  0.00  0.00    +0.000 N 
ATOM      9  C   UNL     1       1.866   9.414  18.801  0.00  0.00    +0.000 A 
ATOM     10  O   UNL     1       2.065  10.320  18.004  0.00  0.00    +0.000 OA
ATOM     11  C   UNL     1       0.915   9.507  19.987  0.00  0.00    +0.000 A 
ATOM     12  H   UNL     1       1.248   6.453  21.157  0.00  0.00    +0.000 HD
ENDROOT
BRANCH  11  13
ATOM     13  C   UNL     1       0.144  10.760  20.198  0.00  0.00    +0.000 A 
ATOM     14  C   UNL     1       0.776  11.846  20.804  0.00  0.00    +0.000 A 
ATOM     15  C   UNL     1       0.086  13.038  21.015  0.00  0.00    +0.000 A 
ATOM     16  C   UNL     1      -1.249  13.163  20.694  0.00  0.00    +0.000 A 
ATOM     17  N   UNL     1      -1.877  14.251  21.150  0.00  0.00    +0.000 NA
ATOM     18  C   UNL     1      -3.205  14.325  20.958  0.00  0.00    +0.000 A 
ATOM     19  C   UNL     1      -3.911  13.484  20.126  0.00  0.00    +0.000 A 
ATOM     20  C   UNL     1      -3.256  12.343  19.666  0.00  0.00    +0.000 A 
ATOM     21  C   UNL     1      -1.908  12.113  20.026  0.00  0.00    +0.000 A 
ATOM     22  C   UNL     1      -1.205  10.894  19.811  0.00  0.00    +0.000 A 
ENDBRANCH  11  13
BRANCH   5  23
ATOM     23  C   UNL     1       3.296   4.822  19.732  0.00  0.00    +0.000 C 
ATOM     24  C   UNL     1       4.359   4.042  19.544  0.00  0.00    +0.000 C 
ATOM     25  C   UNL     1       4.508   2.700  20.188  0.00  0.00    +0.000 C 
ATOM     26  C   UNL     1       3.198   2.259  20.829  0.00  0.00    +0.000 C 
ATOM     27  C   UNL     1       2.547   3.443  21.523  0.00  0.00    +0.000 C 
ATOM     28  O   UNL     1       2.270   4.514  20.609  0.00  0.00    +0.000 OA
ENDBRANCH   5  23
BRANCH   6  29
ATOM     29  C   UNL     1       4.671   5.866  17.015  0.00  0.00    +0.000 A 
ATOM     30  C   UNL     1       6.008   6.255  16.975  0.00  0.00    +0.000 A 
ATOM     31  C   UNL     1       6.950   5.509  16.248  0.00  0.00    +0.000 A 
ATOM     32  C   UNL     1       6.524   4.383  15.535  0.00  0.00    +0.000 A 
ATOM     33  C   UNL     1       5.196   4.011  15.527  0.00  0.00    +0.000 A 
ATOM     34  C   UNL     1       4.261   4.752  16.260  0.00  0.00    +0.000 A 
ENDBRANCH   6  29
TORSDOF 3
ENDMDL
MODEL 3
REMARK VINA RESULT:      -8.6      0.832      1.342
REMARK  Name = 
REMARK  4 active torsions:
REMARK  status: ('A' for Active; 'I' for Inactive)
REMARK    1  A    between atoms: C_1  and  C_2
REMARK    2  A    between atoms: C_5  and  C_6
REMARK    3  A    between atoms: C_12  and  C_13
REMARK    4  A    between atoms: C_23  and  C_24
REMARK                            x       y       z     vdW  Elec       q    Type
REMARK                         _______ _______ _______ _____ _____    ______ ____
ROOT
ATOM      1  C   UNL     1      -0.522   8.974  22.088  0.00  0.00    +0.000 C 
ATOM      2  C   UNL     1       0.457   8.857  20.937  0.00  0.00    +0.000 A 
ATOM      3  N   UNL     1       0.958   7.575  20.723  0.00  0.00    +0.000 N 
ATOM      4  C   UNL     1       1.785   7.294  19.696  0.00  0.00    +0.000 A 
ATOM      5  C   UNL     1       2.429   6.160  19.273  0.00  0.00    +0.000 A 
ATOM      6  C   UNL     1       3.120   6.540  18.088  0.00  0.00    +0.000 A 
ATOM      7  N   UNL     1       2.943   7.854  17.824  0.00  0.00    +0.000 NA
ATOM      8  N   UNL     1       2.143   8.303  18.836  0.00  0.00    +0.000 N 
ATOM      9  C   UNL     1       1.716   9.646  18.964  0.00  0.00    +0.000 A 
ATOM     10  O   UNL     1       2.065  10.505  18.168  0.00  0.00    +0.000 OA
ATOM     11  C   UNL     1       0.769   9.891  20.131  0.00  0.00    +0.000 A 
ATOM     12  H   UNL     1       0.610   6.831  21.321  0.00  0.00    +0.000 HD
ENDROOT
BRANCH  11  13
ATOM     13  C   UNL     1       0.194  11.248  20.322  0.00  0.00    +0.000 A 
ATOM     14  C   UNL     1      -1.071  11.523  19.802  0.00  0.00    +0.000 A 
ATOM     15  C   UNL     1      -1.644  12.784  19.964  0.00  0.00    +0.000 A 
ATOM     16  C   UNL     1      -0.960  13.811  20.581  0.00  0.00    +0.000 A 
ATOM     17  N   UNL     1      -1.491  15.033  20.476  0.00  0.00    +0.000 NA
ATOM     18  C   UNL     1      -0.773  16.062  20.957  0.00  0.00    +0.000 A 
ATOM     19  C   UNL     1       0.342  15.918  21.754  0.00  0.00    +0.000 A 
ATOM     20  C   UNL     1       0.899  14.644  21.848  0.00  0.00    +0.000 A 
ATOM     21  C   UNL     1       0.293  13.560  21.172  0.00  0.00    +0.000 A 
ATOM     22  C   UNL     1       0.879  12.273  21.007  0.00  0.00    +0.000 A 
ENDBRANCH  11  13
BRANCH   5  23
ATOM     23  C   UNL     1       2.412   4.896  19.944  0.00  0.00    +0.000 C 
ATOM     24  C   UNL     1       1.295   4.246  20.260  0.00  0.00    +0.000 C 
ATOM     25  C   UNL     1       1.291   2.960  21.026  0.00  0.00    +0.000 C 
ATOM     26  C   UNL     1       2.669   2.673  21.608  0.00  0.00    +0.000 C 
ATOM     27  C   UNL     1       3.736   3.025  20.586  0.00  0.00    +0.000 C 
ATOM     28  O   UNL     1       3.681   4.408  20.207  0.00  0.00    +0.000 OA
ENDBRANCH   5  23
BRANCH   6  29
ATOM     29  C   UNL     1       3.980   5.699  17.248  0.00  0.00    +0.000 A 
ATOM     30  C   UNL     1       5.152   6.206  16.693  0.00  0.00    +0.000 A 
ATOM     31  C   UNL     1       6.037   5.365  15.996  0.00  0.00    +0.000 A 
ATOM     32  C   UNL     1       5.710   4.014  15.839  0.00  0.00    +0.000 A 
ATOM     33  C   UNL     1       4.530   3.507  16.342  0.00  0.00    +0.000 A 
ATOM     34  C   UNL     1       3.656   4.346  17.044  0.00  0.00    +0.000 A 
ENDBRANCH   6  29
TORSDOF 3
ENDMDL
MODEL 4
REMARK VINA RESULT:      -8.5      1.054      1.841
REMARK  Name = 
REMARK  4 active torsions:
REMARK  status: ('A' for Active; 'I' for Inactive)
REMARK    1  A    between atoms: C_1  and  C_2
REMARK    2  A    between atoms: C_5  and  C_6
REMARK    3  A    between atoms: C_12  and  C_13
REMARK    4  A    between atoms: C_23  and  C_24
REMARK                            x       y       z     vdW  Elec       q    Type
REMARK                         _______ _______ _______ _____ _____    ______ ____
ROOT
ATOM      1  C   UNL     1      -0.497   8.935  22.297  0.00  0.00    +0.000 C 
ATOM      2  C   UNL     1       0.445   8.854  21.112  0.00  0.00    +0.000 A 
ATOM      3  N   UNL     1       0.949   7.582  20.851  0.00  0.00    +0.000 N 
ATOM      4  C   UNL     1       1.745   7.333  19.791  0.00  0.00    +0.000 A 
ATOM      5  C   UNL     1       2.383   6.215  19.319  0.00  0.00    +0.000 A 
ATOM      6  C   UNL     1       3.031   6.629  18.122  0.00  0.00    +0.000 A 
ATOM      7  N   UNL     1       2.836   7.948  17.897  0.00  0.00    +0.000 NA
ATOM      8  N   UNL     1       2.066   8.366  18.944  0.00  0.00    +0.000 N 
ATOM      9  C   UNL     1       1.633   9.702  19.119  0.00  0.00    +0.000 A 
ATOM     10  O   UNL     1       1.949  10.582  18.333  0.00  0.00    +0.000 OA
ATOM     11  C   UNL     1       0.723   9.910  20.322  0.00  0.00    +0.000 A 
ATOM     12  H   UNL     1       0.627   6.821  21.441  0.00  0.00    +0.000 HD
ENDROOT
BRANCH  11  13
ATOM     13  C   UNL     1       0.144  11.258  20.564  0.00  0.00    +0.000 A 
ATOM     14  C   UNL     1       0.975  12.273  21.037  0.00  0.00    +0.000 A 
ATOM     15  C   UNL     1       0.469  13.550  21.273  0.00  0.00    +0.000 A 
ATOM     16  C   UNL     1      -0.871  13.834  21.109  0.00  0.00    +0.000 A 
ATOM     17  N   UNL     1      -1.298  15.008  21.585  0.00  0.00    +0.000 NA
ATOM     18  C   UNL     1      -2.621  15.244  21.551  0.00  0.00    +0.000 A 
ATOM     19  C   UNL     1      -3.523  14.473  20.851  0.00  0.00    +0.000 A 
ATOM     20  C   UNL     1      -3.077  13.244  20.371  0.00  0.00    +0.000 A 
ATOM     21  C   UNL     1      -1.732  12.856  20.577  0.00  0.00    +0.000 A 
ATOM     22  C   UNL     1      -1.217  11.551  20.337  0.00  0.00    +0.000 A 
ENDBRANCH  11  13
BRANCH   5  23
ATOM     23  C   UNL     1       2.398   4.935  19.960  0.00  0.00    +0.000 C 
ATOM     24  C   UNL     1       1.298   4.241  20.243  0.00  0.00    +0.000 C 
ATOM     25  C   UNL     1       1.325   2.937  20.978  0.00  0.00    +0.000 C 
ATOM     26  C   UNL     1       2.703   2.681  21.574  0.00  0.00    +0.000 C 
ATOM     27  C   UNL     1       3.773   3.094  20.578  0.00  0.00    +0.000 C 
ATOM     28  O   UNL     1       3.678   4.483  20.231  0.00  0.00    +0.000 OA
ENDBRANCH   5  23
BRANCH   6  29
ATOM     29  C   UNL     1       3.870   5.816  17.235  0.00  0.00    +0.000 A 
ATOM     30  C   UNL     1       4.978   6.368  16.595  0.00  0.00    +0.000 A 
ATOM     31  C   UNL     1       5.850   5.557  15.849  0.00  0.00    +0.000 A 
ATOM     32  C   UNL     1       5.576   4.191  15.729  0.00  0.00    +0.000 A 
ATOM     33  C   UNL     1       4.457   3.638  16.317  0.00  0.00    +0.000 A 
ATOM     34  C   UNL     1       3.595   4.447  17.068  0.00  0.00    +0.000 A 
ENDBRANCH   6  29
TORSDOF 3
ENDMDL
MODEL 5
REMARK VINA RESULT:      -8.1      1.468      1.610
REMARK  Name = 
REMARK  4 active torsions:
REMARK  status: ('A' for Active; 'I' for Inactive)
REMARK    1  A    between atoms: C_1  and  C_2
REMARK    2  A    between atoms: C_5  and  C_6
REMARK    3  A    between atoms: C_12  and  C_13
REMARK    4  A    between atoms: C_23  and  C_24
REMARK                            x       y       z     vdW  Elec       q    Type
REMARK                         _______ _______ _______ _____ _____    ______ ____
ROOT
ATOM      1  C   UNL     1      -0.455   9.780  21.058  0.00  0.00    +0.000 C 
ATOM      2  C   UNL     1       0.643   9.455  20.064  0.00  0.00    +0.000 A 
ATOM      3  N   UNL     1       0.997   8.109  20.003  0.00  0.00    +0.000 N 
ATOM      4  C   UNL     1       1.908   7.649  19.122  0.00  0.00    +0.000 A 
ATOM      5  C   UNL     1       2.448   6.416  18.864  0.00  0.00    +0.000 A 
ATOM      6  C   UNL     1       3.331   6.614  17.766  0.00  0.00    +0.000 A 
ATOM      7  N   UNL     1       3.363   7.915  17.399  0.00  0.00    +0.000 NA
ATOM      8  N   UNL     1       2.502   8.537  18.258  0.00  0.00    +0.000 N 
ATOM      9  C   UNL     1       2.241   9.927  18.242  0.00  0.00    +0.000 A 
ATOM     10  O   UNL     1       2.800  10.672  17.450  0.00  0.00    +0.000 OA
ATOM     11  C   UNL     1       1.189  10.377  19.247  0.00  0.00    +0.000 A 
ATOM     12  H   UNL     1       0.480   7.462  20.592  0.00  0.00    +0.000 HD
ENDROOT
BRANCH  11  13
ATOM     13  C   UNL     1       0.776  11.804  19.270  0.00  0.00    +0.000 A 
ATOM     14  C   UNL     1      -0.371  12.185  18.574  0.00  0.00    +0.000 A 
ATOM     15  C   UNL     1      -0.792  13.514  18.575  0.00  0.00    +0.000 A 
ATOM     16  C   UNL     1      -0.060  14.499  19.205  0.00  0.00    +0.000 A 
ATOM     17  N   UNL     1      -0.412  15.763  18.950  0.00  0.00    +0.000 NA
ATOM     18  C   UNL     1       0.369  16.735  19.451  0.00  0.00    +0.000 A 
ATOM     19  C   UNL     1       1.352  16.524  20.394  0.00  0.00    +0.000 A 
ATOM     20  C   UNL     1       1.725  15.205  20.645  0.00  0.00    +0.000 A 
ATOM     21  C   UNL     1       1.070  14.149  19.969  0.00  0.00    +0.000 A 
ATOM     22  C   UNL     1       1.500  12.793  19.968  0.00  0.00    +0.000 A 
ENDBRANCH  11  13
BRANCH   5  23
ATOM     23  C   UNL     1       2.179   5.221  19.604  0.00  0.00    +0.000 C 
ATOM     24  C   UNL     1       2.621   5.006  20.841  0.00  0.00    +0.000 C 
ATOM     25  C   UNL     1       2.393   3.722  21.575  0.00  0.00    +0.000 C 
ATOM     26  C   UNL     1       1.857   2.650  20.635  0.00  0.00    +0.000 C 
ATOM     27  C   UNL     1       0.830   3.262  19.697  0.00  0.00    +0.000 C 
ATOM     28  O   UNL     1       1.389   4.322  18.908  0.00  0.00    +0.000 OA
ENDBRANCH   5  23
BRANCH   6  29
ATOM     29  C   UNL     1       4.177   5.612  17.110  0.00  0.00    +0.000 A 
ATOM     30  C   UNL     1       4.049   4.259  17.414  0.00  0.00    +0.000 A 
ATOM     31  C   UNL     1       4.770   3.291  16.693  0.00  0.00    +0.000 A 
ATOM     32  C   UNL     1       5.646   3.707  15.685  0.00  0.00    +0.000 A 
ATOM     33  C   UNL     1       5.820   5.046  15.404  0.00  0.00    +0.000 A 
ATOM     34  C   UNL     1       5.092   6.006  16.117  0.00  0.00    +0.000 A 
ENDBRANCH   6  29
TORSDOF 3
ENDMDL
MODEL 6
REMARK VINA RESULT:      -8.0      2.815     10.294
REMARK  Name = 
REMARK  4 active torsions:
REMARK  status: ('A' for Active; 'I' for Inactive)
REMARK    1  A    between atoms: C_1  and  C_2
REMARK    2  A    between atoms: C_5  and  C_6
REMARK    3  A    between atoms: C_12  and  C_13
REMARK    4  A    between atoms: C_23  and  C_24
REMARK                            x       y       z     vdW  Elec       q    Type
REMARK                         _______ _______ _______ _____ _____    ______ ____
ROOT
ATOM      1  C   UNL     1      -1.298   9.800  17.874  0.00  0.00    +0.000 C 
ATOM      2  C   UNL     1      -0.843  10.504  19.137  0.00  0.00    +0.000 A 
ATOM      3  N   UNL     1      -1.719  11.477  19.613  0.00  0.00    +0.000 N 
ATOM      4  C   UNL     1      -1.490  12.143  20.763  0.00  0.00    +0.000 A 
ATOM      5  C   UNL     1      -2.151  13.136  21.437  0.00  0.00    +0.000 A 
ATOM      6  C   UNL     1      -1.390  13.360  22.619  0.00  0.00    +0.000 A 
ATOM      7  N   UNL     1      -0.291  12.573  22.643  0.00  0.00    +0.000 NA
ATOM      8  N   UNL     1      -0.358  11.852  21.485  0.00  0.00    +0.000 N 
ATOM      9  C   UNL     1       0.614  10.903  21.091  0.00  0.00    +0.000 A 
ATOM     10  O   UNL     1       1.604  10.683  21.774  0.00  0.00    +0.000 OA
ATOM     11  C   UNL     1       0.285  10.172  19.796  0.00  0.00    +0.000 A 
ATOM     12  H   UNL     1      -2.590  11.611  19.107  0.00  0.00    +0.000 HD
ENDROOT
BRANCH  11  13
ATOM     13  C   UNL     1       1.196   9.098  19.322  0.00  0.00    +0.000 A 
ATOM     14  C   UNL     1       1.864   9.267  18.109  0.00  0.00    +0.000 A 
ATOM     15  C   UNL     1       2.729   8.282  17.634  0.00  0.00    +0.000 A 
ATOM     16  C   UNL     1       2.902   7.092  18.307  0.00  0.00    +0.000 A 
ATOM     17  N   UNL     1       3.557   6.124  17.658  0.00  0.00    +0.000 NA
ATOM     18  C   UNL     1       3.622   4.918  18.246  0.00  0.00    +0.000 A 
ATOM     19  C   UNL     1       3.272   4.681  19.559  0.00  0.00    +0.000 A 
ATOM     20  C   UNL     1       2.576   5.688  20.226  0.00  0.00    +0.000 A 
ATOM     21  C   UNL     1       2.294   6.905  19.564  0.00  0.00    +0.000 A 
ATOM     22  C   UNL     1       1.410   7.909  20.050  0.00  0.00    +0.000 A 
ENDBRANCH  11  13
BRANCH   5  23
ATOM     23  C   UNL     1      -3.332  13.805  20.982  0.00  0.00    +0.000 C 
ATOM     24  C   UNL     1      -3.454  15.129  20.932  0.00  0.00    +0.000 C 
ATOM     25  C   UNL     1      -4.720  15.815  20.522  0.00  0.00    +0.000 C 
ATOM     26  C   UNL     1      -5.874  14.823  20.454  0.00  0.00    +0.000 C 
ATOM     27  C   UNL     1      -5.394  13.526  19.826  0.00  0.00    +0.000 C 
ATOM     28  O   UNL     1      -4.325  12.930  20.576  0.00  0.00    +0.000 OA
ENDBRANCH   5  23
BRANCH   6  29
ATOM     29  C   UNL     1      -1.655  14.339  23.679  0.00  0.00    +0.000 A 
ATOM     30  C   UNL     1      -2.745  14.189  24.533  0.00  0.00    +0.000 A 
ATOM     31  C   UNL     1      -2.924  15.056  25.624  0.00  0.00    +0.000 A 
ATOM     32  C   UNL     1      -2.008  16.095  25.826  0.00  0.00    +0.000 A 
ATOM     33  C   UNL     1      -0.950  16.285  24.962  0.00  0.00    +0.000 A 
ATOM     34  C   UNL     1      -0.770  15.413  23.881  0.00  0.00    +0.000 A 
ENDBRANCH   6  29
TORSDOF 3
ENDMDL
MODEL 7
REMARK VINA RESULT:      -7.9      1.125      1.657
REMARK  Name = 
REMARK  4 active torsions:
REMARK  status: ('A' for Active; 'I' for Inactive)
REMARK    1  A    between atoms: C_1  and  C_2
REMARK    2  A    between atoms: C_5  and  C_6
REMARK    3  A    between atoms: C_12  and  C_13
REMARK    4  A    between atoms: C_23  and  C_24
REMARK                            x       y       z     vdW  Elec       q    Type
REMARK                         _______ _______ _______ _____ _____    ______ ____
ROOT
ATOM      1  C   UNL     1       0.092   7.861  21.517  0.00  0.00    +0.000 C 
ATOM      2  C   UNL     1       1.082   7.981  20.376  0.00  0.00    +0.000 A 
ATOM      3  N   UNL     1       1.749   6.802  20.053  0.00  0.00    +0.000 N 
ATOM      4  C   UNL     1       2.610   6.729  19.017  0.00  0.00    +0.000 A 
ATOM      5  C   UNL     1       3.399   5.735  18.501  0.00  0.00    +0.000 A 
ATOM      6  C   UNL     1       4.037   6.311  17.367  0.00  0.00    +0.000 A 
ATOM      7  N   UNL     1       3.689   7.609  17.223  0.00  0.00    +0.000 NA
ATOM      8  N   UNL     1       2.833   7.853  18.259  0.00  0.00    +0.000 N 
ATOM      9  C   UNL     1       2.232   9.110  18.504  0.00  0.00    +0.000 A 
ATOM     10  O   UNL     1       2.467  10.078  17.796  0.00  0.00    +0.000 OA
ATOM     11  C   UNL     1       1.257   9.119  19.674  0.00  0.00    +0.000 A 
ATOM     12  H   UNL     1       1.501   5.966  20.573  0.00  0.00    +0.000 HD
ENDROOT
BRANCH  11  13
ATOM     13  C   UNL     1       0.507  10.365  19.980  0.00  0.00    +0.000 A 
ATOM     14  C   UNL     1       1.142  11.372  20.707  0.00  0.00    +0.000 A 
ATOM     15  C   UNL     1       0.471  12.556  21.010  0.00  0.00    +0.000 A 
ATOM     16  C   UNL     1      -0.849  12.744  20.660  0.00  0.00    +0.000 A 
ATOM     17  N   UNL     1      -1.468  13.800  21.198  0.00  0.00    +0.000 NA
ATOM     18  C   UNL     1      -2.787  13.925  20.973  0.00  0.00    +0.000 A 
ATOM     19  C   UNL     1      -3.483  13.184  20.043  0.00  0.00    +0.000 A 
ATOM     20  C   UNL     1      -2.839  12.076  19.496  0.00  0.00    +0.000 A 
ATOM     21  C   UNL     1      -1.509  11.779  19.875  0.00  0.00    +0.000 A 
ATOM     22  C   UNL     1      -0.825  10.569  19.565  0.00  0.00    +0.000 A 
ENDBRANCH  11  13
BRANCH   5  23
ATOM     23  C   UNL     1       3.547   4.422  19.052  0.00  0.00    +0.000 C 
ATOM     24  C   UNL     1       4.680   3.971  19.584  0.00  0.00    +0.000 C 
ATOM     25  C   UNL     1       4.841   2.572  20.091  0.00  0.00    +0.000 C 
ATOM     26  C   UNL     1       3.664   1.704  19.665  0.00  0.00    +0.000 C 
ATOM     27  C   UNL     1       2.374   2.492  19.804  0.00  0.00    +0.000 C 
ATOM     28  O   UNL     1       2.380   3.679  18.998  0.00  0.00    +0.000 OA
ENDBRANCH   5  23
BRANCH   6  29
ATOM     29  C   UNL     1       5.004   5.672  16.467  0.00  0.00    +0.000 A 
ATOM     30  C   UNL     1       4.578   4.833  15.441  0.00  0.00    +0.000 A 
ATOM     31  C   UNL     1       5.495   4.325  14.504  0.00  0.00    +0.000 A 
ATOM     32  C   UNL     1       6.850   4.648  14.634  0.00  0.00    +0.000 A 
ATOM     33  C   UNL     1       7.294   5.440  15.673  0.00  0.00    +0.000 A 
ATOM     34  C   UNL     1       6.376   5.951  16.598  0.00  0.00    +0.000 A 
ENDBRANCH   6  29
TORSDOF 3
ENDMDL
MODEL 8
REMARK VINA RESULT:      -7.7      1.692      3.979
REMARK  Name = 
REMARK  4 active torsions:
REMARK  status: ('A' for Active; 'I' for Inactive)
REMARK    1  A    between atoms: C_1  and  C_2
REMARK    2  A    between atoms: C_5  and  C_6
REMARK    3  A    between atoms: C_12  and  C_13
REMARK    4  A    between atoms: C_23  and  C_24
REMARK                            x       y       z     vdW  Elec       q    Type
REMARK                         _______ _______ _______ _____ _____    ______ ____
ROOT
ATOM      1  C   UNL     1       2.544  11.709  17.710  0.00  0.00    +0.000 C 
ATOM      2  C   UNL     1       1.980  10.578  18.546  0.00  0.00    +0.000 A 
ATOM      3  N   UNL     1       2.522   9.323  18.277  0.00  0.00    +0.000 N 
ATOM      4  C   UNL     1       2.174   8.228  18.983  0.00  0.00    +0.000 A 
ATOM      5  C   UNL     1       2.522   6.904  18.922  0.00  0.00    +0.000 A 
ATOM      6  C   UNL     1       1.820   6.281  19.992  0.00  0.00    +0.000 A 
ATOM      7  N   UNL     1       1.045   7.174  20.648  0.00  0.00    +0.000 NA
ATOM      8  N   UNL     1       1.258   8.357  19.999  0.00  0.00    +0.000 N 
ATOM      9  C   UNL     1       0.623   9.572  20.349  0.00  0.00    +0.000 A 
ATOM     10  O   UNL     1      -0.186   9.629  21.263  0.00  0.00    +0.000 OA
ATOM     11  C   UNL     1       1.076  10.772  19.527  0.00  0.00    +0.000 A 
ATOM     12  H   UNL     1       3.260   9.272  17.581  0.00  0.00    +0.000 HD
ENDROOT
BRANCH  11  13
ATOM     13  C   UNL     1       0.535  12.116  19.855  0.00  0.00    +0.000 A 
ATOM     14  C   UNL     1      -0.649  12.533  19.246  0.00  0.00    +0.000 A 
ATOM     15  C   UNL     1      -1.189  13.787  19.531  0.00  0.00    +0.000 A 
ATOM     16  C   UNL     1      -0.543  14.674  20.367  0.00  0.00    +0.000 A 
ATOM     17  N   UNL     1      -1.011  15.926  20.389  0.00  0.00    +0.000 NA
ATOM     18  C   UNL     1      -0.316  16.833  21.097  0.00  0.00    +0.000 A 
ATOM     19  C   UNL     1       0.691  16.513  21.981  0.00  0.00    +0.000 A 
ATOM     20  C   UNL     1       1.185  15.210  21.943  0.00  0.00    +0.000 A 
ATOM     21  C   UNL     1       0.621  14.271  21.049  0.00  0.00    +0.000 A 
ATOM     22  C   UNL     1       1.173  12.992  20.758  0.00  0.00    +0.000 A 
ENDBRANCH  11  13
BRANCH   5  23
ATOM     23  C   UNL     1       3.380   6.315  17.940  0.00  0.00    +0.000 C 
ATOM     24  C   UNL     1       3.322   5.034  17.584  0.00  0.00    +0.000 C 
ATOM     25  C   UNL     1       4.274   4.416  16.609  0.00  0.00    +0.000 C 
ATOM     26  C   UNL     1       5.437   5.356  16.319  0.00  0.00    +0.000 C 
ATOM     27  C   UNL     1       4.922   6.778  16.186  0.00  0.00    +0.000 C 
ATOM     28  O   UNL     1       4.262   7.224  17.380  0.00  0.00    +0.000 OA
ENDBRANCH   5  23
BRANCH   6  29
ATOM     29  C   UNL     1       1.829   4.860  20.357  0.00  0.00    +0.000 A 
ATOM     30  C   UNL     1       2.577   4.405  21.440  0.00  0.00    +0.000 A 
ATOM     31  C   UNL     1       2.484   3.068  21.864  0.00  0.00    +0.000 A 
ATOM     32  C   UNL     1       1.651   2.189  21.163  0.00  0.00    +0.000 A 
ATOM     33  C   UNL     1       0.940   2.613  20.060  0.00  0.00    +0.000 A 
ATOM     34  C   UNL     1       1.029   3.948  19.647  0.00  0.00    +0.000 A 
ENDBRANCH   6  29
TORSDOF 3
ENDMDL
MODEL 9
REMARK VINA RESULT:      -7.4      2.533     10.030
REMARK  Name = 
REMARK  4 active torsions:
REMARK  status: ('A' for Active; 'I' for Inactive)
REMARK    1  A    between atoms: C_1  and  C_2
REMARK    2  A    between atoms: C_5  and  C_6
REMARK    3  A    between atoms: C_12  and  C_13
REMARK    4  A    between atoms: C_23  and  C_24
REMARK                            x       y       z     vdW  Elec       q    Type
REMARK                         _______ _______ _______ _____ _____    ______ ____
ROOT
ATOM      1  C   UNL     1       2.138   9.682  17.828  0.00  0.00    +0.000 C 
ATOM      2  C   UNL     1       1.466   9.880  19.172  0.00  0.00    +0.000 A 
ATOM      3  N   UNL     1       0.939  11.152  19.382  0.00  0.00    +0.000 N 
ATOM      4  C   UNL     1       0.250  11.465  20.498  0.00  0.00    +0.000 A 
ATOM      5  C   UNL     1      -0.343  12.609  20.964  0.00  0.00    +0.000 A 
ATOM      6  C   UNL     1      -0.942  12.246  22.202  0.00  0.00    +0.000 A 
ATOM      7  N   UNL     1      -0.689  10.952  22.502  0.00  0.00    +0.000 NA
ATOM      8  N   UNL     1       0.064  10.498  21.456  0.00  0.00    +0.000 N 
ATOM      9  C   UNL     1       0.572   9.180  21.366  0.00  0.00    +0.000 A 
ATOM     10  O   UNL     1       0.375   8.359  22.250  0.00  0.00    +0.000 OA
ATOM     11  C   UNL     1       1.321   8.887  20.073  0.00  0.00    +0.000 A 
ATOM     12  H   UNL     1       1.015  11.821  18.621  0.00  0.00    +0.000 HD
ENDROOT
BRANCH  11  13
ATOM     13  C   UNL     1       1.833   7.513  19.831  0.00  0.00    +0.000 A 
ATOM     14  C   UNL     1       2.574   7.264  18.675  0.00  0.00    +0.000 A 
ATOM     15  C   UNL     1       3.074   5.989  18.416  0.00  0.00    +0.000 A 
ATOM     16  C   UNL     1       2.802   4.926  19.252  0.00  0.00    +0.000 A 
ATOM     17  N   UNL     1       3.119   3.710  18.799  0.00  0.00    +0.000 NA
ATOM     18  C   UNL     1       2.744   2.656  19.543  0.00  0.00    +0.000 A 
ATOM     19  C   UNL     1       2.276   2.752  20.836  0.00  0.00    +0.000 A 
ATOM     20  C   UNL     1       1.933   4.022  21.298  0.00  0.00    +0.000 A 
ATOM     21  C   UNL     1       2.110   5.146  20.459  0.00  0.00    +0.000 A 
ATOM     22  C   UNL     1       1.599   6.448  20.724  0.00  0.00    +0.000 A 
ENDBRANCH  11  13
BRANCH   5  23
ATOM     23  C   UNL     1      -0.301  13.887  20.320  0.00  0.00    +0.000 C 
ATOM     24  C   UNL     1      -1.332  14.727  20.284  0.00  0.00    +0.000 C 
ATOM     25  C   UNL     1      -1.296  16.029  19.546  0.00  0.00    +0.000 C 
ATOM     26  C   UNL     1      -0.066  16.108  18.650  0.00  0.00    +0.000 C 
ATOM     27  C   UNL     1       1.135  15.538  19.383  0.00  0.00    +0.000 C 
ATOM     28  O   UNL     1       0.934  14.169  19.761  0.00  0.00    +0.000 OA
ENDBRANCH   5  23
BRANCH   6  29
ATOM     29  C   UNL     1      -1.689  13.113  23.120  0.00  0.00    +0.000 A 
ATOM     30  C   UNL     1      -3.009  12.825  23.459  0.00  0.00    +0.000 A 
ATOM     31  C   UNL     1      -3.680  13.584  24.434  0.00  0.00    +0.000 A 
ATOM     32  C   UNL     1      -3.014  14.655  25.040  0.00  0.00    +0.000 A 
ATOM     33  C   UNL     1      -1.723  14.981  24.681  0.00  0.00    +0.000 A 
ATOM     34  C   UNL     1      -1.055  14.217  23.716  0.00  0.00    +0.000 A 
ENDBRANCH   6  29
TORSDOF 3
ENDMDL
