MODEL 1
REMARK VINA RESULT:      -7.7      0.000      0.000
REMARK  Name = 
REMARK  5 active torsions:
REMARK  status: ('A' for Active; 'I' for Inactive)
REMARK    1  A    between atoms: C_1  and  N_2
REMARK    2  A    between atoms: N_2  and  C_3
REMARK    3  A    between atoms: C_3  and  C_4
REMARK    4  A    between atoms: C_4  and  C_5
REMARK    5  A    between atoms: N_13  and  C_14
REMARK                            x       y       z     vdW  Elec       q    Type
REMARK                         _______ _______ _______ _____ _____    ______ ____
ROOT
ATOM      1  C   UNL     1       4.931   4.691  16.381  0.00  0.00    +0.000 C 
ATOM      2  C   UNL     1       4.828   3.465  17.278  0.00  0.00    +0.000 C 
ATOM      3  C   UNL     1       3.431   3.281  17.788  0.00  0.00    +0.000 A 
ATOM      4  C   UNL     1       2.949   1.987  18.043  0.00  0.00    +0.000 A 
ATOM      5  C   UNL     1       1.676   1.801  18.569  0.00  0.00    +0.000 A 
ATOM      6  C   UNL     1       0.877   2.903  18.847  0.00  0.00    +0.000 A 
ATOM      7  C   UNL     1       1.357   4.194  18.602  0.00  0.00    +0.000 A 
ATOM      8  C   UNL     1       2.645   4.404  18.083  0.00  0.00    +0.000 A 
ATOM      9  N   UNL     1       3.167   5.706  17.808  0.00  0.00    +0.000 N 
ATOM     10  C   UNL     1       4.334   5.920  17.065  0.00  0.00    +0.000 C 
ATOM     11  O   UNL     1       4.833   7.035  16.888  0.00  0.00    +0.000 OA
ENDROOT
BRANCH   9  12
ATOM     12  C   UNL     1       2.529   6.832  18.405  0.00  0.00    +0.000 A 
ATOM     13  C   UNL     1       2.130   7.914  17.611  0.00  0.00    +0.000 A 
ATOM     14  C   UNL     1       1.545   9.037  18.197  0.00  0.00    +0.000 A 
ATOM     15  C   UNL     1       1.383   9.096  19.581  0.00  0.00    +0.000 A 
ATOM     16  C   UNL     1       1.792   8.030  20.380  0.00  0.00    +0.000 A 
ATOM     17  C   UNL     1       2.356   6.896  19.795  0.00  0.00    +0.000 A 
ENDBRANCH   9  12
BRANCH   1  18
ATOM     18  C   UNL     1       6.400   4.961  15.983  0.00  0.00    +0.000 C 
BRANCH  18  19
ATOM     19  C   UNL     1       7.435   4.730  17.088  0.00  0.00    +0.000 C 
BRANCH  19  21
ATOM     20  C   UNL     1       7.702   5.766  19.244  0.00  0.00    +0.000 C 
ATOM     21  N   UNL     1       7.740   5.968  17.802  0.00  0.00    +0.000 NA
ATOM     22  H   UNL     1       8.659   6.318  17.544  0.00  0.00    +0.000 HD
ENDBRANCH  19  21
ENDBRANCH  18  19
ENDBRANCH   1  18
TORSDOF 4
ENDMDL
MODEL 2
REMARK VINA RESULT:      -7.6      1.335      2.209
REMARK  Name = 
REMARK  5 active torsions:
REMARK  status: ('A' for Active; 'I' for Inactive)
REMARK    1  A    between atoms: C_1  and  N_2
REMARK    2  A    between atoms: N_2  and  C_3
REMARK    3  A    between atoms: C_3  and  C_4
REMARK    4  A    between atoms: C_4  and  C_5
REMARK    5  A    between atoms: N_13  and  C_14
REMARK                            x       y       z     vdW  Elec       q    Type
REMARK                         _______ _______ _______ _____ _____    ______ ____
ROOT
ATOM      1  C   UNL     1       5.089   4.840  16.382  0.00  0.00    +0.000 C 
ATOM      2  C   UNL     1       4.956   3.603  17.259  0.00  0.00    +0.000 C 
ATOM      3  C   UNL     1       3.546   3.421  17.731  0.00  0.00    +0.000 A 
ATOM      4  C   UNL     1       3.050   2.126  17.955  0.00  0.00    +0.000 A 
ATOM      5  C   UNL     1       1.762   1.941  18.446  0.00  0.00    +0.000 A 
ATOM      6  C   UNL     1       0.963   3.044  18.718  0.00  0.00    +0.000 A 
ATOM      7  C   UNL     1       1.455   4.335  18.503  0.00  0.00    +0.000 A 
ATOM      8  C   UNL     1       2.758   4.544  18.020  0.00  0.00    +0.000 A 
ATOM      9  N   UNL     1       3.294   5.847  17.777  0.00  0.00    +0.000 N 
ATOM     10  C   UNL     1       4.481   6.064  17.067  0.00  0.00    +0.000 C 
ATOM     11  O   UNL     1       4.991   7.178  16.919  0.00  0.00    +0.000 OA
ENDROOT
BRANCH   9  12
ATOM     12  C   UNL     1       2.647   6.968  18.372  0.00  0.00    +0.000 A 
ATOM     13  C   UNL     1       2.425   6.996  19.754  0.00  0.00    +0.000 A 
ATOM     14  C   UNL     1       1.751   8.072  20.335  0.00  0.00    +0.000 A 
ATOM     15  C   UNL     1       1.272   9.108  19.536  0.00  0.00    +0.000 A 
ATOM     16  C   UNL     1       1.475   9.080  18.157  0.00  0.00    +0.000 A 
ATOM     17  C   UNL     1       2.168   8.017  17.575  0.00  0.00    +0.000 A 
ENDBRANCH   9  12
BRANCH   1  18
ATOM     18  C   UNL     1       6.569   5.107  16.026  0.00  0.00    +0.000 C 
BRANCH  18  19
ATOM     19  C   UNL     1       6.972   4.773  14.587  0.00  0.00    +0.000 C 
BRANCH  19  21
ATOM     20  C   UNL     1       6.173   3.587  12.651  0.00  0.00    +0.000 C 
ATOM     21  N   UNL     1       6.283   3.579  14.103  0.00  0.00    +0.000 NA
ATOM     22  H   UNL     1       6.775   2.736  14.390  0.00  0.00    +0.000 HD
ENDBRANCH  19  21
ENDBRANCH  18  19
ENDBRANCH   1  18
TORSDOF 4
ENDMDL
MODEL 3
REMARK VINA RESULT:      -7.6      0.186      1.071
REMARK  Name = 
REMARK  5 active torsions:
REMARK  status: ('A' for Active; 'I' for Inactive)
REMARK    1  A    between atoms: C_1  and  N_2
REMARK    2  A    between atoms: N_2  and  C_3
REMARK    3  A    between atoms: C_3  and  C_4
REMARK    4  A    between atoms: C_4  and  C_5
REMARK    5  A    between atoms: N_13  and  C_14
REMARK                            x       y       z     vdW  Elec       q    Type
REMARK                         _______ _______ _______ _____ _____    ______ ____
ROOT
ATOM      1  C   UNL     1       4.838   4.667  16.505  0.00  0.00    +0.000 C 
ATOM      2  C   UNL     1       4.724   3.471  17.441  0.00  0.00    +0.000 C 
ATOM      3  C   UNL     1       3.334   3.336  17.984  0.00  0.00    +0.000 A 
ATOM      4  C   UNL     1       2.828   2.062  18.287  0.00  0.00    +0.000 A 
ATOM      5  C   UNL     1       1.561   1.922  18.843  0.00  0.00    +0.000 A 
ATOM      6  C   UNL     1       0.794   3.051  19.103  0.00  0.00    +0.000 A 
ATOM      7  C   UNL     1       1.298   4.322  18.809  0.00  0.00    +0.000 A 
ATOM      8  C   UNL     1       2.580   4.485  18.258  0.00  0.00    +0.000 A 
ATOM      9  N   UNL     1       3.126   5.766  17.934  0.00  0.00    +0.000 N 
ATOM     10  C   UNL     1       4.282   5.930  17.162  0.00  0.00    +0.000 C 
ATOM     11  O   UNL     1       4.804   7.026  16.942  0.00  0.00    +0.000 OA
ENDROOT
BRANCH   9  12
ATOM     12  C   UNL     1       2.526   6.924  18.509  0.00  0.00    +0.000 A 
ATOM     13  C   UNL     1       2.354   7.008  19.896  0.00  0.00    +0.000 A 
ATOM     14  C   UNL     1       1.726   8.120  20.458  0.00  0.00    +0.000 A 
ATOM     15  C   UNL     1       1.243   9.138  19.637  0.00  0.00    +0.000 A 
ATOM     16  C   UNL     1       1.397   9.055  18.255  0.00  0.00    +0.000 A 
ATOM     17  C   UNL     1       2.044   7.954  17.690  0.00  0.00    +0.000 A 
ENDBRANCH   9  12
BRANCH   1  18
ATOM     18  C   UNL     1       6.304   4.890  16.070  0.00  0.00    +0.000 C 
BRANCH  18  19
ATOM     19  C   UNL     1       7.353   4.705  17.172  0.00  0.00    +0.000 C 
BRANCH  19  21
ATOM     20  C   UNL     1       7.632   5.762  19.316  0.00  0.00    +0.000 C 
ATOM     21  N   UNL     1       7.618   5.959  17.873  0.00  0.00    +0.000 NA
ATOM     22  H   UNL     1       8.511   6.352  17.586  0.00  0.00    +0.000 HD
ENDBRANCH  19  21
ENDBRANCH  18  19
ENDBRANCH   1  18
TORSDOF 4
ENDMDL
MODEL 4
REMARK VINA RESULT:      -7.6      1.625      4.333
REMARK  Name = 
REMARK  5 active torsions:
REMARK  status: ('A' for Active; 'I' for Inactive)
REMARK    1  A    between atoms: C_1  and  N_2
REMARK    2  A    between atoms: N_2  and  C_3
REMARK    3  A    between atoms: C_3  and  C_4
REMARK    4  A    between atoms: C_4  and  C_5
REMARK    5  A    between atoms: N_13  and  C_14
REMARK                            x       y       z     vdW  Elec       q    Type
REMARK                         _______ _______ _______ _____ _____    ______ ____
ROOT
ATOM      1  C   UNL     1       4.638   6.365  17.219  0.00  0.00    +0.000 C 
ATOM      2  C   UNL     1       3.627   7.418  16.786  0.00  0.00    +0.000 C 
ATOM      3  C   UNL     1       2.805   7.892  17.946  0.00  0.00    +0.000 A 
ATOM      4  C   UNL     1       2.329   9.212  17.967  0.00  0.00    +0.000 A 
ATOM      5  C   UNL     1       1.518   9.652  19.008  0.00  0.00    +0.000 A 
ATOM      6  C   UNL     1       1.177   8.777  20.032  0.00  0.00    +0.000 A 
ATOM      7  C   UNL     1       1.644   7.459  20.011  0.00  0.00    +0.000 A 
ATOM      8  C   UNL     1       2.453   6.992  18.962  0.00  0.00    +0.000 A 
ATOM      9  N   UNL     1       2.959   5.656  18.910  0.00  0.00    +0.000 N 
ATOM     10  C   UNL     1       3.959   5.252  18.017  0.00  0.00    +0.000 C 
ATOM     11  O   UNL     1       4.347   4.086  17.913  0.00  0.00    +0.000 OA
ENDROOT
BRANCH   9  12
ATOM     12  C   UNL     1       2.346   4.667  19.732  0.00  0.00    +0.000 A 
ATOM     13  C   UNL     1       2.856   4.403  21.010  0.00  0.00    +0.000 A 
ATOM     14  C   UNL     1       2.286   3.404  21.800  0.00  0.00    +0.000 A 
ATOM     15  C   UNL     1       1.225   2.646  21.308  0.00  0.00    +0.000 A 
ATOM     16  C   UNL     1       0.722   2.891  20.031  0.00  0.00    +0.000 A 
ATOM     17  C   UNL     1       1.275   3.904  19.247  0.00  0.00    +0.000 A 
ENDBRANCH   9  12
BRANCH   1  18
ATOM     18  C   UNL     1       5.374   5.772  15.996  0.00  0.00    +0.000 C 
BRANCH  18  19
ATOM     19  C   UNL     1       6.901   5.711  16.112  0.00  0.00    +0.000 C 
BRANCH  19  21
ATOM     20  C   UNL     1       7.709   4.782  18.180  0.00  0.00    +0.000 C 
ATOM     21  N   UNL     1       7.337   4.499  16.801  0.00  0.00    +0.000 NA
ATOM     22  H   UNL     1       6.601   3.796  16.797  0.00  0.00    +0.000 HD
ENDBRANCH  19  21
ENDBRANCH  18  19
ENDBRANCH   1  18
TORSDOF 4
ENDMDL
MODEL 5
REMARK VINA RESULT:      -7.5      1.888      5.746
REMARK  Name = 
REMARK  5 active torsions:
REMARK  status: ('A' for Active; 'I' for Inactive)
REMARK    1  A    between atoms: C_1  and  N_2
REMARK    2  A    between atoms: N_2  and  C_3
REMARK    3  A    between atoms: C_3  and  C_4
REMARK    4  A    between atoms: C_4  and  C_5
REMARK    5  A    between atoms: N_13  and  C_14
REMARK                            x       y       z     vdW  Elec       q    Type
REMARK                         _______ _______ _______ _____ _____    ______ ____
ROOT
ATOM      1  C   UNL     1       2.146   4.940  20.281  0.00  0.00    +0.000 C 
ATOM      2  C   UNL     1       1.984   6.358  20.812  0.00  0.00    +0.000 C 
ATOM      3  C   UNL     1       2.053   7.364  19.704  0.00  0.00    +0.000 A 
ATOM      4  C   UNL     1       1.320   8.558  19.803  0.00  0.00    +0.000 A 
ATOM      5  C   UNL     1       1.416   9.527  18.810  0.00  0.00    +0.000 A 
ATOM      6  C   UNL     1       2.244   9.313  17.715  0.00  0.00    +0.000 A 
ATOM      7  C   UNL     1       2.980   8.128  17.617  0.00  0.00    +0.000 A 
ATOM      8  C   UNL     1       2.907   7.142  18.615  0.00  0.00    +0.000 A 
ATOM      9  N   UNL     1       3.636   5.913  18.545  0.00  0.00    +0.000 N 
ATOM     10  C   UNL     1       3.384   4.828  19.392  0.00  0.00    +0.000 C 
ATOM     11  O   UNL     1       4.057   3.794  19.390  0.00  0.00    +0.000 OA
ENDROOT
BRANCH   9  12
ATOM     12  C   UNL     1       4.735   5.828  17.643  0.00  0.00    +0.000 A 
ATOM     13  C   UNL     1       4.587   5.166  16.418  0.00  0.00    +0.000 A 
ATOM     14  C   UNL     1       5.673   5.041  15.551  0.00  0.00    +0.000 A 
ATOM     15  C   UNL     1       6.919   5.550  15.917  0.00  0.00    +0.000 A 
ATOM     16  C   UNL     1       7.079   6.196  17.141  0.00  0.00    +0.000 A 
ATOM     17  C   UNL     1       5.989   6.343  18.000  0.00  0.00    +0.000 A 
ENDBRANCH   9  12
BRANCH   1  18
ATOM     18  C   UNL     1       2.227   3.923  21.442  0.00  0.00    +0.000 C 
BRANCH  18  19
ATOM     19  C   UNL     1       1.349   2.676  21.288  0.00  0.00    +0.000 C 
BRANCH  19  21
ATOM     20  C   UNL     1       0.854   2.125  18.999  0.00  0.00    +0.000 C 
ATOM     21  N   UNL     1       0.397   2.825  20.190  0.00  0.00    +0.000 NA
ATOM     22  H   UNL     1      -0.517   2.465  20.453  0.00  0.00    +0.000 HD
ENDBRANCH  19  21
ENDBRANCH  18  19
ENDBRANCH   1  18
TORSDOF 4
ENDMDL
MODEL 6
REMARK VINA RESULT:      -7.5      1.334      1.936
REMARK  Name = 
REMARK  5 active torsions:
REMARK  status: ('A' for Active; 'I' for Inactive)
REMARK    1  A    between atoms: C_1  and  N_2
REMARK    2  A    between atoms: N_2  and  C_3
REMARK    3  A    between atoms: C_3  and  C_4
REMARK    4  A    between atoms: C_4  and  C_5
REMARK    5  A    between atoms: N_13  and  C_14
REMARK                            x       y       z     vdW  Elec       q    Type
REMARK                         _______ _______ _______ _____ _____    ______ ____
ROOT
ATOM      1  C   UNL     1       5.030   4.805  16.448  0.00  0.00    +0.000 C 
ATOM      2  C   UNL     1       4.924   3.571  17.333  0.00  0.00    +0.000 C 
ATOM      3  C   UNL     1       3.517   3.359  17.804  0.00  0.00    +0.000 A 
ATOM      4  C   UNL     1       3.051   2.055  18.036  0.00  0.00    +0.000 A 
ATOM      5  C   UNL     1       1.766   1.844  18.527  0.00  0.00    +0.000 A 
ATOM      6  C   UNL     1       0.942   2.930  18.790  0.00  0.00    +0.000 A 
ATOM      7  C   UNL     1       1.405   4.231  18.567  0.00  0.00    +0.000 A 
ATOM      8  C   UNL     1       2.704   4.466  18.084  0.00  0.00    +0.000 A 
ATOM      9  N   UNL     1       3.210   5.780  17.833  0.00  0.00    +0.000 N 
ATOM     10  C   UNL     1       4.393   6.019  17.124  0.00  0.00    +0.000 C 
ATOM     11  O   UNL     1       4.877   7.143  16.968  0.00  0.00    +0.000 OA
ENDROOT
BRANCH   9  12
ATOM     12  C   UNL     1       2.537   6.889  18.420  0.00  0.00    +0.000 A 
ATOM     13  C   UNL     1       2.114   7.956  17.618  0.00  0.00    +0.000 A 
ATOM     14  C   UNL     1       1.494   9.065  18.195  0.00  0.00    +0.000 A 
ATOM     15  C   UNL     1       1.319   9.127  19.576  0.00  0.00    +0.000 A 
ATOM     16  C   UNL     1       1.752   8.076  20.384  0.00  0.00    +0.000 A 
ATOM     17  C   UNL     1       2.352   6.955  19.808  0.00  0.00    +0.000 A 
ENDBRANCH   9  12
BRANCH   1  18
ATOM     18  C   UNL     1       6.504   5.103  16.093  0.00  0.00    +0.000 C 
BRANCH  18  19
ATOM     19  C   UNL     1       6.913   4.781  14.652  0.00  0.00    +0.000 C 
BRANCH  19  21
ATOM     20  C   UNL     1       6.305   3.615  12.636  0.00  0.00    +0.000 C 
ATOM     21  N   UNL     1       5.849   4.079  13.938  0.00  0.00    +0.000 NA
ATOM     22  H   UNL     1       5.520   3.280  14.475  0.00  0.00    +0.000 HD
ENDBRANCH  19  21
ENDBRANCH  18  19
ENDBRANCH   1  18
TORSDOF 4
ENDMDL
MODEL 7
REMARK VINA RESULT:      -7.4      1.909      5.791
REMARK  Name = 
REMARK  5 active torsions:
REMARK  status: ('A' for Active; 'I' for Inactive)
REMARK    1  A    between atoms: C_1  and  N_2
REMARK    2  A    between atoms: N_2  and  C_3
REMARK    3  A    between atoms: C_3  and  C_4
REMARK    4  A    between atoms: C_4  and  C_5
REMARK    5  A    between atoms: N_13  and  C_14
REMARK                            x       y       z     vdW  Elec       q    Type
REMARK                         _______ _______ _______ _____ _____    ______ ____
ROOT
ATOM      1  C   UNL     1       2.127   4.949  20.300  0.00  0.00    +0.000 C 
ATOM      2  C   UNL     1       1.967   6.375  20.808  0.00  0.00    +0.000 C 
ATOM      3  C   UNL     1       2.064   7.365  19.688  0.00  0.00    +0.000 A 
ATOM      4  C   UNL     1       1.339   8.566  19.758  0.00  0.00    +0.000 A 
ATOM      5  C   UNL     1       1.460   9.521  18.753  0.00  0.00    +0.000 A 
ATOM      6  C   UNL     1       2.306   9.284  17.677  0.00  0.00    +0.000 A 
ATOM      7  C   UNL     1       3.034   8.093  17.608  0.00  0.00    +0.000 A 
ATOM      8  C   UNL     1       2.936   7.121  18.618  0.00  0.00    +0.000 A 
ATOM      9  N   UNL     1       3.655   5.886  18.578  0.00  0.00    +0.000 N 
ATOM     10  C   UNL     1       3.380   4.814  19.435  0.00  0.00    +0.000 C 
ATOM     11  O   UNL     1       4.045   3.775  19.460  0.00  0.00    +0.000 OA
ENDROOT
BRANCH   9  12
ATOM     12  C   UNL     1       4.770   5.780  17.697  0.00  0.00    +0.000 A 
ATOM     13  C   UNL     1       6.014   6.301  18.075  0.00  0.00    +0.000 A 
ATOM     14  C   UNL     1       7.097   6.238  17.198  0.00  0.00    +0.000 A 
ATOM     15  C   UNL     1       6.936   5.682  15.930  0.00  0.00    +0.000 A 
ATOM     16  C   UNL     1       5.697   5.175  15.540  0.00  0.00    +0.000 A 
ATOM     17  C   UNL     1       4.617   5.216  16.423  0.00  0.00    +0.000 A 
ENDBRANCH   9  12
BRANCH   1  18
ATOM     18  C   UNL     1       2.179   3.947  21.476  0.00  0.00    +0.000 C 
BRANCH  18  19
ATOM     19  C   UNL     1       1.332   2.682  21.303  0.00  0.00    +0.000 C 
BRANCH  19  21
ATOM     20  C   UNL     1       0.881   2.096  19.012  0.00  0.00    +0.000 C 
ATOM     21  N   UNL     1       0.400   2.812  20.185  0.00  0.00    +0.000 NA
ATOM     22  H   UNL     1      -0.518   2.453  20.436  0.00  0.00    +0.000 HD
ENDBRANCH  19  21
ENDBRANCH  18  19
ENDBRANCH   1  18
TORSDOF 4
ENDMDL
MODEL 8
REMARK VINA RESULT:      -7.4      1.605      4.299
REMARK  Name = 
REMARK  5 active torsions:
REMARK  status: ('A' for Active; 'I' for Inactive)
REMARK    1  A    between atoms: C_1  and  N_2
REMARK    2  A    between atoms: N_2  and  C_3
REMARK    3  A    between atoms: C_3  and  C_4
REMARK    4  A    between atoms: C_4  and  C_5
REMARK    5  A    between atoms: N_13  and  C_14
REMARK                            x       y       z     vdW  Elec       q    Type
REMARK                         _______ _______ _______ _____ _____    ______ ____
ROOT
ATOM      1  C   UNL     1       4.510   6.636  17.267  0.00  0.00    +0.000 C 
ATOM      2  C   UNL     1       3.443   7.664  16.920  0.00  0.00    +0.000 C 
ATOM      3  C   UNL     1       2.630   8.032  18.124  0.00  0.00    +0.000 A 
ATOM      4  C   UNL     1       2.095   9.326  18.232  0.00  0.00    +0.000 A 
ATOM      5  C   UNL     1       1.293   9.667  19.316  0.00  0.00    +0.000 A 
ATOM      6  C   UNL     1       1.018   8.721  20.295  0.00  0.00    +0.000 A 
ATOM      7  C   UNL     1       1.543   7.430  20.187  0.00  0.00    +0.000 A 
ATOM      8  C   UNL     1       2.346   7.061  19.094  0.00  0.00    +0.000 A 
ATOM      9  N   UNL     1       2.910   5.755  18.954  0.00  0.00    +0.000 N 
ATOM     10  C   UNL     1       3.903   5.449  18.016  0.00  0.00    +0.000 C 
ATOM     11  O   UNL     1       4.341   4.310  17.835  0.00  0.00    +0.000 OA
ENDROOT
BRANCH   9  12
ATOM     12  C   UNL     1       2.364   4.693  19.731  0.00  0.00    +0.000 A 
ATOM     13  C   UNL     1       1.311   3.922  19.223  0.00  0.00    +0.000 A 
ATOM     14  C   UNL     1       0.744   2.911  19.999  0.00  0.00    +0.000 A 
ATOM     15  C   UNL     1       1.205   2.684  21.294  0.00  0.00    +0.000 A 
ATOM     16  C   UNL     1       2.242   3.457  21.814  0.00  0.00    +0.000 A 
ATOM     17  C   UNL     1       2.827   4.454  21.032  0.00  0.00    +0.000 A 
ENDBRANCH   9  12
BRANCH   1  18
ATOM     18  C   UNL     1       5.241   6.149  15.996  0.00  0.00    +0.000 C 
BRANCH  18  19
ATOM     19  C   UNL     1       6.756   5.966  16.135  0.00  0.00    +0.000 C 
BRANCH  19  21
ATOM     20  C   UNL     1       7.729   4.587  17.851  0.00  0.00    +0.000 C 
ATOM     21  N   UNL     1       7.095   4.604  16.541  0.00  0.00    +0.000 NA
ATOM     22  H   UNL     1       6.264   4.018  16.571  0.00  0.00    +0.000 HD
ENDBRANCH  19  21
ENDBRANCH  18  19
ENDBRANCH   1  18
TORSDOF 4
ENDMDL
MODEL 9
REMARK VINA RESULT:      -7.3      1.369      1.728
REMARK  Name = 
REMARK  5 active torsions:
REMARK  status: ('A' for Active; 'I' for Inactive)
REMARK    1  A    between atoms: C_1  and  N_2
REMARK    2  A    between atoms: N_2  and  C_3
REMARK    3  A    between atoms: C_3  and  C_4
REMARK    4  A    between atoms: C_4  and  C_5
REMARK    5  A    between atoms: N_13  and  C_14
REMARK                            x       y       z     vdW  Elec       q    Type
REMARK                         _______ _______ _______ _____ _____    ______ ____
ROOT
ATOM      1  C   UNL     1       4.631   4.596  17.224  0.00  0.00    +0.000 C 
ATOM      2  C   UNL     1       4.857   3.806  18.506  0.00  0.00    +0.000 C 
ATOM      3  C   UNL     1       3.616   3.764  19.345  0.00  0.00    +0.000 A 
ATOM      4  C   UNL     1       3.361   2.646  20.154  0.00  0.00    +0.000 A 
ATOM      5  C   UNL     1       2.243   2.615  20.981  0.00  0.00    +0.000 A 
ATOM      6  C   UNL     1       1.375   3.699  21.007  0.00  0.00    +0.000 A 
ATOM      7  C   UNL     1       1.629   4.818  20.207  0.00  0.00    +0.000 A 
ATOM      8  C   UNL     1       2.760   4.874  19.375  0.00  0.00    +0.000 A 
ATOM      9  N   UNL     1       3.048   5.995  18.535  0.00  0.00    +0.000 N 
ATOM     10  C   UNL     1       4.018   5.963  17.526  0.00  0.00    +0.000 C 
ATOM     11  O   UNL     1       4.327   6.947  16.849  0.00  0.00    +0.000 OA
ENDROOT
BRANCH   9  12
ATOM     12  C   UNL     1       2.393   7.231  18.806  0.00  0.00    +0.000 A 
ATOM     13  C   UNL     1       2.051   7.570  20.121  0.00  0.00    +0.000 A 
ATOM     14  C   UNL     1       1.370   8.759  20.384  0.00  0.00    +0.000 A 
ATOM     15  C   UNL     1       1.001   9.599  19.335  0.00  0.00    +0.000 A 
ATOM     16  C   UNL     1       1.322   9.261  18.021  0.00  0.00    +0.000 A 
ATOM     17  C   UNL     1       2.024   8.084  17.756  0.00  0.00    +0.000 A 
ENDBRANCH   9  12
BRANCH   1  18
ATOM     18  C   UNL     1       5.952   4.764  16.440  0.00  0.00    +0.000 C 
BRANCH  18  19
ATOM     19  C   UNL     1       7.114   5.375  17.229  0.00  0.00    +0.000 C 
BRANCH  19  21
ATOM     20  C   UNL     1       7.694   7.670  17.667  0.00  0.00    +0.000 C 
ATOM     21  N   UNL     1       7.549   6.642  16.645  0.00  0.00    +0.000 NA
ATOM     22  H   UNL     1       8.437   6.532  16.162  0.00  0.00    +0.000 HD
ENDBRANCH  19  21
ENDBRANCH  18  19
ENDBRANCH   1  18
TORSDOF 4
ENDMDL
