MODEL 1
REMARK VINA RESULT:      -7.7      0.000      0.000
REMARK  Name = 
REMARK  9 active torsions:
REMARK  status: ('A' for Active; 'I' for Inactive)
REMARK    1  A    between atoms: C_1  and  O_2
REMARK    2  A    between atoms: O_2  and  C_3
REMARK    3  A    between atoms: C_6  and  O_7
REMARK    4  A    between atoms: O_7  and  C_8
REMARK    5  A    between atoms: C_8  and  C_9
REMARK    6  A    between atoms: C_9  and  N_10
REMARK    7  A    between atoms: C_14  and  C_15
REMARK    8  A    between atoms: C_14  and  C_16
REMARK    9  A    between atoms: C_19  and  C_20
REMARK                            x       y       z     vdW  Elec       q    Type
REMARK                         _______ _______ _______ _____ _____    ______ ____
ROOT
ATOM      1  N   UNL     1       3.840   4.252  18.297  0.00  0.00    +0.000 N 
ATOM      2  C   UNL     1       4.712   3.513  19.031  0.00  0.00    +0.000 C 
ATOM      3  O   UNL     1       4.455   2.759  19.952  0.00  0.00    +0.000 OA
ATOM      4  N   UNL     1       5.985   3.763  18.587  0.00  0.00    +0.000 N 
ATOM      5  C   UNL     1       6.027   4.698  17.482  0.00  0.00    +0.000 C 
ATOM      6  C   UNL     1       6.567   3.962  16.254  0.00  0.00    +0.000 C 
ATOM      7  C   UNL     1       4.508   4.979  17.343  0.00  0.00    +0.000 C 
ATOM      8  O   UNL     1       3.985   5.728  16.529  0.00  0.00    +0.000 OA
ATOM      9  H   UNL     1       6.788   3.320  19.013  0.00  0.00    +0.000 HD
ENDROOT
BRANCH   5  10
ATOM     10  C   UNL     1       6.801   5.979  17.806  0.00  0.00    +0.000 A 
ATOM     11  C   UNL     1       6.621   7.165  17.070  0.00  0.00    +0.000 A 
ATOM     12  C   UNL     1       7.337   8.326  17.378  0.00  0.00    +0.000 A 
ATOM     13  C   UNL     1       8.263   8.333  18.424  0.00  0.00    +0.000 A 
ATOM     14  C   UNL     1       9.018   9.580  18.775  0.00  0.00    +0.000 C 
ATOM     15  C   UNL     1       8.467   7.155  19.147  0.00  0.00    +0.000 A 
ATOM     16  C   UNL     1       7.752   5.994  18.838  0.00  0.00    +0.000 A 
ENDBRANCH   5  10
BRANCH   1  17
ATOM     17  C   UNL     1       2.430   4.393  18.612  0.00  0.00    +0.000 C 
BRANCH  17  18
ATOM     18  C   UNL     1       2.233   5.262  19.859  0.00  0.00    +0.000 C 
BRANCH  18  19
ATOM     19  O   UNL     1       3.002   6.462  19.722  0.00  0.00    +0.000 OA
BRANCH  19  23
ATOM     20  C   UNL     1       0.773   9.917  18.980  0.00  0.00    +0.000 A 
ATOM     21  C   UNL     1       0.796   9.310  20.237  0.00  0.00    +0.000 A 
ATOM     22  C   UNL     1       1.563   8.161  20.454  0.00  0.00    +0.000 A 
ATOM     23  C   UNL     1       2.282   7.584  19.406  0.00  0.00    +0.000 A 
ATOM     24  C   UNL     1       2.261   8.191  18.151  0.00  0.00    +0.000 A 
ATOM     25  C   UNL     1       1.507   9.349  17.938  0.00  0.00    +0.000 A 
BRANCH  20  27
ATOM     26  C   UNL     1      -1.419  10.794  18.975  0.00  0.00    +0.000 C 
ATOM     27  O   UNL     1      -0.017  11.027  18.869  0.00  0.00    +0.000 OA
ENDBRANCH  20  27
ENDBRANCH  19  23
ENDBRANCH  18  19
ENDBRANCH  17  18
ENDBRANCH   1  17
TORSDOF 6
ENDMDL
MODEL 2
REMARK VINA RESULT:      -7.6      1.114      1.386
REMARK  Name = 
REMARK  9 active torsions:
REMARK  status: ('A' for Active; 'I' for Inactive)
REMARK    1  A    between atoms: C_1  and  O_2
REMARK    2  A    between atoms: O_2  and  C_3
REMARK    3  A    between atoms: C_6  and  O_7
REMARK    4  A    between atoms: O_7  and  C_8
REMARK    5  A    between atoms: C_8  and  C_9
REMARK    6  A    between atoms: C_9  and  N_10
REMARK    7  A    between atoms: C_14  and  C_15
REMARK    8  A    between atoms: C_14  and  C_16
REMARK    9  A    between atoms: C_19  and  C_20
REMARK                            x       y       z     vdW  Elec       q    Type
REMARK                         _______ _______ _______ _____ _____    ______ ____
ROOT
ATOM      1  N   UNL     1       2.756   3.671  19.455  0.00  0.00    +0.000 N 
ATOM      2  C   UNL     1       3.750   2.987  20.081  0.00  0.00    +0.000 C 
ATOM      3  O   UNL     1       3.700   2.427  21.161  0.00  0.00    +0.000 OA
ATOM      4  N   UNL     1       4.877   3.038  19.303  0.00  0.00    +0.000 N 
ATOM      5  C   UNL     1       4.681   3.765  18.066  0.00  0.00    +0.000 C 
ATOM      6  C   UNL     1       4.852   2.786  16.902  0.00  0.00    +0.000 C 
ATOM      7  C   UNL     1       3.192   4.161  18.249  0.00  0.00    +0.000 C 
ATOM      8  O   UNL     1       2.515   4.808  17.462  0.00  0.00    +0.000 OA
ATOM      9  H   UNL     1       5.739   2.599  19.596  0.00  0.00    +0.000 HD
ENDROOT
BRANCH   5  10
ATOM     10  C   UNL     1       5.573   5.004  17.947  0.00  0.00    +0.000 A 
ATOM     11  C   UNL     1       5.280   6.051  17.054  0.00  0.00    +0.000 A 
ATOM     12  C   UNL     1       6.107   7.174  16.957  0.00  0.00    +0.000 A 
ATOM     13  C   UNL     1       7.258   7.280  17.741  0.00  0.00    +0.000 A 
ATOM     14  C   UNL     1       8.137   8.492  17.660  0.00  0.00    +0.000 C 
ATOM     15  C   UNL     1       7.571   6.236  18.616  0.00  0.00    +0.000 A 
ATOM     16  C   UNL     1       6.745   5.112  18.712  0.00  0.00    +0.000 A 
ENDBRANCH   5  10
BRANCH   1  17
ATOM     17  C   UNL     1       1.482   3.996  20.072  0.00  0.00    +0.000 C 
BRANCH  17  18
ATOM     18  C   UNL     1       1.584   5.287  20.890  0.00  0.00    +0.000 C 
BRANCH  18  19
ATOM     19  O   UNL     1       2.555   6.150  20.288  0.00  0.00    +0.000 OA
BRANCH  19  23
ATOM     20  C   UNL     1       1.030   9.873  19.162  0.00  0.00    +0.000 A 
ATOM     21  C   UNL     1       0.784   9.326  20.423  0.00  0.00    +0.000 A 
ATOM     22  C   UNL     1       1.320   8.082  20.772  0.00  0.00    +0.000 A 
ATOM     23  C   UNL     1       2.074   7.355  19.849  0.00  0.00    +0.000 A 
ATOM     24  C   UNL     1       2.321   7.902  18.590  0.00  0.00    +0.000 A 
ATOM     25  C   UNL     1       1.797   9.153  18.248  0.00  0.00    +0.000 A 
BRANCH  20  27
ATOM     26  C   UNL     1      -0.840  11.277  19.492  0.00  0.00    +0.000 C 
ATOM     27  O   UNL     1       0.449  11.086  18.917  0.00  0.00    +0.000 OA
ENDBRANCH  20  27
ENDBRANCH  19  23
ENDBRANCH  18  19
ENDBRANCH  17  18
ENDBRANCH   1  17
TORSDOF 6
ENDMDL
MODEL 3
REMARK VINA RESULT:      -7.6      2.933      6.519
REMARK  Name = 
REMARK  9 active torsions:
REMARK  status: ('A' for Active; 'I' for Inactive)
REMARK    1  A    between atoms: C_1  and  O_2
REMARK    2  A    between atoms: O_2  and  C_3
REMARK    3  A    between atoms: C_6  and  O_7
REMARK    4  A    between atoms: O_7  and  C_8
REMARK    5  A    between atoms: C_8  and  C_9
REMARK    6  A    between atoms: C_9  and  N_10
REMARK    7  A    between atoms: C_14  and  C_15
REMARK    8  A    between atoms: C_14  and  C_16
REMARK    9  A    between atoms: C_19  and  C_20
REMARK                            x       y       z     vdW  Elec       q    Type
REMARK                         _______ _______ _______ _____ _____    ______ ____
ROOT
ATOM      1  N   UNL     1       6.390   5.925  17.391  0.00  0.00    +0.000 N 
ATOM      2  C   UNL     1       5.534   5.876  16.337  0.00  0.00    +0.000 C 
ATOM      3  O   UNL     1       5.757   6.196  15.184  0.00  0.00    +0.000 OA
ATOM      4  N   UNL     1       4.320   5.415  16.777  0.00  0.00    +0.000 N 
ATOM      5  C   UNL     1       4.309   5.104  18.191  0.00  0.00    +0.000 C 
ATOM      6  C   UNL     1       4.073   3.600  18.349  0.00  0.00    +0.000 C 
ATOM      7  C   UNL     1       5.775   5.478  18.535  0.00  0.00    +0.000 C 
ATOM      8  O   UNL     1       6.300   5.400  19.637  0.00  0.00    +0.000 OA
ATOM      9  H   UNL     1       3.535   5.315  16.148  0.00  0.00    +0.000 HD
ENDROOT
BRANCH   5  10
ATOM     10  C   UNL     1       3.317   5.956  18.988  0.00  0.00    +0.000 A 
ATOM     11  C   UNL     1       2.702   5.482  20.161  0.00  0.00    +0.000 A 
ATOM     12  C   UNL     1       1.797   6.273  20.876  0.00  0.00    +0.000 A 
ATOM     13  C   UNL     1       1.471   7.558  20.434  0.00  0.00    +0.000 A 
ATOM     14  C   UNL     1       0.520   8.421  21.207  0.00  0.00    +0.000 C 
ATOM     15  C   UNL     1       2.060   8.031  19.257  0.00  0.00    +0.000 A 
ATOM     16  C   UNL     1       2.963   7.239  18.542  0.00  0.00    +0.000 A 
ENDBRANCH   5  10
BRANCH   1  17
ATOM     17  C   UNL     1       7.700   6.548  17.343  0.00  0.00    +0.000 C 
BRANCH  17  18
ATOM     18  C   UNL     1       7.606   8.046  17.649  0.00  0.00    +0.000 C 
BRANCH  18  19
ATOM     19  O   UNL     1       8.573   8.384  18.648  0.00  0.00    +0.000 OA
BRANCH  19  23
ATOM     20  C   UNL     1       9.281  12.497  18.831  0.00  0.00    +0.000 A 
ATOM     21  C   UNL     1       8.569  11.917  17.780  0.00  0.00    +0.000 A 
ATOM     22  C   UNL     1       8.340  10.538  17.756  0.00  0.00    +0.000 A 
ATOM     23  C   UNL     1       8.854   9.719  18.763  0.00  0.00    +0.000 A 
ATOM     24  C   UNL     1       9.564  10.298  19.814  0.00  0.00    +0.000 A 
ATOM     25  C   UNL     1       9.780  11.680  19.845  0.00  0.00    +0.000 A 
BRANCH  20  27
ATOM     26  C   UNL     1       8.423  14.570  18.096  0.00  0.00    +0.000 C 
ATOM     27  O   UNL     1       9.462  13.850  18.753  0.00  0.00    +0.000 OA
ENDBRANCH  20  27
ENDBRANCH  19  23
ENDBRANCH  18  19
ENDBRANCH  17  18
ENDBRANCH   1  17
TORSDOF 6
ENDMDL
MODEL 4
REMARK VINA RESULT:      -7.6      2.122      5.772
REMARK  Name = 
REMARK  9 active torsions:
REMARK  status: ('A' for Active; 'I' for Inactive)
REMARK    1  A    between atoms: C_1  and  O_2
REMARK    2  A    between atoms: O_2  and  C_3
REMARK    3  A    between atoms: C_6  and  O_7
REMARK    4  A    between atoms: O_7  and  C_8
REMARK    5  A    between atoms: C_8  and  C_9
REMARK    6  A    between atoms: C_9  and  N_10
REMARK    7  A    between atoms: C_14  and  C_15
REMARK    8  A    between atoms: C_14  and  C_16
REMARK    9  A    between atoms: C_19  and  C_20
REMARK                            x       y       z     vdW  Elec       q    Type
REMARK                         _______ _______ _______ _____ _____    ______ ____
ROOT
ATOM      1  N   UNL     1       3.161   3.218  18.553  0.00  0.00    +0.000 N 
ATOM      2  C   UNL     1       1.815   3.034  18.579  0.00  0.00    +0.000 C 
ATOM      3  O   UNL     1       1.167   2.199  17.972  0.00  0.00    +0.000 OA
ATOM      4  N   UNL     1       1.257   3.976  19.403  0.00  0.00    +0.000 N 
ATOM      5  C   UNL     1       2.237   4.855  20.006  0.00  0.00    +0.000 C 
ATOM      6  C   UNL     1       2.214   4.630  21.520  0.00  0.00    +0.000 C 
ATOM      7  C   UNL     1       3.522   4.259  19.372  0.00  0.00    +0.000 C 
ATOM      8  O   UNL     1       4.666   4.649  19.558  0.00  0.00    +0.000 OA
ATOM      9  H   UNL     1       0.258   4.021  19.551  0.00  0.00    +0.000 HD
ENDROOT
BRANCH   5  10
ATOM     10  C   UNL     1       2.054   6.323  19.612  0.00  0.00    +0.000 A 
ATOM     11  C   UNL     1       1.565   7.282  20.518  0.00  0.00    +0.000 A 
ATOM     12  C   UNL     1       1.402   8.619  20.141  0.00  0.00    +0.000 A 
ATOM     13  C   UNL     1       1.711   9.035  18.844  0.00  0.00    +0.000 A 
ATOM     14  C   UNL     1       1.561  10.470  18.438  0.00  0.00    +0.000 C 
ATOM     15  C   UNL     1       2.176   8.086  17.929  0.00  0.00    +0.000 A 
ATOM     16  C   UNL     1       2.338   6.749  18.305  0.00  0.00    +0.000 A 
ENDBRANCH   5  10
BRANCH   1  17
ATOM     17  C   UNL     1       4.055   2.534  17.637  0.00  0.00    +0.000 C 
BRANCH  17  18
ATOM     18  C   UNL     1       4.435   3.442  16.462  0.00  0.00    +0.000 C 
BRANCH  18  19
ATOM     19  O   UNL     1       5.854   3.622  16.447  0.00  0.00    +0.000 OA
BRANCH  19  23
ATOM     20  C   UNL     1       6.981   7.512  17.470  0.00  0.00    +0.000 A 
ATOM     21  C   UNL     1       5.838   7.251  16.713  0.00  0.00    +0.000 A 
ATOM     22  C   UNL     1       5.483   5.935  16.399  0.00  0.00    +0.000 A 
ATOM     23  C   UNL     1       6.290   4.870  16.804  0.00  0.00    +0.000 A 
ATOM     24  C   UNL     1       7.430   5.131  17.562  0.00  0.00    +0.000 A 
ATOM     25  C   UNL     1       7.776   6.447  17.890  0.00  0.00    +0.000 A 
BRANCH  20  27
ATOM     26  C   UNL     1       8.535   9.110  18.252  0.00  0.00    +0.000 C 
ATOM     27  O   UNL     1       7.246   8.832  17.711  0.00  0.00    +0.000 OA
ENDBRANCH  20  27
ENDBRANCH  19  23
ENDBRANCH  18  19
ENDBRANCH  17  18
ENDBRANCH   1  17
TORSDOF 6
ENDMDL
MODEL 5
REMARK VINA RESULT:      -7.5      3.037      6.659
REMARK  Name = 
REMARK  9 active torsions:
REMARK  status: ('A' for Active; 'I' for Inactive)
REMARK    1  A    between atoms: C_1  and  O_2
REMARK    2  A    between atoms: O_2  and  C_3
REMARK    3  A    between atoms: C_6  and  O_7
REMARK    4  A    between atoms: O_7  and  C_8
REMARK    5  A    between atoms: C_8  and  C_9
REMARK    6  A    between atoms: C_9  and  N_10
REMARK    7  A    between atoms: C_14  and  C_15
REMARK    8  A    between atoms: C_14  and  C_16
REMARK    9  A    between atoms: C_19  and  C_20
REMARK                            x       y       z     vdW  Elec       q    Type
REMARK                         _______ _______ _______ _____ _____    ______ ____
ROOT
ATOM      1  N   UNL     1       6.384   6.123  17.403  0.00  0.00    +0.000 N 
ATOM      2  C   UNL     1       5.530   6.094  16.346  0.00  0.00    +0.000 C 
ATOM      3  O   UNL     1       5.744   6.470  15.208  0.00  0.00    +0.000 OA
ATOM      4  N   UNL     1       4.331   5.578  16.762  0.00  0.00    +0.000 N 
ATOM      5  C   UNL     1       4.328   5.206  18.162  0.00  0.00    +0.000 C 
ATOM      6  C   UNL     1       4.136   3.690  18.253  0.00  0.00    +0.000 C 
ATOM      7  C   UNL     1       5.782   5.609  18.524  0.00  0.00    +0.000 C 
ATOM      8  O   UNL     1       6.308   5.499  19.623  0.00  0.00    +0.000 OA
ATOM      9  H   UNL     1       3.550   5.483  16.128  0.00  0.00    +0.000 HD
ENDROOT
BRANCH   5  10
ATOM     10  C   UNL     1       3.311   5.993  18.993  0.00  0.00    +0.000 A 
ATOM     11  C   UNL     1       2.686   5.440  20.125  0.00  0.00    +0.000 A 
ATOM     12  C   UNL     1       1.758   6.172  20.872  0.00  0.00    +0.000 A 
ATOM     13  C   UNL     1       1.417   7.475  20.503  0.00  0.00    +0.000 A 
ATOM     14  C   UNL     1       0.440   8.275  21.311  0.00  0.00    +0.000 C 
ATOM     15  C   UNL     1       2.014   8.027  19.366  0.00  0.00    +0.000 A 
ATOM     16  C   UNL     1       2.941   7.294  18.619  0.00  0.00    +0.000 A 
ENDBRANCH   5  10
BRANCH   1  17
ATOM     17  C   UNL     1       7.675   6.786  17.384  0.00  0.00    +0.000 C 
BRANCH  17  18
ATOM     18  C   UNL     1       7.542   8.254  17.802  0.00  0.00    +0.000 C 
BRANCH  18  19
ATOM     19  O   UNL     1       8.631   8.597  18.666  0.00  0.00    +0.000 OA
BRANCH  19  23
ATOM     20  C   UNL     1       9.523  12.644  19.197  0.00  0.00    +0.000 A 
ATOM     21  C   UNL     1       9.623  11.723  20.242  0.00  0.00    +0.000 A 
ATOM     22  C   UNL     1       9.329  10.374  20.026  0.00  0.00    +0.000 A 
ATOM     23  C   UNL     1       8.892   9.938  18.774  0.00  0.00    +0.000 A 
ATOM     24  C   UNL     1       8.794  10.856  17.730  0.00  0.00    +0.000 A 
ATOM     25  C   UNL     1       9.103  12.204  17.943  0.00  0.00    +0.000 A 
BRANCH  20  27
ATOM     26  C   UNL     1       9.674  14.881  18.456  0.00  0.00    +0.000 C 
ATOM     27  O   UNL     1       9.820  13.940  19.516  0.00  0.00    +0.000 OA
ENDBRANCH  20  27
ENDBRANCH  19  23
ENDBRANCH  18  19
ENDBRANCH  17  18
ENDBRANCH   1  17
TORSDOF 6
ENDMDL
MODEL 6
REMARK VINA RESULT:      -7.5      2.970      6.625
REMARK  Name = 
REMARK  9 active torsions:
REMARK  status: ('A' for Active; 'I' for Inactive)
REMARK    1  A    between atoms: C_1  and  O_2
REMARK    2  A    between atoms: O_2  and  C_3
REMARK    3  A    between atoms: C_6  and  O_7
REMARK    4  A    between atoms: O_7  and  C_8
REMARK    5  A    between atoms: C_8  and  C_9
REMARK    6  A    between atoms: C_9  and  N_10
REMARK    7  A    between atoms: C_14  and  C_15
REMARK    8  A    between atoms: C_14  and  C_16
REMARK    9  A    between atoms: C_19  and  C_20
REMARK                            x       y       z     vdW  Elec       q    Type
REMARK                         _______ _______ _______ _____ _____    ______ ____
ROOT
ATOM      1  N   UNL     1       6.311   5.982  17.509  0.00  0.00    +0.000 N 
ATOM      2  C   UNL     1       5.513   6.074  16.413  0.00  0.00    +0.000 C 
ATOM      3  O   UNL     1       5.821   6.460  15.301  0.00  0.00    +0.000 OA
ATOM      4  N   UNL     1       4.248   5.674  16.755  0.00  0.00    +0.000 N 
ATOM      5  C   UNL     1       4.137   5.261  18.139  0.00  0.00    +0.000 C 
ATOM      6  C   UNL     1       3.786   3.772  18.168  0.00  0.00    +0.000 C 
ATOM      7  C   UNL     1       5.604   5.499  18.583  0.00  0.00    +0.000 C 
ATOM      8  O   UNL     1       6.061   5.301  19.700  0.00  0.00    +0.000 OA
ATOM      9  H   UNL     1       3.493   5.679  16.082  0.00  0.00    +0.000 HD
ENDROOT
BRANCH   5  10
ATOM     10  C   UNL     1       3.166   6.125  18.950  0.00  0.00    +0.000 A 
ATOM     11  C   UNL     1       2.827   7.433  18.557  0.00  0.00    +0.000 A 
ATOM     12  C   UNL     1       1.940   8.209  19.310  0.00  0.00    +0.000 A 
ATOM     13  C   UNL     1       1.374   7.706  20.484  0.00  0.00    +0.000 A 
ATOM     14  C   UNL     1       0.405   8.523  21.284  0.00  0.00    +0.000 C 
ATOM     15  C   UNL     1       1.722   6.416  20.896  0.00  0.00    +0.000 A 
ATOM     16  C   UNL     1       2.610   5.641  20.144  0.00  0.00    +0.000 A 
ENDBRANCH   5  10
BRANCH   1  17
ATOM     17  C   UNL     1       7.663   6.506  17.574  0.00  0.00    +0.000 C 
BRANCH  17  18
ATOM     18  C   UNL     1       7.653   8.036  17.662  0.00  0.00    +0.000 C 
BRANCH  18  19
ATOM     19  O   UNL     1       8.579   8.454  18.670  0.00  0.00    +0.000 OA
BRANCH  19  23
ATOM     20  C   UNL     1       9.495  12.520  18.961  0.00  0.00    +0.000 A 
ATOM     21  C   UNL     1       9.831  11.614  19.969  0.00  0.00    +0.000 A 
ATOM     22  C   UNL     1       9.520  10.258  19.834  0.00  0.00    +0.000 A 
ATOM     23  C   UNL     1       8.834   9.799  18.708  0.00  0.00    +0.000 A 
ATOM     24  C   UNL     1       8.500  10.703  17.700  0.00  0.00    +0.000 A 
ATOM     25  C   UNL     1       8.825  12.058  17.829  0.00  0.00    +0.000 A 
BRANCH  20  27
ATOM     26  C   UNL     1      10.415  14.086  20.470  0.00  0.00    +0.000 C 
ATOM     27  O   UNL     1       9.831  13.824  19.197  0.00  0.00    +0.000 OA
ENDBRANCH  20  27
ENDBRANCH  19  23
ENDBRANCH  18  19
ENDBRANCH  17  18
ENDBRANCH   1  17
TORSDOF 6
ENDMDL
MODEL 7
REMARK VINA RESULT:      -7.4      1.131      1.666
REMARK  Name = 
REMARK  9 active torsions:
REMARK  status: ('A' for Active; 'I' for Inactive)
REMARK    1  A    between atoms: C_1  and  O_2
REMARK    2  A    between atoms: O_2  and  C_3
REMARK    3  A    between atoms: C_6  and  O_7
REMARK    4  A    between atoms: O_7  and  C_8
REMARK    5  A    between atoms: C_8  and  C_9
REMARK    6  A    between atoms: C_9  and  N_10
REMARK    7  A    between atoms: C_14  and  C_15
REMARK    8  A    between atoms: C_14  and  C_16
REMARK    9  A    between atoms: C_19  and  C_20
REMARK                            x       y       z     vdW  Elec       q    Type
REMARK                         _______ _______ _______ _____ _____    ______ ____
ROOT
ATOM      1  N   UNL     1       4.198   4.624  18.173  0.00  0.00    +0.000 N 
ATOM      2  C   UNL     1       5.060   3.847  18.881  0.00  0.00    +0.000 C 
ATOM      3  O   UNL     1       4.790   3.046  19.757  0.00  0.00    +0.000 OA
ATOM      4  N   UNL     1       6.338   4.120  18.469  0.00  0.00    +0.000 N 
ATOM      5  C   UNL     1       6.396   5.112  17.415  0.00  0.00    +0.000 C 
ATOM      6  C   UNL     1       6.954   4.442  16.157  0.00  0.00    +0.000 C 
ATOM      7  C   UNL     1       4.878   5.400  17.269  0.00  0.00    +0.000 C 
ATOM      8  O   UNL     1       4.367   6.191  16.488  0.00  0.00    +0.000 OA
ATOM      9  H   UNL     1       7.135   3.655  18.882  0.00  0.00    +0.000 HD
ENDROOT
BRANCH   5  10
ATOM     10  C   UNL     1       7.164   6.374  17.817  0.00  0.00    +0.000 A 
ATOM     11  C   UNL     1       7.984   6.415  18.959  0.00  0.00    +0.000 A 
ATOM     12  C   UNL     1       8.677   7.576  19.314  0.00  0.00    +0.000 A 
ATOM     13  C   UNL     1       8.562   8.736  18.543  0.00  0.00    +0.000 A 
ATOM     14  C   UNL     1       9.320   9.979  18.903  0.00  0.00    +0.000 C 
ATOM     15  C   UNL     1       7.732   8.714  17.419  0.00  0.00    +0.000 A 
ATOM     16  C   UNL     1       7.038   7.553  17.066  0.00  0.00    +0.000 A 
ENDBRANCH   5  10
BRANCH   1  17
ATOM     17  C   UNL     1       2.784   4.749  18.476  0.00  0.00    +0.000 C 
BRANCH  17  18
ATOM     18  C   UNL     1       2.544   5.831  19.533  0.00  0.00    +0.000 C 
BRANCH  18  19
ATOM     19  O   UNL     1       2.492   7.110  18.892  0.00  0.00    +0.000 OA
BRANCH  19  23
ATOM     20  C   UNL     1       0.193   9.873  21.022  0.00  0.00    +0.000 A 
ATOM     21  C   UNL     1       0.605   8.665  21.587  0.00  0.00    +0.000 A 
ATOM     22  C   UNL     1       1.384   7.768  20.850  0.00  0.00    +0.000 A 
ATOM     23  C   UNL     1       1.726   8.052  19.527  0.00  0.00    +0.000 A 
ATOM     24  C   UNL     1       1.316   9.259  18.963  0.00  0.00    +0.000 A 
ATOM     25  C   UNL     1       0.550  10.163  19.706  0.00  0.00    +0.000 A 
BRANCH  20  27
ATOM     26  C   UNL     1      -0.726  10.230  23.167  0.00  0.00    +0.000 C 
ATOM     27  O   UNL     1      -0.575  10.673  21.822  0.00  0.00    +0.000 OA
ENDBRANCH  20  27
ENDBRANCH  19  23
ENDBRANCH  18  19
ENDBRANCH  17  18
ENDBRANCH   1  17
TORSDOF 6
ENDMDL
MODEL 8
REMARK VINA RESULT:      -7.4      2.205      5.779
REMARK  Name = 
REMARK  9 active torsions:
REMARK  status: ('A' for Active; 'I' for Inactive)
REMARK    1  A    between atoms: C_1  and  O_2
REMARK    2  A    between atoms: O_2  and  C_3
REMARK    3  A    between atoms: C_6  and  O_7
REMARK    4  A    between atoms: O_7  and  C_8
REMARK    5  A    between atoms: C_8  and  C_9
REMARK    6  A    between atoms: C_9  and  N_10
REMARK    7  A    between atoms: C_14  and  C_15
REMARK    8  A    between atoms: C_14  and  C_16
REMARK    9  A    between atoms: C_19  and  C_20
REMARK                            x       y       z     vdW  Elec       q    Type
REMARK                         _______ _______ _______ _____ _____    ______ ____
ROOT
ATOM      1  N   UNL     1       2.928   2.998  18.758  0.00  0.00    +0.000 N 
ATOM      2  C   UNL     1       1.576   2.888  18.845  0.00  0.00    +0.000 C 
ATOM      3  O   UNL     1       0.862   2.063  18.306  0.00  0.00    +0.000 OA
ATOM      4  N   UNL     1       1.103   3.896  19.644  0.00  0.00    +0.000 N 
ATOM      5  C   UNL     1       2.152   4.748  20.165  0.00  0.00    +0.000 C 
ATOM      6  C   UNL     1       2.181   4.595  21.688  0.00  0.00    +0.000 C 
ATOM      7  C   UNL     1       3.377   4.055  19.510  0.00  0.00    +0.000 C 
ATOM      8  O   UNL     1       4.546   4.392  19.632  0.00  0.00    +0.000 OA
ATOM      9  H   UNL     1       0.115   4.002  19.829  0.00  0.00    +0.000 HD
ENDROOT
BRANCH   5  10
ATOM     10  C   UNL     1       2.029   6.204  19.708  0.00  0.00    +0.000 A 
ATOM     11  C   UNL     1       1.584   7.221  20.572  0.00  0.00    +0.000 A 
ATOM     12  C   UNL     1       1.476   8.546  20.138  0.00  0.00    +0.000 A 
ATOM     13  C   UNL     1       1.797   8.892  18.823  0.00  0.00    +0.000 A 
ATOM     14  C   UNL     1       1.705  10.314  18.356  0.00  0.00    +0.000 C 
ATOM     15  C   UNL     1       2.218   7.886  17.949  0.00  0.00    +0.000 A 
ATOM     16  C   UNL     1       2.325   6.561  18.383  0.00  0.00    +0.000 A 
ENDBRANCH   5  10
BRANCH   1  17
ATOM     17  C   UNL     1       3.747   2.226  17.841  0.00  0.00    +0.000 C 
BRANCH  17  18
ATOM     18  C   UNL     1       4.016   3.011  16.553  0.00  0.00    +0.000 C 
BRANCH  18  19
ATOM     19  O   UNL     1       5.420   3.267  16.444  0.00  0.00    +0.000 OA
BRANCH  19  23
ATOM     20  C   UNL     1       6.764   7.174  17.064  0.00  0.00    +0.000 A 
ATOM     21  C   UNL     1       7.506   6.065  17.475  0.00  0.00    +0.000 A 
ATOM     22  C   UNL     1       7.032   4.770  17.241  0.00  0.00    +0.000 A 
ATOM     23  C   UNL     1       5.793   4.572  16.629  0.00  0.00    +0.000 A 
ATOM     24  C   UNL     1       5.053   5.679  16.217  0.00  0.00    +0.000 A 
ATOM     25  C   UNL     1       5.535   6.974  16.438  0.00  0.00    +0.000 A 
BRANCH  20  27
ATOM     26  C   UNL     1       8.369   8.383  18.304  0.00  0.00    +0.000 C 
ATOM     27  O   UNL     1       7.309   8.394  17.352  0.00  0.00    +0.000 OA
ENDBRANCH  20  27
ENDBRANCH  19  23
ENDBRANCH  18  19
ENDBRANCH  17  18
ENDBRANCH   1  17
TORSDOF 6
ENDMDL
MODEL 9
REMARK VINA RESULT:      -7.4      1.222      1.762
REMARK  Name = 
REMARK  9 active torsions:
REMARK  status: ('A' for Active; 'I' for Inactive)
REMARK    1  A    between atoms: C_1  and  O_2
REMARK    2  A    between atoms: O_2  and  C_3
REMARK    3  A    between atoms: C_6  and  O_7
REMARK    4  A    between atoms: O_7  and  C_8
REMARK    5  A    between atoms: C_8  and  C_9
REMARK    6  A    between atoms: C_9  and  N_10
REMARK    7  A    between atoms: C_14  and  C_15
REMARK    8  A    between atoms: C_14  and  C_16
REMARK    9  A    between atoms: C_19  and  C_20
REMARK                            x       y       z     vdW  Elec       q    Type
REMARK                         _______ _______ _______ _____ _____    ______ ____
ROOT
ATOM      1  N   UNL     1       2.741   3.619  19.315  0.00  0.00    +0.000 N 
ATOM      2  C   UNL     1       3.734   2.927  19.931  0.00  0.00    +0.000 C 
ATOM      3  O   UNL     1       3.680   2.339  20.996  0.00  0.00    +0.000 OA
ATOM      4  N   UNL     1       4.867   3.004  19.163  0.00  0.00    +0.000 N 
ATOM      5  C   UNL     1       4.675   3.761  17.943  0.00  0.00    +0.000 C 
ATOM      6  C   UNL     1       4.862   2.811  16.757  0.00  0.00    +0.000 C 
ATOM      7  C   UNL     1       3.182   4.142  18.125  0.00  0.00    +0.000 C 
ATOM      8  O   UNL     1       2.507   4.804  17.348  0.00  0.00    +0.000 OA
ATOM      9  H   UNL     1       5.730   2.564  19.452  0.00  0.00    +0.000 HD
ENDROOT
BRANCH   5  10
ATOM     10  C   UNL     1       5.560   5.008  17.863  0.00  0.00    +0.000 A 
ATOM     11  C   UNL     1       6.734   5.139  18.626  0.00  0.00    +0.000 A 
ATOM     12  C   UNL     1       7.530   6.285  18.542  0.00  0.00    +0.000 A 
ATOM     13  C   UNL     1       7.170   7.341  17.701  0.00  0.00    +0.000 A 
ATOM     14  C   UNL     1       8.030   8.564  17.588  0.00  0.00    +0.000 C 
ATOM     15  C   UNL     1       5.993   7.231  16.955  0.00  0.00    +0.000 A 
ATOM     16  C   UNL     1       5.197   6.085  17.040  0.00  0.00    +0.000 A 
ENDBRANCH   5  10
BRANCH   1  17
ATOM     17  C   UNL     1       1.460   3.920  19.930  0.00  0.00    +0.000 C 
BRANCH  17  18
ATOM     18  C   UNL     1       1.553   5.180  20.797  0.00  0.00    +0.000 C 
BRANCH  18  19
ATOM     19  O   UNL     1       2.498   6.083  20.214  0.00  0.00    +0.000 OA
BRANCH  19  23
ATOM     20  C   UNL     1       0.966   9.910  19.536  0.00  0.00    +0.000 A 
ATOM     21  C   UNL     1       0.763   9.237  20.743  0.00  0.00    +0.000 A 
ATOM     22  C   UNL     1       1.300   7.962  20.941  0.00  0.00    +0.000 A 
ATOM     23  C   UNL     1       2.012   7.329  19.920  0.00  0.00    +0.000 A 
ATOM     24  C   UNL     1       2.216   8.001  18.716  0.00  0.00    +0.000 A 
ATOM     25  C   UNL     1       1.691   9.284  18.524  0.00  0.00    +0.000 A 
BRANCH  20  27
ATOM     26  C   UNL     1       1.221  12.173  18.911  0.00  0.00    +0.000 C 
ATOM     27  O   UNL     1       0.387  11.145  19.439  0.00  0.00    +0.000 OA
ENDBRANCH  20  27
ENDBRANCH  19  23
ENDBRANCH  18  19
ENDBRANCH  17  18
ENDBRANCH   1  17
TORSDOF 6
ENDMDL
