MODEL 1
REMARK VINA RESULT:      -6.3      0.000      0.000
REMARK  Name = 
REMARK  5 active torsions:
REMARK  status: ('A' for Active; 'I' for Inactive)
REMARK    1  A    between atoms: C_1  and  N_2
REMARK    2  A    between atoms: N_2  and  C_3
REMARK    3  A    between atoms: N_2  and  C_4
REMARK    4  A    between atoms: C_7  and  C_9
REMARK    5  A    between atoms: C_12  and  C_13
REMARK                            x       y       z     vdW  Elec       q    Type
REMARK                         _______ _______ _______ _____ _____    ______ ____
ROOT
ATOM      1  C   UNL     1       3.393   4.547  20.146  0.00  0.00    +0.000 C 
ATOM      2  C   UNL     1       4.707   5.253  19.725  0.00  0.00    +0.000 C 
ATOM      3  N   UNL     1       5.175   4.580  18.512  0.00  0.00    +0.000 N 
ATOM      4  C   UNL     1       6.307   4.891  17.755  0.00  0.00    +0.000 C 
ATOM      5  O   UNL     1       6.794   4.088  16.963  0.00  0.00    +0.000 OA
ATOM      6  C   UNL     1       4.546   3.248  18.386  0.00  0.00    +0.000 C 
ATOM      7  C   UNL     1       3.792   3.079  17.068  0.00  0.00    +0.000 C 
ATOM      8  C   UNL     1       2.546   2.196  17.135  0.00  0.00    +0.000 C 
ATOM      9  C   UNL     1       1.798   2.175  18.455  0.00  0.00    +0.000 C 
ATOM     10  O   UNL     1       2.630   2.157  19.600  0.00  0.00    +0.000 OA
ATOM     11  C   UNL     1       3.687   3.100  19.649  0.00  0.00    +0.000 C 
ENDROOT
BRANCH   4  12
ATOM     12  C   UNL     1       6.986   6.221  17.895  0.00  0.00    +0.000 A 
ATOM     13  C   UNL     1       6.516   7.293  17.127  0.00  0.00    +0.000 A 
ATOM     14  C   UNL     1       7.105   8.570  17.237  0.00  0.00    +0.000 A 
ATOM     15  C   UNL     1       8.182   8.775  18.109  0.00  0.00    +0.000 A 
ATOM     16  C   UNL     1       8.628   7.711  18.901  0.00  0.00    +0.000 A 
ATOM     17  C   UNL     1       8.004   6.459  18.823  0.00  0.00    +0.000 A 
BRANCH  15  18
ATOM     18  C   UNL     1       8.805  10.063  18.214  0.00  0.00    +0.000 C 
ATOM     19  N   UNL     1       9.311  11.100  18.298  0.00  0.00    +0.000 NA
ENDBRANCH  15  18
ENDBRANCH   4  12
BRANCH   1  21
ATOM     20  C   UNL     1       0.978   5.029  20.551  0.00  0.00    +0.000 C 
ATOM     21  N   UNL     1       2.175   5.313  19.760  0.00  0.00    +0.000 NA
ATOM     22  C   UNL     1       2.473   6.740  19.623  0.00  0.00    +0.000 C 
ENDBRANCH   1  21
TORSDOF 3
ENDMDL
MODEL 2
REMARK VINA RESULT:      -6.2      0.077      1.029
REMARK  Name = 
REMARK  5 active torsions:
REMARK  status: ('A' for Active; 'I' for Inactive)
REMARK    1  A    between atoms: C_1  and  N_2
REMARK    2  A    between atoms: N_2  and  C_3
REMARK    3  A    between atoms: N_2  and  C_4
REMARK    4  A    between atoms: C_7  and  C_9
REMARK    5  A    between atoms: C_12  and  C_13
REMARK                            x       y       z     vdW  Elec       q    Type
REMARK                         _______ _______ _______ _____ _____    ______ ____
ROOT
ATOM      1  C   UNL     1       3.370   4.560  20.154  0.00  0.00    +0.000 C 
ATOM      2  C   UNL     1       4.667   5.290  19.722  0.00  0.00    +0.000 C 
ATOM      3  N   UNL     1       5.145   4.617  18.513  0.00  0.00    +0.000 N 
ATOM      4  C   UNL     1       6.268   4.947  17.749  0.00  0.00    +0.000 C 
ATOM      5  O   UNL     1       6.769   4.147  16.962  0.00  0.00    +0.000 OA
ATOM      6  C   UNL     1       4.544   3.271  18.399  0.00  0.00    +0.000 C 
ATOM      7  C   UNL     1       3.788   3.077  17.086  0.00  0.00    +0.000 C 
ATOM      8  C   UNL     1       2.562   2.169  17.164  0.00  0.00    +0.000 C 
ATOM      9  C   UNL     1       1.819   2.142  18.487  0.00  0.00    +0.000 C 
ATOM     10  O   UNL     1       2.655   2.151  19.629  0.00  0.00    +0.000 OA
ATOM     11  C   UNL     1       3.693   3.115  19.667  0.00  0.00    +0.000 C 
ENDROOT
BRANCH   4  12
ATOM     12  C   UNL     1       6.919   6.291  17.877  0.00  0.00    +0.000 A 
ATOM     13  C   UNL     1       7.970   6.438  18.790  0.00  0.00    +0.000 A 
ATOM     14  C   UNL     1       8.631   7.676  18.934  0.00  0.00    +0.000 A 
ATOM     15  C   UNL     1       8.231   8.780  18.170  0.00  0.00    +0.000 A 
ATOM     16  C   UNL     1       7.204   8.621  17.233  0.00  0.00    +0.000 A 
ATOM     17  C   UNL     1       6.587   7.376  17.061  0.00  0.00    +0.000 A 
BRANCH  15  18
ATOM     18  C   UNL     1       8.880  10.050  18.322  0.00  0.00    +0.000 C 
ATOM     19  N   UNL     1       9.403  11.075  18.440  0.00  0.00    +0.000 NA
ENDBRANCH  15  18
ENDBRANCH   4  12
BRANCH   1  21
ATOM     20  C   UNL     1       0.944   4.984  20.555  0.00  0.00    +0.000 C 
ATOM     21  N   UNL     1       2.135   5.297  19.767  0.00  0.00    +0.000 NA
ATOM     22  C   UNL     1       2.400   6.731  19.631  0.00  0.00    +0.000 C 
ENDBRANCH   1  21
TORSDOF 3
ENDMDL
MODEL 3
REMARK VINA RESULT:      -6.0      3.637      4.832
REMARK  Name = 
REMARK  5 active torsions:
REMARK  status: ('A' for Active; 'I' for Inactive)
REMARK    1  A    between atoms: C_1  and  N_2
REMARK    2  A    between atoms: N_2  and  C_3
REMARK    3  A    between atoms: N_2  and  C_4
REMARK    4  A    between atoms: C_7  and  C_9
REMARK    5  A    between atoms: C_12  and  C_13
REMARK                            x       y       z     vdW  Elec       q    Type
REMARK                         _______ _______ _______ _____ _____    ______ ____
ROOT
ATOM      1  C   UNL     1       2.939   3.790  20.708  0.00  0.00    +0.000 C 
ATOM      2  C   UNL     1       2.752   5.294  20.384  0.00  0.00    +0.000 C 
ATOM      3  N   UNL     1       3.156   5.476  18.989  0.00  0.00    +0.000 N 
ATOM      4  C   UNL     1       3.130   6.661  18.249  0.00  0.00    +0.000 C 
ATOM      5  O   UNL     1       3.782   6.790  17.215  0.00  0.00    +0.000 OA
ATOM      6  C   UNL     1       4.000   4.347  18.544  0.00  0.00    +0.000 C 
ATOM      7  C   UNL     1       3.433   3.642  17.314  0.00  0.00    +0.000 C 
ATOM      8  C   UNL     1       3.693   2.138  17.242  0.00  0.00    +0.000 C 
ATOM      9  C   UNL     1       3.800   1.403  18.566  0.00  0.00    +0.000 C 
ATOM     10  O   UNL     1       4.508   2.106  19.571  0.00  0.00    +0.000 OA
ATOM     11  C   UNL     1       4.153   3.460  19.788  0.00  0.00    +0.000 C 
ENDROOT
BRANCH   4  12
ATOM     12  C   UNL     1       2.314   7.835  18.701  0.00  0.00    +0.000 A 
ATOM     13  C   UNL     1       1.965   8.807  17.756  0.00  0.00    +0.000 A 
ATOM     14  C   UNL     1       1.180   9.920  18.125  0.00  0.00    +0.000 A 
ATOM     15  C   UNL     1       0.752  10.071  19.450  0.00  0.00    +0.000 A 
ATOM     16  C   UNL     1       1.073   9.081  20.385  0.00  0.00    +0.000 A 
ATOM     17  C   UNL     1       1.810   7.953  19.999  0.00  0.00    +0.000 A 
BRANCH  15  18
ATOM     18  C   UNL     1      -0.027  11.209  19.843  0.00  0.00    +0.000 C 
ATOM     19  N   UNL     1      -0.659  12.126  20.157  0.00  0.00    +0.000 NA
ENDBRANCH  15  18
ENDBRANCH   4  12
BRANCH   1  21
ATOM     20  C   UNL     1       1.263   2.420  21.949  0.00  0.00    +0.000 C 
ATOM     21  N   UNL     1       1.659   3.028  20.680  0.00  0.00    +0.000 NA
ATOM     22  C   UNL     1       0.599   3.805  20.035  0.00  0.00    +0.000 C 
ENDBRANCH   1  21
TORSDOF 3
ENDMDL
MODEL 4
REMARK VINA RESULT:      -5.9      3.633      4.871
REMARK  Name = 
REMARK  5 active torsions:
REMARK  status: ('A' for Active; 'I' for Inactive)
REMARK    1  A    between atoms: C_1  and  N_2
REMARK    2  A    between atoms: N_2  and  C_3
REMARK    3  A    between atoms: N_2  and  C_4
REMARK    4  A    between atoms: C_7  and  C_9
REMARK    5  A    between atoms: C_12  and  C_13
REMARK                            x       y       z     vdW  Elec       q    Type
REMARK                         _______ _______ _______ _____ _____    ______ ____
ROOT
ATOM      1  C   UNL     1       2.968   3.803  20.661  0.00  0.00    +0.000 C 
ATOM      2  C   UNL     1       2.783   5.305  20.327  0.00  0.00    +0.000 C 
ATOM      3  N   UNL     1       3.161   5.472  18.923  0.00  0.00    +0.000 N 
ATOM      4  C   UNL     1       3.128   6.651  18.173  0.00  0.00    +0.000 C 
ATOM      5  O   UNL     1       3.760   6.766  17.125  0.00  0.00    +0.000 OA
ATOM      6  C   UNL     1       3.989   4.334  18.472  0.00  0.00    +0.000 C 
ATOM      7  C   UNL     1       3.393   3.621  17.260  0.00  0.00    +0.000 C 
ATOM      8  C   UNL     1       3.642   2.115  17.197  0.00  0.00    +0.000 C 
ATOM      9  C   UNL     1       3.771   1.391  18.525  0.00  0.00    +0.000 C 
ATOM     10  O   UNL     1       4.503   2.099  19.509  0.00  0.00    +0.000 OA
ATOM     11  C   UNL     1       4.161   3.457  19.720  0.00  0.00    +0.000 C 
ENDROOT
BRANCH   4  12
ATOM     12  C   UNL     1       2.328   7.833  18.630  0.00  0.00    +0.000 A 
ATOM     13  C   UNL     1       1.871   7.858  19.953  0.00  0.00    +0.000 A 
ATOM     14  C   UNL     1       1.133   8.956  20.440  0.00  0.00    +0.000 A 
ATOM     15  C   UNL     1       0.835  10.034  19.596  0.00  0.00    +0.000 A 
ATOM     16  C   UNL     1       1.322  10.023  18.284  0.00  0.00    +0.000 A 
ATOM     17  C   UNL     1       2.097   8.951  17.824  0.00  0.00    +0.000 A 
BRANCH  15  18
ATOM     18  C   UNL     1       0.066  11.147  20.072  0.00  0.00    +0.000 C 
ATOM     19  N   UNL     1      -0.554  12.046  20.452  0.00  0.00    +0.000 NA
ENDBRANCH  15  18
ENDBRANCH   4  12
BRANCH   1  21
ATOM     20  C   UNL     1       1.306   2.459  21.949  0.00  0.00    +0.000 C 
ATOM     21  N   UNL     1       1.683   3.049  20.666  0.00  0.00    +0.000 NA
ATOM     22  C   UNL     1       0.616   3.825  20.030  0.00  0.00    +0.000 C 
ENDBRANCH   1  21
TORSDOF 3
ENDMDL
MODEL 5
REMARK VINA RESULT:      -5.9      4.747      7.438
REMARK  Name = 
REMARK  5 active torsions:
REMARK  status: ('A' for Active; 'I' for Inactive)
REMARK    1  A    between atoms: C_1  and  N_2
REMARK    2  A    between atoms: N_2  and  C_3
REMARK    3  A    between atoms: N_2  and  C_4
REMARK    4  A    between atoms: C_7  and  C_9
REMARK    5  A    between atoms: C_12  and  C_13
REMARK                            x       y       z     vdW  Elec       q    Type
REMARK                         _______ _______ _______ _____ _____    ______ ____
ROOT
ATOM      1  C   UNL     1      -0.480   9.929  20.836  0.00  0.00    +0.000 C 
ATOM      2  C   UNL     1       0.340   8.787  20.184  0.00  0.00    +0.000 C 
ATOM      3  N   UNL     1       1.116   9.393  19.101  0.00  0.00    +0.000 N 
ATOM      4  C   UNL     1       2.025   8.755  18.252  0.00  0.00    +0.000 C 
ATOM      5  O   UNL     1       2.373   9.258  17.186  0.00  0.00    +0.000 OA
ATOM      6  C   UNL     1       0.533  10.695  18.714  0.00  0.00    +0.000 C 
ATOM      7  C   UNL     1       1.537  11.841  18.821  0.00  0.00    +0.000 C 
ATOM      8  C   UNL     1       0.948  13.193  19.219  0.00  0.00    +0.000 C 
ATOM      9  C   UNL     1      -0.281  13.164  20.111  0.00  0.00    +0.000 C 
ATOM     10  O   UNL     1      -1.216  12.153  19.785  0.00  0.00    +0.000 OA
ATOM     11  C   UNL     1      -0.715  10.841  19.594  0.00  0.00    +0.000 C 
ENDROOT
BRANCH   4  12
ATOM     12  C   UNL     1       2.599   7.416  18.604  0.00  0.00    +0.000 A 
ATOM     13  C   UNL     1       3.588   6.876  17.773  0.00  0.00    +0.000 A 
ATOM     14  C   UNL     1       4.177   5.629  18.071  0.00  0.00    +0.000 A 
ATOM     15  C   UNL     1       3.765   4.908  19.199  0.00  0.00    +0.000 A 
ATOM     16  C   UNL     1       2.801   5.466  20.047  0.00  0.00    +0.000 A 
ATOM     17  C   UNL     1       2.259   6.727  19.772  0.00  0.00    +0.000 A 
BRANCH  15  18
ATOM     18  C   UNL     1       4.339   3.629  19.502  0.00  0.00    +0.000 C 
ATOM     19  N   UNL     1       4.799   2.596  19.743  0.00  0.00    +0.000 NA
ENDBRANCH  15  18
ENDBRANCH   4  12
BRANCH   1  21
ATOM     20  C   UNL     1      -0.833  10.932  23.093  0.00  0.00    +0.000 C 
ATOM     21  N   UNL     1       0.119  10.418  22.109  0.00  0.00    +0.000 NA
ATOM     22  C   UNL     1       1.069   9.444  22.651  0.00  0.00    +0.000 C 
ENDBRANCH   1  21
TORSDOF 3
ENDMDL
MODEL 6
REMARK VINA RESULT:      -5.8      3.706      5.768
REMARK  Name = 
REMARK  5 active torsions:
REMARK  status: ('A' for Active; 'I' for Inactive)
REMARK    1  A    between atoms: C_1  and  N_2
REMARK    2  A    between atoms: N_2  and  C_3
REMARK    3  A    between atoms: N_2  and  C_4
REMARK    4  A    between atoms: C_7  and  C_9
REMARK    5  A    between atoms: C_12  and  C_13
REMARK                            x       y       z     vdW  Elec       q    Type
REMARK                         _______ _______ _______ _____ _____    ______ ____
ROOT
ATOM      1  C   UNL     1       2.411   4.718  20.819  0.00  0.00    +0.000 C 
ATOM      2  C   UNL     1       2.051   6.201  20.549  0.00  0.00    +0.000 C 
ATOM      3  N   UNL     1       2.558   6.519  19.213  0.00  0.00    +0.000 N 
ATOM      4  C   UNL     1       2.440   7.733  18.531  0.00  0.00    +0.000 C 
ATOM      5  O   UNL     1       3.164   8.009  17.576  0.00  0.00    +0.000 OA
ATOM      6  C   UNL     1       3.586   5.540  18.804  0.00  0.00    +0.000 C 
ATOM      7  C   UNL     1       3.240   4.842  17.490  0.00  0.00    +0.000 C 
ATOM      8  C   UNL     1       3.709   3.392  17.375  0.00  0.00    +0.000 C 
ATOM      9  C   UNL     1       3.789   2.598  18.667  0.00  0.00    +0.000 C 
ATOM     10  O   UNL     1       4.295   3.326  19.770  0.00  0.00    +0.000 OA
ATOM     11  C   UNL     1       3.740   4.607  20.013  0.00  0.00    +0.000 C 
ENDROOT
BRANCH   4  12
ATOM     12  C   UNL     1       1.432   8.760  18.952  0.00  0.00    +0.000 A 
ATOM     13  C   UNL     1       0.691   9.413  17.959  0.00  0.00    +0.000 A 
ATOM     14  C   UNL     1      -0.284  10.372  18.303  0.00  0.00    +0.000 A 
ATOM     15  C   UNL     1      -0.514  10.692  19.647  0.00  0.00    +0.000 A 
ATOM     16  C   UNL     1       0.204  10.013  20.639  0.00  0.00    +0.000 A 
ATOM     17  C   UNL     1       1.135   9.026  20.291  0.00  0.00    +0.000 A 
BRANCH  15  18
ATOM     18  C   UNL     1      -1.487  11.681  20.009  0.00  0.00    +0.000 C 
ATOM     19  N   UNL     1      -2.276  12.475  20.300  0.00  0.00    +0.000 NA
ENDBRANCH  15  18
ENDBRANCH   4  12
BRANCH   1  21
ATOM     20  C   UNL     1       0.849   3.585  19.237  0.00  0.00    +0.000 C 
ATOM     21  N   UNL     1       1.256   3.798  20.625  0.00  0.00    +0.000 NA
ATOM     22  C   UNL     1       1.435   2.561  21.390  0.00  0.00    +0.000 C 
ENDBRANCH   1  21
TORSDOF 3
ENDMDL
MODEL 7
REMARK VINA RESULT:      -5.8      3.769      5.530
REMARK  Name = 
REMARK  5 active torsions:
REMARK  status: ('A' for Active; 'I' for Inactive)
REMARK    1  A    between atoms: C_1  and  N_2
REMARK    2  A    between atoms: N_2  and  C_3
REMARK    3  A    between atoms: N_2  and  C_4
REMARK    4  A    between atoms: C_7  and  C_9
REMARK    5  A    between atoms: C_12  and  C_13
REMARK                            x       y       z     vdW  Elec       q    Type
REMARK                         _______ _______ _______ _____ _____    ______ ____
ROOT
ATOM      1  C   UNL     1       2.940   3.905  20.712  0.00  0.00    +0.000 C 
ATOM      2  C   UNL     1       2.598   5.416  20.770  0.00  0.00    +0.000 C 
ATOM      3  N   UNL     1       2.739   5.930  19.407  0.00  0.00    +0.000 N 
ATOM      4  C   UNL     1       2.504   7.235  18.967  0.00  0.00    +0.000 C 
ATOM      5  O   UNL     1       2.954   7.647  17.900  0.00  0.00    +0.000 OA
ATOM      6  C   UNL     1       3.565   5.014  18.592  0.00  0.00    +0.000 C 
ATOM      7  C   UNL     1       2.840   4.530  17.339  0.00  0.00    +0.000 C 
ATOM      8  C   UNL     1       3.184   3.111  16.889  0.00  0.00    +0.000 C 
ATOM      9  C   UNL     1       3.571   2.127  17.980  0.00  0.00    +0.000 C 
ATOM     10  O   UNL     1       4.394   2.672  18.994  0.00  0.00    +0.000 OA
ATOM     11  C   UNL     1       3.993   3.906  19.564  0.00  0.00    +0.000 C 
ENDROOT
BRANCH   4  12
ATOM     12  C   UNL     1       1.702   8.195  19.794  0.00  0.00    +0.000 A 
ATOM     13  C   UNL     1       1.202   9.349  19.178  0.00  0.00    +0.000 A 
ATOM     14  C   UNL     1       0.424  10.273  19.906  0.00  0.00    +0.000 A 
ATOM     15  C   UNL     1       0.155  10.053  21.263  0.00  0.00    +0.000 A 
ATOM     16  C   UNL     1       0.628   8.882  21.867  0.00  0.00    +0.000 A 
ATOM     17  C   UNL     1       1.356   7.945  21.125  0.00  0.00    +0.000 A 
BRANCH  15  18
ATOM     18  C   UNL     1      -0.615  10.996  22.020  0.00  0.00    +0.000 C 
ATOM     19  N   UNL     1      -1.237  11.754  22.634  0.00  0.00    +0.000 NA
ENDBRANCH  15  18
ENDBRANCH   4  12
BRANCH   1  21
ATOM     20  C   UNL     1       1.411   2.406  21.993  0.00  0.00    +0.000 C 
ATOM     21  N   UNL     1       1.729   3.037  20.713  0.00  0.00    +0.000 NA
ATOM     22  C   UNL     1       0.594   3.718  20.085  0.00  0.00    +0.000 C 
ENDBRANCH   1  21
TORSDOF 3
ENDMDL
MODEL 8
REMARK VINA RESULT:      -5.8      5.373      8.365
REMARK  Name = 
REMARK  5 active torsions:
REMARK  status: ('A' for Active; 'I' for Inactive)
REMARK    1  A    between atoms: C_1  and  N_2
REMARK    2  A    between atoms: N_2  and  C_3
REMARK    3  A    between atoms: N_2  and  C_4
REMARK    4  A    between atoms: C_7  and  C_9
REMARK    5  A    between atoms: C_12  and  C_13
REMARK                            x       y       z     vdW  Elec       q    Type
REMARK                         _______ _______ _______ _____ _____    ______ ____
ROOT
ATOM      1  C   UNL     1      -0.622  11.313  19.099  0.00  0.00    +0.000 C 
ATOM      2  C   UNL     1       0.353  10.109  19.132  0.00  0.00    +0.000 C 
ATOM      3  N   UNL     1       0.589   9.798  20.543  0.00  0.00    +0.000 N 
ATOM      4  C   UNL     1       1.379   8.769  21.062  0.00  0.00    +0.000 C 
ATOM      5  O   UNL     1       1.777   8.785  22.225  0.00  0.00    +0.000 OA
ATOM      6  C   UNL     1       0.231  10.953  21.393  0.00  0.00    +0.000 C 
ATOM      7  C   UNL     1      -0.812  10.599  22.451  0.00  0.00    +0.000 C 
ATOM      8  C   UNL     1      -1.786  11.720  22.812  0.00  0.00    +0.000 C 
ATOM      9  C   UNL     1      -2.117  12.714  21.713  0.00  0.00    +0.000 C 
ATOM     10  O   UNL     1      -1.012  13.089  20.912  0.00  0.00    +0.000 OA
ATOM     11  C   UNL     1      -0.194  12.048  20.405  0.00  0.00    +0.000 C 
ENDROOT
BRANCH   4  12
ATOM     12  C   UNL     1       1.789   7.607  20.208  0.00  0.00    +0.000 A 
ATOM     13  C   UNL     1       1.538   6.313  20.679  0.00  0.00    +0.000 A 
ATOM     14  C   UNL     1       1.885   5.185  19.905  0.00  0.00    +0.000 A 
ATOM     15  C   UNL     1       2.501   5.350  18.658  0.00  0.00    +0.000 A 
ATOM     16  C   UNL     1       2.719   6.645  18.174  0.00  0.00    +0.000 A 
ATOM     17  C   UNL     1       2.326   7.759  18.926  0.00  0.00    +0.000 A 
BRANCH  15  18
ATOM     18  C   UNL     1       2.878   4.212  17.871  0.00  0.00    +0.000 C 
ATOM     19  N   UNL     1       3.180   3.295  17.233  0.00  0.00    +0.000 NA
ENDBRANCH  15  18
ENDBRANCH   4  12
BRANCH   1  21
ATOM     20  C   UNL     1      -2.915  11.996  18.391  0.00  0.00    +0.000 C 
ATOM     21  N   UNL     1      -2.027  10.912  18.808  0.00  0.00    +0.000 NA
ATOM     22  C   UNL     1      -2.068   9.738  17.933  0.00  0.00    +0.000 C 
ENDBRANCH   1  21
TORSDOF 3
ENDMDL
MODEL 9
REMARK VINA RESULT:      -5.8      3.084      3.696
REMARK  Name = 
REMARK  5 active torsions:
REMARK  status: ('A' for Active; 'I' for Inactive)
REMARK    1  A    between atoms: C_1  and  N_2
REMARK    2  A    between atoms: N_2  and  C_3
REMARK    3  A    between atoms: N_2  and  C_4
REMARK    4  A    between atoms: C_7  and  C_9
REMARK    5  A    between atoms: C_12  and  C_13
REMARK                            x       y       z     vdW  Elec       q    Type
REMARK                         _______ _______ _______ _____ _____    ______ ____
ROOT
ATOM      1  C   UNL     1       3.430   5.809  19.756  0.00  0.00    +0.000 C 
ATOM      2  C   UNL     1       4.428   5.375  18.653  0.00  0.00    +0.000 C 
ATOM      3  N   UNL     1       4.018   4.040  18.217  0.00  0.00    +0.000 N 
ATOM      4  C   UNL     1       4.604   3.259  17.217  0.00  0.00    +0.000 C 
ATOM      5  O   UNL     1       4.407   2.048  17.146  0.00  0.00    +0.000 OA
ATOM      6  C   UNL     1       3.153   3.407  19.235  0.00  0.00    +0.000 C 
ATOM      7  C   UNL     1       1.795   2.991  18.674  0.00  0.00    +0.000 C 
ATOM      8  C   UNL     1       0.625   3.083  19.653  0.00  0.00    +0.000 C 
ATOM      9  C   UNL     1       0.717   4.156  20.723  0.00  0.00    +0.000 C 
ATOM     10  O   UNL     1       2.006   4.316  21.283  0.00  0.00    +0.000 OA
ATOM     11  C   UNL     1       3.097   4.423  20.385  0.00  0.00    +0.000 C 
ENDROOT
BRANCH   4  12
ATOM     12  C   UNL     1       5.516   3.871  16.197  0.00  0.00    +0.000 A 
ATOM     13  C   UNL     1       5.099   3.897  14.860  0.00  0.00    +0.000 A 
ATOM     14  C   UNL     1       5.910   4.480  13.864  0.00  0.00    +0.000 A 
ATOM     15  C   UNL     1       7.154   5.029  14.202  0.00  0.00    +0.000 A 
ATOM     16  C   UNL     1       7.554   5.032  15.543  0.00  0.00    +0.000 A 
ATOM     17  C   UNL     1       6.720   4.496  16.533  0.00  0.00    +0.000 A 
BRANCH  15  18
ATOM     18  C   UNL     1       7.998   5.605  13.196  0.00  0.00    +0.000 C 
ATOM     19  N   UNL     1       8.677   6.067  12.382  0.00  0.00    +0.000 NA
ENDBRANCH  15  18
ENDBRANCH   4  12
BRANCH   1  21
ATOM     20  C   UNL     1       1.838   7.663  20.260  0.00  0.00    +0.000 C 
ATOM     21  N   UNL     1       2.391   6.754  19.258  0.00  0.00    +0.000 NA
ATOM     22  C   UNL     1       2.830   7.417  18.028  0.00  0.00    +0.000 C 
ENDBRANCH   1  21
TORSDOF 3
ENDMDL
