MODEL 1
REMARK VINA RESULT:      -8.0      0.000      0.000
REMARK  Name = 
REMARK  5 active torsions:
REMARK  status: ('A' for Active; 'I' for Inactive)
REMARK    1  A    between atoms: C_2  and  C_10
REMARK    2  A    between atoms: N_3  and  C_4
REMARK    3  A    between atoms: C_4  and  C_5
REMARK    4  A    between atoms: N_17  and  C_18
REMARK    5  A    between atoms: C_18  and  C_19
REMARK                            x       y       z     vdW  Elec       q    Type
REMARK                         _______ _______ _______ _____ _____    ______ ____
ROOT
ATOM      1  C   UNL     1       8.056   5.928  18.389  0.00  0.00    +0.000 C 
ATOM      2  C   UNL     1       7.292   5.637  19.685  0.00  0.00    +0.000 C 
ATOM      3  C   UNL     1       5.812   5.359  19.437  0.00  0.00    +0.000 C 
ATOM      4  C   UNL     1       5.615   4.271  18.372  0.00  0.00    +0.000 C 
ATOM      5  C   UNL     1       6.532   4.493  17.166  0.00  0.00    +0.000 C 
ATOM      6  C   UNL     1       5.744   5.473  16.321  0.00  0.00    +0.000 C 
ATOM      7  C   UNL     1       4.313   5.016  16.514  0.00  0.00    +0.000 C 
ATOM      8  N   UNL     1       4.232   4.346  17.833  0.00  0.00    +0.000 NA
ATOM      9  O   UNL     1       7.870   4.899  17.424  0.00  0.00    +0.000 OA
ENDROOT
BRANCH   1  11
ATOM     10  O   UNL     1       7.165   7.639  16.883  0.00  0.00    +0.000 OA
ATOM     11  C   UNL     1       7.851   7.371  17.866  0.00  0.00    +0.000 C 
ATOM     12  N   UNL     1       8.484   8.347  18.620  0.00  0.00    +0.000 N 
ATOM     13  H   UNL     1       9.236   8.041  19.223  0.00  0.00    +0.000 HD
BRANCH  12  14
ATOM     14  C   UNL     1       8.493   9.700  18.113  0.00  0.00    +0.000 C 
BRANCH  14  15
ATOM     15  C   UNL     1       9.391  10.578  18.923  0.00  0.00    +0.000 A 
ATOM     16  C   UNL     1       9.412  10.759  20.292  0.00  0.00    +0.000 A 
ATOM     17  C   UNL     1      10.324  11.778  20.695  0.00  0.00    +0.000 A 
ATOM     18  C   UNL     1      10.987  12.330  19.620  0.00  0.00    +0.000 A 
ATOM     19  S   UNL     1      10.527  11.603  18.142  0.00  0.00    +0.000 S 
ENDBRANCH  14  15
ENDBRANCH  12  14
ENDBRANCH   1  11
BRANCH   8  20
ATOM     20  C   UNL     1       3.599   3.019  17.725  0.00  0.00    +0.000 C 
BRANCH  20  21
ATOM     21  C   UNL     1       2.528   2.858  18.762  0.00  0.00    +0.000 A 
ATOM     22  C   UNL     1       2.681   2.741  20.176  0.00  0.00    +0.000 A 
ATOM     23  C   UNL     1       1.414   2.660  20.705  0.00  0.00    +0.000 A 
ATOM     24  O   UNL     1       0.486   2.707  19.718  0.00  0.00    +0.000 OA
ATOM     25  C   UNL     1       1.162   2.819  18.547  0.00  0.00    +0.000 A 
ENDBRANCH  20  21
ENDBRANCH   8  20
TORSDOF 5
ENDMDL
MODEL 2
REMARK VINA RESULT:      -7.9      0.982      1.213
REMARK  Name = 
REMARK  5 active torsions:
REMARK  status: ('A' for Active; 'I' for Inactive)
REMARK    1  A    between atoms: C_2  and  C_10
REMARK    2  A    between atoms: N_3  and  C_4
REMARK    3  A    between atoms: C_4  and  C_5
REMARK    4  A    between atoms: N_17  and  C_18
REMARK    5  A    between atoms: C_18  and  C_19
REMARK                            x       y       z     vdW  Elec       q    Type
REMARK                         _______ _______ _______ _____ _____    ______ ____
ROOT
ATOM      1  C   UNL     1       7.794   5.858  17.831  0.00  0.00    +0.000 C 
ATOM      2  C   UNL     1       7.494   5.535  19.299  0.00  0.00    +0.000 C 
ATOM      3  C   UNL     1       6.004   5.326  19.555  0.00  0.00    +0.000 C 
ATOM      4  C   UNL     1       5.405   4.297  18.585  0.00  0.00    +0.000 C 
ATOM      5  C   UNL     1       5.876   4.541  17.148  0.00  0.00    +0.000 C 
ATOM      6  C   UNL     1       4.902   5.588  16.649  0.00  0.00    +0.000 C 
ATOM      7  C   UNL     1       3.597   5.178  17.299  0.00  0.00    +0.000 C 
ATOM      8  N   UNL     1       3.928   4.450  18.546  0.00  0.00    +0.000 NA
ATOM      9  O   UNL     1       7.242   4.882  16.953  0.00  0.00    +0.000 OA
ENDROOT
BRANCH   1  11
ATOM     10  O   UNL     1       6.666   7.656  16.612  0.00  0.00    +0.000 OA
ATOM     11  C   UNL     1       7.500   7.330  17.452  0.00  0.00    +0.000 C 
ATOM     12  N   UNL     1       8.238   8.261  18.167  0.00  0.00    +0.000 N 
ATOM     13  H   UNL     1       9.078   7.926  18.621  0.00  0.00    +0.000 HD
BRANCH  12  14
ATOM     14  C   UNL     1       8.159   9.647  17.764  0.00  0.00    +0.000 C 
BRANCH  14  15
ATOM     15  C   UNL     1       9.056  10.506  18.596  0.00  0.00    +0.000 A 
ATOM     16  C   UNL     1       9.536  10.271  19.869  0.00  0.00    +0.000 A 
ATOM     17  C   UNL     1      10.261  11.381  20.393  0.00  0.00    +0.000 A 
ATOM     18  C   UNL     1      10.330  12.422  19.493  0.00  0.00    +0.000 A 
ATOM     19  S   UNL     1       9.545  12.049  18.020  0.00  0.00    +0.000 S 
ENDBRANCH  14  15
ENDBRANCH  12  14
ENDBRANCH   1  11
BRANCH   8  20
ATOM     20  C   UNL     1       3.227   3.155  18.617  0.00  0.00    +0.000 C 
BRANCH  20  21
ATOM     21  C   UNL     1       2.655   2.936  19.984  0.00  0.00    +0.000 A 
ATOM     22  C   UNL     1       1.295   3.052  20.399  0.00  0.00    +0.000 A 
ATOM     23  C   UNL     1       1.257   2.711  21.731  0.00  0.00    +0.000 A 
ATOM     24  O   UNL     1       2.501   2.402  22.175  0.00  0.00    +0.000 OA
ATOM     25  C   UNL     1       3.342   2.546  21.120  0.00  0.00    +0.000 A 
ENDBRANCH  20  21
ENDBRANCH   8  20
TORSDOF 5
ENDMDL
MODEL 3
REMARK VINA RESULT:      -7.9      0.901      1.077
REMARK  Name = 
REMARK  5 active torsions:
REMARK  status: ('A' for Active; 'I' for Inactive)
REMARK    1  A    between atoms: C_2  and  C_10
REMARK    2  A    between atoms: N_3  and  C_4
REMARK    3  A    between atoms: C_4  and  C_5
REMARK    4  A    between atoms: N_17  and  C_18
REMARK    5  A    between atoms: C_18  and  C_19
REMARK                            x       y       z     vdW  Elec       q    Type
REMARK                         _______ _______ _______ _____ _____    ______ ____
ROOT
ATOM      1  C   UNL     1       7.961   6.124  17.837  0.00  0.00    +0.000 C 
ATOM      2  C   UNL     1       7.707   5.670  19.279  0.00  0.00    +0.000 C 
ATOM      3  C   UNL     1       6.235   5.361  19.539  0.00  0.00    +0.000 C 
ATOM      4  C   UNL     1       5.673   4.382  18.498  0.00  0.00    +0.000 C 
ATOM      5  C   UNL     1       6.102   4.765  17.079  0.00  0.00    +0.000 C 
ATOM      6  C   UNL     1       5.066   5.795  16.681  0.00  0.00    +0.000 C 
ATOM      7  C   UNL     1       3.796   5.265  17.314  0.00  0.00    +0.000 C 
ATOM      8  N   UNL     1       4.188   4.459  18.494  0.00  0.00    +0.000 NA
ATOM      9  O   UNL     1       7.444   5.193  16.892  0.00  0.00    +0.000 OA
ENDROOT
BRANCH   1  11
ATOM     10  O   UNL     1       6.673   7.947  16.834  0.00  0.00    +0.000 OA
ATOM     11  C   UNL     1       7.584   7.604  17.583  0.00  0.00    +0.000 C 
ATOM     12  N   UNL     1       8.342   8.518  18.299  0.00  0.00    +0.000 N 
ATOM     13  H   UNL     1       9.228   8.190  18.663  0.00  0.00    +0.000 HD
BRANCH  12  14
ATOM     14  C   UNL     1       8.180   9.922  17.999  0.00  0.00    +0.000 C 
BRANCH  14  15
ATOM     15  C   UNL     1       9.317  10.727  18.538  0.00  0.00    +0.000 A 
ATOM     16  C   UNL     1      10.387  11.272  17.856  0.00  0.00    +0.000 A 
ATOM     17  C   UNL     1      11.345  11.867  18.728  0.00  0.00    +0.000 A 
ATOM     18  C   UNL     1      10.965  11.777  20.049  0.00  0.00    +0.000 A 
ATOM     19  S   UNL     1       9.452  11.000  20.230  0.00  0.00    +0.000 S 
ENDBRANCH  14  15
ENDBRANCH  12  14
ENDBRANCH   1  11
BRANCH   8  20
ATOM     20  C   UNL     1       3.558   3.126  18.470  0.00  0.00    +0.000 C 
BRANCH  20  21
ATOM     21  C   UNL     1       2.549   2.998  19.570  0.00  0.00    +0.000 A 
ATOM     22  C   UNL     1       2.785   2.795  20.962  0.00  0.00    +0.000 A 
ATOM     23  C   UNL     1       1.553   2.790  21.576  0.00  0.00    +0.000 A 
ATOM     24  O   UNL     1       0.569   2.965  20.659  0.00  0.00    +0.000 OA
ATOM     25  C   UNL     1       1.173   3.083  19.450  0.00  0.00    +0.000 A 
ENDBRANCH  20  21
ENDBRANCH   8  20
TORSDOF 5
ENDMDL
MODEL 4
REMARK VINA RESULT:      -7.8      1.418      2.358
REMARK  Name = 
REMARK  5 active torsions:
REMARK  status: ('A' for Active; 'I' for Inactive)
REMARK    1  A    between atoms: C_2  and  C_10
REMARK    2  A    between atoms: N_3  and  C_4
REMARK    3  A    between atoms: C_4  and  C_5
REMARK    4  A    between atoms: N_17  and  C_18
REMARK    5  A    between atoms: C_18  and  C_19
REMARK                            x       y       z     vdW  Elec       q    Type
REMARK                         _______ _______ _______ _____ _____    ______ ____
ROOT
ATOM      1  C   UNL     1       5.553   6.793  16.409  0.00  0.00    +0.000 C 
ATOM      2  C   UNL     1       5.524   5.650  15.389  0.00  0.00    +0.000 C 
ATOM      3  C   UNL     1       5.347   4.285  16.050  0.00  0.00    +0.000 C 
ATOM      4  C   UNL     1       4.138   4.271  16.996  0.00  0.00    +0.000 C 
ATOM      5  C   UNL     1       4.099   5.524  17.876  0.00  0.00    +0.000 C 
ATOM      6  C   UNL     1       5.012   5.155  19.026  0.00  0.00    +0.000 C 
ATOM      7  C   UNL     1       4.718   3.683  19.236  0.00  0.00    +0.000 C 
ATOM      8  N   UNL     1       4.258   3.130  17.941  0.00  0.00    +0.000 NA
ATOM      9  O   UNL     1       4.415   6.767  17.263  0.00  0.00    +0.000 OA
ENDROOT
BRANCH   1  11
ATOM     10  O   UNL     1       7.647   5.989  17.389  0.00  0.00    +0.000 OA
ATOM     11  C   UNL     1       6.917   6.941  17.128  0.00  0.00    +0.000 C 
ATOM     12  N   UNL     1       7.265   8.249  17.428  0.00  0.00    +0.000 N 
ATOM     13  H   UNL     1       6.516   8.929  17.440  0.00  0.00    +0.000 HD
BRANCH  12  14
ATOM     14  C   UNL     1       8.433   8.472  18.248  0.00  0.00    +0.000 C 
BRANCH  14  15
ATOM     15  C   UNL     1       8.698   9.931  18.431  0.00  0.00    +0.000 A 
ATOM     16  C   UNL     1       8.396  10.975  17.579  0.00  0.00    +0.000 A 
ATOM     17  C   UNL     1       8.921  12.220  18.032  0.00  0.00    +0.000 A 
ATOM     18  C   UNL     1       9.591  12.091  19.230  0.00  0.00    +0.000 A 
ATOM     19  S   UNL     1       9.563  10.483  19.810  0.00  0.00    +0.000 S 
ENDBRANCH  14  15
ENDBRANCH  12  14
ENDBRANCH   1  11
BRANCH   8  20
ATOM     20  C   UNL     1       2.991   2.390  18.091  0.00  0.00    +0.000 C 
BRANCH  20  21
ATOM     21  C   UNL     1       2.244   2.859  19.302  0.00  0.00    +0.000 A 
ATOM     22  C   UNL     1       2.370   2.400  20.647  0.00  0.00    +0.000 A 
ATOM     23  C   UNL     1       1.513   3.161  21.408  0.00  0.00    +0.000 A 
ATOM     24  O   UNL     1       0.857   4.054  20.626  0.00  0.00    +0.000 OA
ATOM     25  C   UNL     1       1.295   3.864  19.357  0.00  0.00    +0.000 A 
ENDBRANCH  20  21
ENDBRANCH   8  20
TORSDOF 5
ENDMDL
MODEL 5
REMARK VINA RESULT:      -7.8      3.865      5.752
REMARK  Name = 
REMARK  5 active torsions:
REMARK  status: ('A' for Active; 'I' for Inactive)
REMARK    1  A    between atoms: C_2  and  C_10
REMARK    2  A    between atoms: N_3  and  C_4
REMARK    3  A    between atoms: C_4  and  C_5
REMARK    4  A    between atoms: N_17  and  C_18
REMARK    5  A    between atoms: C_18  and  C_19
REMARK                            x       y       z     vdW  Elec       q    Type
REMARK                         _______ _______ _______ _____ _____    ______ ____
ROOT
ATOM      1  C   UNL     1       6.771   6.131  18.055  0.00  0.00    +0.000 C 
ATOM      2  C   UNL     1       5.829   7.210  17.508  0.00  0.00    +0.000 C 
ATOM      3  C   UNL     1       4.437   6.664  17.204  0.00  0.00    +0.000 C 
ATOM      4  C   UNL     1       3.850   5.916  18.409  0.00  0.00    +0.000 C 
ATOM      5  C   UNL     1       4.881   4.980  19.045  0.00  0.00    +0.000 C 
ATOM      6  C   UNL     1       4.764   3.728  18.202  0.00  0.00    +0.000 C 
ATOM      7  C   UNL     1       3.279   3.652  17.908  0.00  0.00    +0.000 C 
ATOM      8  N   UNL     1       2.744   5.032  17.957  0.00  0.00    +0.000 NA
ATOM      9  O   UNL     1       6.211   5.463  19.180  0.00  0.00    +0.000 OA
ENDROOT
BRANCH   1  11
ATOM     10  O   UNL     1       8.027   4.211  17.202  0.00  0.00    +0.000 OA
ATOM     11  C   UNL     1       7.350   5.206  16.956  0.00  0.00    +0.000 C 
ATOM     12  N   UNL     1       7.014   5.576  15.663  0.00  0.00    +0.000 N 
ATOM     13  H   UNL     1       6.705   6.530  15.527  0.00  0.00    +0.000 HD
BRANCH  12  14
ATOM     14  C   UNL     1       7.647   4.877  14.568  0.00  0.00    +0.000 C 
BRANCH  14  15
ATOM     15  C   UNL     1       6.634   4.289  13.640  0.00  0.00    +0.000 A 
ATOM     16  C   UNL     1       5.285   4.085  13.855  0.00  0.00    +0.000 A 
ATOM     17  C   UNL     1       4.662   3.378  12.786  0.00  0.00    +0.000 A 
ATOM     18  C   UNL     1       5.552   3.083  11.776  0.00  0.00    +0.000 A 
ATOM     19  S   UNL     1       7.121   3.677  12.110  0.00  0.00    +0.000 S 
ENDBRANCH  14  15
ENDBRANCH  12  14
ENDBRANCH   1  11
BRANCH   8  20
ATOM     20  C   UNL     1       1.561   5.121  18.832  0.00  0.00    +0.000 C 
BRANCH  20  21
ATOM     21  C   UNL     1       1.700   4.198  20.004  0.00  0.00    +0.000 A 
ATOM     22  C   UNL     1       1.332   2.822  20.091  0.00  0.00    +0.000 A 
ATOM     23  C   UNL     1       1.695   2.393  21.347  0.00  0.00    +0.000 A 
ATOM     24  O   UNL     1       2.253   3.410  22.049  0.00  0.00    +0.000 OA
ATOM     25  C   UNL     1       2.248   4.498  21.239  0.00  0.00    +0.000 A 
ENDBRANCH  20  21
ENDBRANCH   8  20
TORSDOF 5
ENDMDL
MODEL 6
REMARK VINA RESULT:      -7.6      0.914      1.192
REMARK  Name = 
REMARK  5 active torsions:
REMARK  status: ('A' for Active; 'I' for Inactive)
REMARK    1  A    between atoms: C_2  and  C_10
REMARK    2  A    between atoms: N_3  and  C_4
REMARK    3  A    between atoms: C_4  and  C_5
REMARK    4  A    between atoms: N_17  and  C_18
REMARK    5  A    between atoms: C_18  and  C_19
REMARK                            x       y       z     vdW  Elec       q    Type
REMARK                         _______ _______ _______ _____ _____    ______ ____
ROOT
ATOM      1  C   UNL     1       8.045   6.111  18.535  0.00  0.00    +0.000 C 
ATOM      2  C   UNL     1       7.083   5.788  19.683  0.00  0.00    +0.000 C 
ATOM      3  C   UNL     1       5.677   5.459  19.188  0.00  0.00    +0.000 C 
ATOM      4  C   UNL     1       5.703   4.368  18.108  0.00  0.00    +0.000 C 
ATOM      5  C   UNL     1       6.803   4.627  17.075  0.00  0.00    +0.000 C 
ATOM      6  C   UNL     1       6.136   5.581  16.105  0.00  0.00    +0.000 C 
ATOM      7  C   UNL     1       4.710   5.073  16.054  0.00  0.00    +0.000 C 
ATOM      8  N   UNL     1       4.430   4.396  17.341  0.00  0.00    +0.000 NA
ATOM      9  O   UNL     1       8.062   5.079  17.555  0.00  0.00    +0.000 OA
ENDROOT
BRANCH   1  11
ATOM     10  O   UNL     1       7.168   7.820  17.018  0.00  0.00    +0.000 OA
ATOM     11  C   UNL     1       7.881   7.548  17.980  0.00  0.00    +0.000 C 
ATOM     12  N   UNL     1       8.586   8.514  18.681  0.00  0.00    +0.000 N 
ATOM     13  H   UNL     1       9.348   8.191  19.262  0.00  0.00    +0.000 HD
BRANCH  12  14
ATOM     14  C   UNL     1       8.632   9.852  18.137  0.00  0.00    +0.000 C 
BRANCH  14  15
ATOM     15  C   UNL     1       9.584  10.716  18.899  0.00  0.00    +0.000 A 
ATOM     16  C   UNL     1      10.779  11.262  18.476  0.00  0.00    +0.000 A 
ATOM     17  C   UNL     1      11.480  11.924  19.526  0.00  0.00    +0.000 A 
ATOM     18  C   UNL     1      10.785  11.881  20.715  0.00  0.00    +0.000 A 
ATOM     19  S   UNL     1       9.289  11.068  20.555  0.00  0.00    +0.000 S 
ENDBRANCH  14  15
ENDBRANCH  12  14
ENDBRANCH   1  11
BRANCH   8  20
ATOM     20  C   UNL     1       3.871   3.048  17.132  0.00  0.00    +0.000 C 
BRANCH  20  21
ATOM     21  C   UNL     1       2.737   2.792  18.077  0.00  0.00    +0.000 A 
ATOM     22  C   UNL     1       1.476   3.456  18.139  0.00  0.00    +0.000 A 
ATOM     23  C   UNL     1       0.754   2.842  19.137  0.00  0.00    +0.000 A 
ATOM     24  O   UNL     1       1.484   1.850  19.704  0.00  0.00    +0.000 OA
ATOM     25  C   UNL     1       2.681   1.827  19.067  0.00  0.00    +0.000 A 
ENDBRANCH  20  21
ENDBRANCH   8  20
TORSDOF 5
ENDMDL
MODEL 7
REMARK VINA RESULT:      -7.5      4.886      7.064
REMARK  Name = 
REMARK  5 active torsions:
REMARK  status: ('A' for Active; 'I' for Inactive)
REMARK    1  A    between atoms: C_2  and  C_10
REMARK    2  A    between atoms: N_3  and  C_4
REMARK    3  A    between atoms: C_4  and  C_5
REMARK    4  A    between atoms: N_17  and  C_18
REMARK    5  A    between atoms: C_18  and  C_19
REMARK                            x       y       z     vdW  Elec       q    Type
REMARK                         _______ _______ _______ _____ _____    ______ ____
ROOT
ATOM      1  C   UNL     1       3.060   5.580  19.601  0.00  0.00    +0.000 C 
ATOM      2  C   UNL     1       2.563   4.330  18.868  0.00  0.00    +0.000 C 
ATOM      3  C   UNL     1       3.107   4.235  17.445  0.00  0.00    +0.000 C 
ATOM      4  C   UNL     1       4.636   4.373  17.418  0.00  0.00    +0.000 C 
ATOM      5  C   UNL     1       5.112   5.522  18.311  0.00  0.00    +0.000 C 
ATOM      6  C   UNL     1       4.981   6.728  17.405  0.00  0.00    +0.000 C 
ATOM      7  C   UNL     1       5.381   6.183  16.049  0.00  0.00    +0.000 C 
ATOM      8  N   UNL     1       5.079   4.732  16.045  0.00  0.00    +0.000 NA
ATOM      9  O   UNL     1       4.480   5.677  19.574  0.00  0.00    +0.000 OA
ENDROOT
BRANCH   1  11
ATOM     10  O   UNL     1       2.015   7.151  18.042  0.00  0.00    +0.000 OA
ATOM     11  C   UNL     1       2.302   6.870  19.202  0.00  0.00    +0.000 C 
ATOM     12  N   UNL     1       1.942   7.674  20.273  0.00  0.00    +0.000 N 
ATOM     13  H   UNL     1       2.441   7.529  21.141  0.00  0.00    +0.000 HD
BRANCH  12  14
ATOM     14  C   UNL     1       1.385   8.977  19.989  0.00  0.00    +0.000 C 
BRANCH  14  15
ATOM     15  C   UNL     1       0.694   9.545  21.186  0.00  0.00    +0.000 A 
ATOM     16  C   UNL     1       0.478   8.956  22.416  0.00  0.00    +0.000 A 
ATOM     17  C   UNL     1      -0.335   9.757  23.270  0.00  0.00    +0.000 A 
ATOM     18  C   UNL     1      -0.696  10.945  22.672  0.00  0.00    +0.000 A 
ATOM     19  S   UNL     1      -0.038  11.098  21.101  0.00  0.00    +0.000 S 
ENDBRANCH  14  15
ENDBRANCH  12  14
ENDBRANCH   1  11
BRANCH   8  20
ATOM     20  C   UNL     1       6.244   3.941  15.607  0.00  0.00    +0.000 C 
BRANCH  20  21
ATOM     21  C   UNL     1       6.327   3.906  14.111  0.00  0.00    +0.000 A 
ATOM     22  C   UNL     1       5.389   3.352  13.189  0.00  0.00    +0.000 A 
ATOM     23  C   UNL     1       5.878   3.603  11.928  0.00  0.00    +0.000 A 
ATOM     24  O   UNL     1       7.059   4.265  12.003  0.00  0.00    +0.000 OA
ATOM     25  C   UNL     1       7.330   4.440  13.321  0.00  0.00    +0.000 A 
ENDBRANCH  20  21
ENDBRANCH   8  20
TORSDOF 5
ENDMDL
MODEL 8
REMARK VINA RESULT:      -7.5      3.824      5.728
REMARK  Name = 
REMARK  5 active torsions:
REMARK  status: ('A' for Active; 'I' for Inactive)
REMARK    1  A    between atoms: C_2  and  C_10
REMARK    2  A    between atoms: N_3  and  C_4
REMARK    3  A    between atoms: C_4  and  C_5
REMARK    4  A    between atoms: N_17  and  C_18
REMARK    5  A    between atoms: C_18  and  C_19
REMARK                            x       y       z     vdW  Elec       q    Type
REMARK                         _______ _______ _______ _____ _____    ______ ____
ROOT
ATOM      1  C   UNL     1       6.731   6.026  18.003  0.00  0.00    +0.000 C 
ATOM      2  C   UNL     1       5.801   7.125  17.479  0.00  0.00    +0.000 C 
ATOM      3  C   UNL     1       4.430   6.585  17.081  0.00  0.00    +0.000 C 
ATOM      4  C   UNL     1       3.800   5.761  18.214  0.00  0.00    +0.000 C 
ATOM      5  C   UNL     1       4.814   4.800  18.839  0.00  0.00    +0.000 C 
ATOM      6  C   UNL     1       4.750   3.598  17.919  0.00  0.00    +0.000 C 
ATOM      7  C   UNL     1       3.281   3.525  17.556  0.00  0.00    +0.000 C 
ATOM      8  N   UNL     1       2.726   4.895  17.661  0.00  0.00    +0.000 NA
ATOM      9  O   UNL     1       6.131   5.287  19.061  0.00  0.00    +0.000 OA
ENDROOT
BRANCH   1  11
ATOM     10  O   UNL     1       8.074   4.191  17.097  0.00  0.00    +0.000 OA
ATOM     11  C   UNL     1       7.370   5.173  16.879  0.00  0.00    +0.000 C 
ATOM     12  N   UNL     1       7.054   5.591  15.596  0.00  0.00    +0.000 N 
ATOM     13  H   UNL     1       6.716   6.540  15.495  0.00  0.00    +0.000 HD
BRANCH  12  14
ATOM     14  C   UNL     1       7.739   4.966  14.488  0.00  0.00    +0.000 C 
BRANCH  14  15
ATOM     15  C   UNL     1       6.781   4.246  13.594  0.00  0.00    +0.000 A 
ATOM     16  C   UNL     1       7.000   3.735  12.330  0.00  0.00    +0.000 A 
ATOM     17  C   UNL     1       5.809   3.230  11.731  0.00  0.00    +0.000 A 
ATOM     18  C   UNL     1       4.721   3.351  12.567  0.00  0.00    +0.000 A 
ATOM     19  S   UNL     1       5.142   4.049  14.071  0.00  0.00    +0.000 S 
ENDBRANCH  14  15
ENDBRANCH  12  14
ENDBRANCH   1  11
BRANCH   8  20
ATOM     20  C   UNL     1       1.505   4.920  18.487  0.00  0.00    +0.000 C 
BRANCH  20  21
ATOM     21  C   UNL     1       1.667   4.052  19.698  0.00  0.00    +0.000 A 
ATOM     22  C   UNL     1       2.161   4.420  20.985  0.00  0.00    +0.000 A 
ATOM     23  C   UNL     1       2.077   3.297  21.776  0.00  0.00    +0.000 A 
ATOM     24  O   UNL     1       1.576   2.256  21.066  0.00  0.00    +0.000 OA
ATOM     25  C   UNL     1       1.337   2.714  19.812  0.00  0.00    +0.000 A 
ENDBRANCH  20  21
ENDBRANCH   8  20
TORSDOF 5
ENDMDL
MODEL 9
REMARK VINA RESULT:      -7.4      4.566      6.975
REMARK  Name = 
REMARK  5 active torsions:
REMARK  status: ('A' for Active; 'I' for Inactive)
REMARK    1  A    between atoms: C_2  and  C_10
REMARK    2  A    between atoms: N_3  and  C_4
REMARK    3  A    between atoms: C_4  and  C_5
REMARK    4  A    between atoms: N_17  and  C_18
REMARK    5  A    between atoms: C_18  and  C_19
REMARK                            x       y       z     vdW  Elec       q    Type
REMARK                         _______ _______ _______ _____ _____    ______ ____
ROOT
ATOM      1  C   UNL     1       3.755   5.030  19.738  0.00  0.00    +0.000 C 
ATOM      2  C   UNL     1       3.722   3.646  19.079  0.00  0.00    +0.000 C 
ATOM      3  C   UNL     1       4.128   3.693  17.609  0.00  0.00    +0.000 C 
ATOM      4  C   UNL     1       5.472   4.412  17.419  0.00  0.00    +0.000 C 
ATOM      5  C   UNL     1       5.539   5.702  18.240  0.00  0.00    +0.000 C 
ATOM      6  C   UNL     1       4.864   6.712  17.336  0.00  0.00    +0.000 C 
ATOM      7  C   UNL     1       5.320   6.291  15.954  0.00  0.00    +0.000 C 
ATOM      8  N   UNL     1       5.612   4.840  16.002  0.00  0.00    +0.000 NA
ATOM      9  O   UNL     1       5.015   5.668  19.561  0.00  0.00    +0.000 OA
ENDROOT
BRANCH   1  11
ATOM     10  O   UNL     1       1.563   5.490  18.750  0.00  0.00    +0.000 OA
ATOM     11  C   UNL     1       2.519   5.901  19.402  0.00  0.00    +0.000 C 
ATOM     12  N   UNL     1       2.564   7.183  19.928  0.00  0.00    +0.000 N 
ATOM     13  H   UNL     1       3.474   7.531  20.202  0.00  0.00    +0.000 HD
BRANCH  12  14
ATOM     14  C   UNL     1       1.541   8.120  19.526  0.00  0.00    +0.000 C 
BRANCH  14  15
ATOM     15  C   UNL     1       1.006   8.876  20.699  0.00  0.00    +0.000 A 
ATOM     16  C   UNL     1       1.129   8.582  22.043  0.00  0.00    +0.000 A 
ATOM     17  C   UNL     1       0.372   9.464  22.867  0.00  0.00    +0.000 A 
ATOM     18  C   UNL     1      -0.290  10.419  22.127  0.00  0.00    +0.000 A 
ATOM     19  S   UNL     1       0.022  10.263  20.453  0.00  0.00    +0.000 S 
ENDBRANCH  14  15
ENDBRANCH  12  14
ENDBRANCH   1  11
BRANCH   8  20
ATOM     20  C   UNL     1       6.948   4.540  15.455  0.00  0.00    +0.000 C 
BRANCH  20  21
ATOM     21  C   UNL     1       6.887   4.384  13.966  0.00  0.00    +0.000 A 
ATOM     22  C   UNL     1       7.693   5.027  12.980  0.00  0.00    +0.000 A 
ATOM     23  C   UNL     1       7.297   4.530  11.760  0.00  0.00    +0.000 A 
ATOM     24  O   UNL     1       6.293   3.633  11.920  0.00  0.00    +0.000 OA
ATOM     25  C   UNL     1       6.044   3.553  13.251  0.00  0.00    +0.000 A 
ENDBRANCH  20  21
ENDBRANCH   8  20
TORSDOF 5
ENDMDL
