MODEL 1
REMARK VINA RESULT:      -8.6      0.000      0.000
REMARK  Name = 
REMARK  10 active torsions:
REMARK  status: ('A' for Active; 'I' for Inactive)
REMARK    1  A    between atoms: C_1  and  C_2
REMARK    2  A    between atoms: C_2  and  C_3
REMARK    3  A    between atoms: C_5  and  O_6
REMARK    4  A    between atoms: N_8  and  S_9
REMARK    5  A    between atoms: S_9  and  C_12
REMARK    6  A    between atoms: C_15  and  O_16
REMARK    7  A    between atoms: O_16  and  C_17
REMARK    8  A    between atoms: C_17  and  C_18
REMARK    9  A    between atoms: C_30  and  C_31
REMARK   10  A    between atoms: N_33  and  O_34
REMARK                            x       y       z     vdW  Elec       q    Type
REMARK                         _______ _______ _______ _____ _____    ______ ____
ROOT
ATOM      1  S   UNL     1      -1.508  12.349  20.032  0.00  0.00    +0.000 S 
ATOM      2  O   UNL     1      -1.173  13.030  18.815  0.00  0.00    +0.000 OA
ATOM      3  O   UNL     1      -1.202  12.901  21.356  0.00  0.00    +0.000 OA
ENDROOT
BRANCH   1  10
ATOM      4  C   UNL     1      -6.039  10.734  18.748  0.00  0.00    +0.000 C 
ATOM      5  C   UNL     1      -5.490  12.162  18.516  0.00  0.00    +0.000 C 
ATOM      6  C   UNL     1      -6.048  12.607  17.133  0.00  0.00    +0.000 C 
ATOM      7  C   UNL     1      -6.102  13.135  19.552  0.00  0.00    +0.000 C 
ATOM      8  C   UNL     1      -5.486  13.029  20.942  0.00  0.00    +0.000 C 
ATOM      9  C   UNL     1      -3.963  13.157  20.893  0.00  0.00    +0.000 C 
ATOM     10  N   UNL     1      -3.315  12.094  20.003  0.00  0.00    +0.000 NA
ATOM     11  C   UNL     1      -3.904  12.234  18.536  0.00  0.00    +0.000 C 
BRANCH  11  12
ATOM     12  C   UNL     1      -3.348  11.159  17.572  0.00  0.00    +0.000 C 
ATOM     13  O   UNL     1      -3.317   9.952  17.812  0.00  0.00    +0.000 OA
ATOM     14  N   UNL     1      -2.737  11.707  16.455  0.00  0.00    +0.000 N 
ATOM     15  H   UNL     1      -3.030  12.612  16.108  0.00  0.00    +0.000 HD
BRANCH  14  16
ATOM     16  O   UNL     1      -2.241  10.788  15.505  0.00  0.00    +0.000 OA
ATOM     17  H   UNL     1      -1.766  11.375  14.878  0.00  0.00    +0.000 HD
ENDBRANCH  14  16
ENDBRANCH  11  12
BRANCH   8  18
ATOM     18  O   UNL     1      -5.878  11.818  21.578  0.00  0.00    +0.000 OA
ATOM     19  H   UNL     1      -5.150  11.182  21.468  0.00  0.00    +0.000 HD
ENDBRANCH   8  18
ENDBRANCH   1  10
BRANCH   1  20
ATOM     20  C   UNL     1      -0.683  10.715  19.949  0.00  0.00    +0.000 A 
ATOM     21  C   UNL     1       0.092  10.395  18.827  0.00  0.00    +0.000 A 
ATOM     22  C   UNL     1       1.054   9.344  18.869  0.00  0.00    +0.000 A 
ATOM     23  C   UNL     1       1.284   8.578  20.029  0.00  0.00    +0.000 A 
ATOM     24  C   UNL     1       0.447   8.852  21.117  0.00  0.00    +0.000 A 
ATOM     25  C   UNL     1      -0.486   9.944  21.095  0.00  0.00    +0.000 A 
BRANCH  23  26
ATOM     26  O   UNL     1       2.366   7.711  19.987  0.00  0.00    +0.000 OA
BRANCH  26  27
ATOM     27  C   UNL     1       2.305   6.221  19.869  0.00  0.00    +0.000 C 
BRANCH  27  28
ATOM     28  C   UNL     1       2.472   5.664  18.439  0.00  0.00    +0.000 A 
ATOM     29  N   UNL     1       1.544   4.704  18.290  0.00  0.00    +0.000 NA
ATOM     30  C   UNL     1       1.938   3.542  17.790  0.00  0.00    +0.000 A 
ATOM     31  C   UNL     1       3.138   3.380  17.168  0.00  0.00    +0.000 A 
ATOM     32  C   UNL     1       4.090   4.369  17.226  0.00  0.00    +0.000 A 
ATOM     33  C   UNL     1       5.288   4.078  16.574  0.00  0.00    +0.000 A 
ATOM     34  C   UNL     1       5.913   5.074  15.865  0.00  0.00    +0.000 A 
ATOM     35  C   UNL     1       5.350   6.344  15.917  0.00  0.00    +0.000 A 
ATOM     36  C   UNL     1       4.312   6.651  16.846  0.00  0.00    +0.000 A 
ATOM     37  C   UNL     1       3.687   5.637  17.650  0.00  0.00    +0.000 A 
ENDBRANCH  27  28
ENDBRANCH  26  27
ENDBRANCH  23  26
ENDBRANCH   1  20
TORSDOF 8
ENDMDL
MODEL 2
REMARK VINA RESULT:      -8.6      2.806     10.308
REMARK  Name = 
REMARK  10 active torsions:
REMARK  status: ('A' for Active; 'I' for Inactive)
REMARK    1  A    between atoms: C_1  and  C_2
REMARK    2  A    between atoms: C_2  and  C_3
REMARK    3  A    between atoms: C_5  and  O_6
REMARK    4  A    between atoms: N_8  and  S_9
REMARK    5  A    between atoms: S_9  and  C_12
REMARK    6  A    between atoms: C_15  and  O_16
REMARK    7  A    between atoms: O_16  and  C_17
REMARK    8  A    between atoms: C_17  and  C_18
REMARK    9  A    between atoms: C_30  and  C_31
REMARK   10  A    between atoms: N_33  and  O_34
REMARK                            x       y       z     vdW  Elec       q    Type
REMARK                         _______ _______ _______ _____ _____    ______ ____
ROOT
ATOM      1  S   UNL     1       2.646   5.794  18.894  0.00  0.00    +0.000 S 
ATOM      2  O   UNL     1       1.511   5.174  18.273  0.00  0.00    +0.000 OA
ATOM      3  O   UNL     1       3.230   5.300  20.146  0.00  0.00    +0.000 OA
ENDROOT
BRANCH   1  10
ATOM      4  C   UNL     1       6.244   4.160  15.866  0.00  0.00    +0.000 C 
ATOM      5  C   UNL     1       6.458   4.956  17.175  0.00  0.00    +0.000 C 
ATOM      6  C   UNL     1       7.732   4.351  17.832  0.00  0.00    +0.000 C 
ATOM      7  C   UNL     1       6.811   6.426  16.844  0.00  0.00    +0.000 C 
ATOM      8  C   UNL     1       5.616   7.271  16.421  0.00  0.00    +0.000 C 
ATOM      9  C   UNL     1       4.481   7.190  17.443  0.00  0.00    +0.000 C 
ATOM     10  N   UNL     1       3.995   5.756  17.665  0.00  0.00    +0.000 NA
ATOM     11  C   UNL     1       5.219   4.879  18.166  0.00  0.00    +0.000 C 
BRANCH  11  12
ATOM     12  C   UNL     1       4.837   3.392  18.363  0.00  0.00    +0.000 C 
ATOM     13  O   UNL     1       4.133   2.741  17.591  0.00  0.00    +0.000 OA
ATOM     14  N   UNL     1       5.243   2.895  19.592  0.00  0.00    +0.000 N 
ATOM     15  H   UNL     1       6.051   3.289  20.057  0.00  0.00    +0.000 HD
BRANCH  14  16
ATOM     16  O   UNL     1       4.968   1.531  19.831  0.00  0.00    +0.000 OA
ATOM     17  H   UNL     1       4.409   1.572  20.637  0.00  0.00    +0.000 HD
ENDBRANCH  14  16
ENDBRANCH  11  12
BRANCH   8  18
ATOM     18  O   UNL     1       5.165   6.897  15.125  0.00  0.00    +0.000 OA
ATOM     19  H   UNL     1       5.413   5.967  14.986  0.00  0.00    +0.000 HD
ENDBRANCH   8  18
ENDBRANCH   1  10
BRANCH   1  20
ATOM     20  C   UNL     1       2.176   7.540  19.195  0.00  0.00    +0.000 A 
ATOM     21  C   UNL     1       1.924   8.379  18.102  0.00  0.00    +0.000 A 
ATOM     22  C   UNL     1       1.191   9.592  18.255  0.00  0.00    +0.000 A 
ATOM     23  C   UNL     1       0.676  10.010  19.498  0.00  0.00    +0.000 A 
ATOM     24  C   UNL     1       1.005   9.205  20.596  0.00  0.00    +0.000 A 
ATOM     25  C   UNL     1       1.698   7.958  20.437  0.00  0.00    +0.000 A 
BRANCH  23  26
ATOM     26  O   UNL     1      -0.165  11.113  19.475  0.00  0.00    +0.000 OA
BRANCH  26  27
ATOM     27  C   UNL     1      -0.905  11.639  18.287  0.00  0.00    +0.000 C 
BRANCH  27  28
ATOM     28  C   UNL     1      -2.289  11.002  18.034  0.00  0.00    +0.000 A 
ATOM     29  N   UNL     1      -2.114  10.071  17.081  0.00  0.00    +0.000 NA
ATOM     30  C   UNL     1      -2.960  10.071  16.062  0.00  0.00    +0.000 A 
ATOM     31  C   UNL     1      -4.136  10.760  16.083  0.00  0.00    +0.000 A 
ATOM     32  C   UNL     1      -4.392  11.665  17.084  0.00  0.00    +0.000 A 
ATOM     33  C   UNL     1      -5.615  12.328  16.986  0.00  0.00    +0.000 A 
ATOM     34  C   UNL     1      -6.336  12.556  18.131  0.00  0.00    +0.000 A 
ATOM     35  C   UNL     1      -5.753  12.187  19.337  0.00  0.00    +0.000 A 
ATOM     36  C   UNL     1      -4.380  11.806  19.404  0.00  0.00    +0.000 A 
ATOM     37  C   UNL     1      -3.583  11.625  18.222  0.00  0.00    +0.000 A 
ENDBRANCH  27  28
ENDBRANCH  26  27
ENDBRANCH  23  26
ENDBRANCH   1  20
TORSDOF 8
ENDMDL
MODEL 3
REMARK VINA RESULT:      -8.5      1.412      1.552
REMARK  Name = 
REMARK  10 active torsions:
REMARK  status: ('A' for Active; 'I' for Inactive)
REMARK    1  A    between atoms: C_1  and  C_2
REMARK    2  A    between atoms: C_2  and  C_3
REMARK    3  A    between atoms: C_5  and  O_6
REMARK    4  A    between atoms: N_8  and  S_9
REMARK    5  A    between atoms: S_9  and  C_12
REMARK    6  A    between atoms: C_15  and  O_16
REMARK    7  A    between atoms: O_16  and  C_17
REMARK    8  A    between atoms: C_17  and  C_18
REMARK    9  A    between atoms: C_30  and  C_31
REMARK   10  A    between atoms: N_33  and  O_34
REMARK                            x       y       z     vdW  Elec       q    Type
REMARK                         _______ _______ _______ _____ _____    ______ ____
ROOT
ATOM      1  S   UNL     1      -1.159  12.335  19.548  0.00  0.00    +0.000 S 
ATOM      2  O   UNL     1      -0.950  13.039  18.316  0.00  0.00    +0.000 OA
ATOM      3  O   UNL     1      -0.696  12.849  20.841  0.00  0.00    +0.000 OA
ENDROOT
BRANCH   1  10
ATOM      4  C   UNL     1      -5.819  10.737  18.823  0.00  0.00    +0.000 C 
ATOM      5  C   UNL     1      -5.278  12.139  18.459  0.00  0.00    +0.000 C 
ATOM      6  C   UNL     1      -5.970  12.521  17.117  0.00  0.00    +0.000 C 
ATOM      7  C   UNL     1      -5.768  13.178  19.496  0.00  0.00    +0.000 C 
ATOM      8  C   UNL     1      -5.014  13.135  20.819  0.00  0.00    +0.000 C 
ATOM      9  C   UNL     1      -3.503  13.233  20.609  0.00  0.00    +0.000 C 
ATOM     10  N   UNL     1      -2.963  12.112  19.717  0.00  0.00    +0.000 NA
ATOM     11  C   UNL     1      -3.698  12.184  18.312  0.00  0.00    +0.000 C 
BRANCH  11  12
ATOM     12  C   UNL     1      -3.258  11.048  17.357  0.00  0.00    +0.000 C 
ATOM     13  O   UNL     1      -3.313   9.848  17.625  0.00  0.00    +0.000 OA
ATOM     14  N   UNL     1      -2.641  11.524  16.211  0.00  0.00    +0.000 N 
ATOM     15  H   UNL     1      -2.873  12.441  15.852  0.00  0.00    +0.000 HD
BRANCH  14  16
ATOM     16  O   UNL     1      -2.248  10.549  15.268  0.00  0.00    +0.000 OA
ATOM     17  H   UNL     1      -2.847   9.801  15.482  0.00  0.00    +0.000 HD
ENDBRANCH  14  16
ENDBRANCH  11  12
BRANCH   8  18
ATOM     18  O   UNL     1      -5.354  11.967  21.558  0.00  0.00    +0.000 OA
ATOM     19  H   UNL     1      -4.569  11.392  21.572  0.00  0.00    +0.000 HD
ENDBRANCH   8  18
ENDBRANCH   1  10
BRANCH   1  20
ATOM     20  C   UNL     1      -0.382  10.689  19.336  0.00  0.00    +0.000 A 
ATOM     21  C   UNL     1       0.098  10.315  18.074  0.00  0.00    +0.000 A 
ATOM     22  C   UNL     1       1.040   9.256  17.927  0.00  0.00    +0.000 A 
ATOM     23  C   UNL     1       1.543   8.534  19.027  0.00  0.00    +0.000 A 
ATOM     24  C   UNL     1       0.994   8.862  20.273  0.00  0.00    +0.000 A 
ATOM     25  C   UNL     1       0.085   9.962  20.432  0.00  0.00    +0.000 A 
BRANCH  23  26
ATOM     26  O   UNL     1       2.581   7.653  18.761  0.00  0.00    +0.000 OA
BRANCH  26  27
ATOM     27  C   UNL     1       2.450   6.257  18.243  0.00  0.00    +0.000 C 
BRANCH  27  28
ATOM     28  C   UNL     1       3.780   5.551  17.901  0.00  0.00    +0.000 A 
ATOM     29  N   UNL     1       3.554   4.232  18.012  0.00  0.00    +0.000 NA
ATOM     30  C   UNL     1       4.426   3.516  18.705  0.00  0.00    +0.000 A 
ATOM     31  C   UNL     1       5.656   3.991  19.051  0.00  0.00    +0.000 A 
ATOM     32  C   UNL     1       5.960   5.320  18.881  0.00  0.00    +0.000 A 
ATOM     33  C   UNL     1       7.238   5.695  19.294  0.00  0.00    +0.000 A 
ATOM     34  C   UNL     1       7.942   6.594  18.533  0.00  0.00    +0.000 A 
ATOM     35  C   UNL     1       7.293   7.145  17.435  0.00  0.00    +0.000 A 
ATOM     36  C   UNL     1       5.891   6.967  17.242  0.00  0.00    +0.000 A 
ATOM     37  C   UNL     1       5.116   6.083  18.069  0.00  0.00    +0.000 A 
ENDBRANCH  27  28
ENDBRANCH  26  27
ENDBRANCH  23  26
ENDBRANCH   1  20
TORSDOF 8
ENDMDL
MODEL 4
REMARK VINA RESULT:      -8.5      6.496     10.472
REMARK  Name = 
REMARK  10 active torsions:
REMARK  status: ('A' for Active; 'I' for Inactive)
REMARK    1  A    between atoms: C_1  and  C_2
REMARK    2  A    between atoms: C_2  and  C_3
REMARK    3  A    between atoms: C_5  and  O_6
REMARK    4  A    between atoms: N_8  and  S_9
REMARK    5  A    between atoms: S_9  and  C_12
REMARK    6  A    between atoms: C_15  and  O_16
REMARK    7  A    between atoms: O_16  and  C_17
REMARK    8  A    between atoms: C_17  and  C_18
REMARK    9  A    between atoms: C_30  and  C_31
REMARK   10  A    between atoms: N_33  and  O_34
REMARK                            x       y       z     vdW  Elec       q    Type
REMARK                         _______ _______ _______ _____ _____    ______ ____
ROOT
ATOM      1  S   UNL     1       5.108   4.904  17.194  0.00  0.00    +0.000 S 
ATOM      2  O   UNL     1       5.528   3.533  17.195  0.00  0.00    +0.000 OA
ATOM      3  O   UNL     1       4.465   5.533  16.035  0.00  0.00    +0.000 OA
ENDROOT
BRANCH   1  10
ATOM      4  C   UNL     1       2.520   4.018  21.354  0.00  0.00    +0.000 C 
ATOM      5  C   UNL     1       1.963   3.952  19.912  0.00  0.00    +0.000 C 
ATOM      6  C   UNL     1       0.969   2.753  19.900  0.00  0.00    +0.000 C 
ATOM      7  C   UNL     1       1.111   5.210  19.619  0.00  0.00    +0.000 C 
ATOM      8  C   UNL     1       1.931   6.462  19.338  0.00  0.00    +0.000 C 
ATOM      9  C   UNL     1       2.963   6.223  18.235  0.00  0.00    +0.000 C 
ATOM     10  N   UNL     1       3.931   5.087  18.577  0.00  0.00    +0.000 NA
ATOM     11  C   UNL     1       3.091   3.760  18.811  0.00  0.00    +0.000 C 
BRANCH  11  12
ATOM     12  C   UNL     1       3.983   2.563  19.221  0.00  0.00    +0.000 C 
ATOM     13  O   UNL     1       4.851   2.603  20.093  0.00  0.00    +0.000 OA
ATOM     14  N   UNL     1       3.814   1.465  18.393  0.00  0.00    +0.000 N 
ATOM     15  H   UNL     1       2.931   1.316  17.920  0.00  0.00    +0.000 HD
BRANCH  14  16
ATOM     16  O   UNL     1       4.563   0.315  18.727  0.00  0.00    +0.000 OA
ATOM     17  H   UNL     1       3.909  -0.405  18.588  0.00  0.00    +0.000 HD
ENDBRANCH  14  16
ENDBRANCH  11  12
BRANCH   8  18
ATOM     18  O   UNL     1       2.553   6.937  20.527  0.00  0.00    +0.000 OA
ATOM     19  H   UNL     1       3.294   6.340  20.728  0.00  0.00    +0.000 HD
ENDBRANCH   8  18
ENDBRANCH   1  10
BRANCH   1  20
ATOM     20  C   UNL     1       6.602   5.900  17.560  0.00  0.00    +0.000 A 
ATOM     21  C   UNL     1       6.747   7.161  16.968  0.00  0.00    +0.000 A 
ATOM     22  C   UNL     1       7.652   8.126  17.498  0.00  0.00    +0.000 A 
ATOM     23  C   UNL     1       8.440   7.875  18.639  0.00  0.00    +0.000 A 
ATOM     24  C   UNL     1       8.347   6.584  19.172  0.00  0.00    +0.000 A 
ATOM     25  C   UNL     1       7.399   5.627  18.673  0.00  0.00    +0.000 A 
BRANCH  23  26
ATOM     26  O   UNL     1       9.142   8.957  19.151  0.00  0.00    +0.000 OA
BRANCH  26  27
ATOM     27  C   UNL     1       8.913  10.398  18.824  0.00  0.00    +0.000 C 
BRANCH  27  28
ATOM     28  C   UNL     1      10.064  11.353  19.207  0.00  0.00    +0.000 A 
ATOM     29  N   UNL     1      10.042  11.463  20.545  0.00  0.00    +0.000 NA
ATOM     30  C   UNL     1      10.100  12.681  21.063  0.00  0.00    +0.000 A 
ATOM     31  C   UNL     1      10.464  13.772  20.332  0.00  0.00    +0.000 A 
ATOM     32  C   UNL     1      10.577  13.687  18.966  0.00  0.00    +0.000 A 
ATOM     33  C   UNL     1      10.930  14.874  18.324  0.00  0.00    +0.000 A 
ATOM     34  C   UNL     1      11.812  14.820  17.275  0.00  0.00    +0.000 A 
ATOM     35  C   UNL     1      12.233  13.563  16.859  0.00  0.00    +0.000 A 
ATOM     36  C   UNL     1      11.602  12.378  17.341  0.00  0.00    +0.000 A 
ATOM     37  C   UNL     1      10.624  12.413  18.393  0.00  0.00    +0.000 A 
ENDBRANCH  27  28
ENDBRANCH  26  27
ENDBRANCH  23  26
ENDBRANCH   1  20
TORSDOF 8
ENDMDL
MODEL 5
REMARK VINA RESULT:      -8.3      3.033     10.705
REMARK  Name = 
REMARK  10 active torsions:
REMARK  status: ('A' for Active; 'I' for Inactive)
REMARK    1  A    between atoms: C_1  and  C_2
REMARK    2  A    between atoms: C_2  and  C_3
REMARK    3  A    between atoms: C_5  and  O_6
REMARK    4  A    between atoms: N_8  and  S_9
REMARK    5  A    between atoms: S_9  and  C_12
REMARK    6  A    between atoms: C_15  and  O_16
REMARK    7  A    between atoms: O_16  and  C_17
REMARK    8  A    between atoms: C_17  and  C_18
REMARK    9  A    between atoms: C_30  and  C_31
REMARK   10  A    between atoms: N_33  and  O_34
REMARK                            x       y       z     vdW  Elec       q    Type
REMARK                         _______ _______ _______ _____ _____    ______ ____
ROOT
ATOM      1  S   UNL     1       2.698   5.866  18.849  0.00  0.00    +0.000 S 
ATOM      2  O   UNL     1       1.582   5.184  18.261  0.00  0.00    +0.000 OA
ATOM      3  O   UNL     1       3.284   5.465  20.132  0.00  0.00    +0.000 OA
ENDROOT
BRANCH   1  10
ATOM      4  C   UNL     1       6.296   4.111  15.888  0.00  0.00    +0.000 C 
ATOM      5  C   UNL     1       6.511   4.932  17.181  0.00  0.00    +0.000 C 
ATOM      6  C   UNL     1       7.770   4.321  17.863  0.00  0.00    +0.000 C 
ATOM      7  C   UNL     1       6.890   6.389  16.823  0.00  0.00    +0.000 C 
ATOM      8  C   UNL     1       5.712   7.243  16.371  0.00  0.00    +0.000 C 
ATOM      9  C   UNL     1       4.568   7.202  17.385  0.00  0.00    +0.000 C 
ATOM     10  N   UNL     1       4.057   5.781  17.633  0.00  0.00    +0.000 NA
ATOM     11  C   UNL     1       5.263   4.895  18.163  0.00  0.00    +0.000 C 
BRANCH  11  12
ATOM     12  C   UNL     1       4.856   3.419  18.389  0.00  0.00    +0.000 C 
ATOM     13  O   UNL     1       4.153   2.762  17.621  0.00  0.00    +0.000 OA
ATOM     14  N   UNL     1       5.237   2.945  19.634  0.00  0.00    +0.000 N 
ATOM     15  H   UNL     1       6.044   3.337  20.102  0.00  0.00    +0.000 HD
BRANCH  14  16
ATOM     16  O   UNL     1       4.938   1.591  19.900  0.00  0.00    +0.000 OA
ATOM     17  H   UNL     1       5.789   1.259  20.262  0.00  0.00    +0.000 HD
ENDBRANCH  14  16
ENDBRANCH  11  12
BRANCH   8  18
ATOM     18  O   UNL     1       5.266   6.849  15.079  0.00  0.00    +0.000 OA
ATOM     19  H   UNL     1       5.808   6.089  14.803  0.00  0.00    +0.000 HD
ENDBRANCH   8  18
ENDBRANCH   1  10
BRANCH   1  20
ATOM     20  C   UNL     1       2.189   7.617  19.036  0.00  0.00    +0.000 A 
ATOM     21  C   UNL     1       1.980   8.395  17.891  0.00  0.00    +0.000 A 
ATOM     22  C   UNL     1       1.223   9.602  17.945  0.00  0.00    +0.000 A 
ATOM     23  C   UNL     1       0.640  10.073  19.138  0.00  0.00    +0.000 A 
ATOM     24  C   UNL     1       0.925   9.331  20.290  0.00  0.00    +0.000 A 
ATOM     25  C   UNL     1       1.642   8.089  20.231  0.00  0.00    +0.000 A 
BRANCH  23  26
ATOM     26  O   UNL     1      -0.215  11.159  19.016  0.00  0.00    +0.000 OA
BRANCH  26  27
ATOM     27  C   UNL     1      -1.619  11.244  19.525  0.00  0.00    +0.000 C 
BRANCH  27  28
ATOM     28  C   UNL     1      -1.883  12.369  20.550  0.00  0.00    +0.000 A 
ATOM     29  N   UNL     1      -0.687  12.896  20.858  0.00  0.00    +0.000 NA
ATOM     30  C   UNL     1      -0.402  13.064  22.141  0.00  0.00    +0.000 A 
ATOM     31  C   UNL     1      -1.351  13.003  23.117  0.00  0.00    +0.000 A 
ATOM     32  C   UNL     1      -2.614  12.544  22.830  0.00  0.00    +0.000 A 
ATOM     33  C   UNL     1      -3.490  12.502  23.914  0.00  0.00    +0.000 A 
ATOM     34  C   UNL     1      -4.798  12.870  23.721  0.00  0.00    +0.000 A 
ATOM     35  C   UNL     1      -5.189  13.181  22.424  0.00  0.00    +0.000 A 
ATOM     36  C   UNL     1      -4.338  12.905  21.313  0.00  0.00    +0.000 A 
ATOM     37  C   UNL     1      -2.985  12.453  21.486  0.00  0.00    +0.000 A 
ENDBRANCH  27  28
ENDBRANCH  26  27
ENDBRANCH  23  26
ENDBRANCH   1  20
TORSDOF 8
ENDMDL
MODEL 6
REMARK VINA RESULT:      -8.2      3.204     10.629
REMARK  Name = 
REMARK  10 active torsions:
REMARK  status: ('A' for Active; 'I' for Inactive)
REMARK    1  A    between atoms: C_1  and  C_2
REMARK    2  A    between atoms: C_2  and  C_3
REMARK    3  A    between atoms: C_5  and  O_6
REMARK    4  A    between atoms: N_8  and  S_9
REMARK    5  A    between atoms: S_9  and  C_12
REMARK    6  A    between atoms: C_15  and  O_16
REMARK    7  A    between atoms: O_16  and  C_17
REMARK    8  A    between atoms: C_17  and  C_18
REMARK    9  A    between atoms: C_30  and  C_31
REMARK   10  A    between atoms: N_33  and  O_34
REMARK                            x       y       z     vdW  Elec       q    Type
REMARK                         _______ _______ _______ _____ _____    ______ ____
ROOT
ATOM      1  S   UNL     1       2.660   5.767  18.893  0.00  0.00    +0.000 S 
ATOM      2  O   UNL     1       1.545   5.093  18.293  0.00  0.00    +0.000 OA
ATOM      3  O   UNL     1       3.259   5.333  20.160  0.00  0.00    +0.000 OA
ENDROOT
BRANCH   1  10
ATOM      4  C   UNL     1       6.266   4.139  15.871  0.00  0.00    +0.000 C 
ATOM      5  C   UNL     1       6.476   4.939  17.178  0.00  0.00    +0.000 C 
ATOM      6  C   UNL     1       7.752   4.340  17.838  0.00  0.00    +0.000 C 
ATOM      7  C   UNL     1       6.824   6.409  16.844  0.00  0.00    +0.000 C 
ATOM      8  C   UNL     1       5.626   7.249  16.418  0.00  0.00    +0.000 C 
ATOM      9  C   UNL     1       4.491   7.167  17.440  0.00  0.00    +0.000 C 
ATOM     10  N   UNL     1       4.010   5.731  17.665  0.00  0.00    +0.000 NA
ATOM     11  C   UNL     1       5.237   4.859  18.168  0.00  0.00    +0.000 C 
BRANCH  11  12
ATOM     12  C   UNL     1       4.860   3.372  18.370  0.00  0.00    +0.000 C 
ATOM     13  O   UNL     1       4.183   2.709  17.585  0.00  0.00    +0.000 OA
ATOM     14  N   UNL     1       5.236   2.890  19.614  0.00  0.00    +0.000 N 
ATOM     15  H   UNL     1       6.028   3.294  20.097  0.00  0.00    +0.000 HD
BRANCH  14  16
ATOM     16  O   UNL     1       4.964   1.526  19.859  0.00  0.00    +0.000 OA
ATOM     17  H   UNL     1       4.596   1.549  20.769  0.00  0.00    +0.000 HD
ENDBRANCH  14  16
ENDBRANCH  11  12
BRANCH   8  18
ATOM     18  O   UNL     1       5.177   6.870  15.122  0.00  0.00    +0.000 OA
ATOM     19  H   UNL     1       4.364   7.371  14.937  0.00  0.00    +0.000 HD
ENDBRANCH   8  18
ENDBRANCH   1  10
BRANCH   1  20
ATOM     20  C   UNL     1       2.136   7.507  19.138  0.00  0.00    +0.000 A 
ATOM     21  C   UNL     1       1.823   8.291  18.020  0.00  0.00    +0.000 A 
ATOM     22  C   UNL     1       1.051   9.483  18.147  0.00  0.00    +0.000 A 
ATOM     23  C   UNL     1       0.559   9.934  19.388  0.00  0.00    +0.000 A 
ATOM     24  C   UNL     1       0.948   9.187  20.506  0.00  0.00    +0.000 A 
ATOM     25  C   UNL     1       1.680   7.959  20.377  0.00  0.00    +0.000 A 
BRANCH  23  26
ATOM     26  O   UNL     1      -0.322  11.005  19.345  0.00  0.00    +0.000 OA
BRANCH  26  27
ATOM     27  C   UNL     1      -0.035  12.408  19.777  0.00  0.00    +0.000 C 
BRANCH  27  28
ATOM     28  C   UNL     1      -0.758  12.864  21.063  0.00  0.00    +0.000 A 
ATOM     29  N   UNL     1      -0.191  12.194  22.080  0.00  0.00    +0.000 NA
ATOM     30  C   UNL     1      -0.997  11.600  22.948  0.00  0.00    +0.000 A 
ATOM     31  C   UNL     1      -2.329  11.877  23.020  0.00  0.00    +0.000 A 
ATOM     32  C   UNL     1      -2.937  12.628  22.043  0.00  0.00    +0.000 A 
ATOM     33  C   UNL     1      -4.308  12.823  22.211  0.00  0.00    +0.000 A 
ATOM     34  C   UNL     1      -4.842  14.051  21.912  0.00  0.00    +0.000 A 
ATOM     35  C   UNL     1      -3.986  15.004  21.373  0.00  0.00    +0.000 A 
ATOM     36  C   UNL     1      -2.676  14.653  20.932  0.00  0.00    +0.000 A 
ATOM     37  C   UNL     1      -2.118  13.350  21.172  0.00  0.00    +0.000 A 
ENDBRANCH  27  28
ENDBRANCH  26  27
ENDBRANCH  23  26
ENDBRANCH   1  20
TORSDOF 8
ENDMDL
MODEL 7
REMARK VINA RESULT:      -8.2      3.752     10.174
REMARK  Name = 
REMARK  10 active torsions:
REMARK  status: ('A' for Active; 'I' for Inactive)
REMARK    1  A    between atoms: C_1  and  C_2
REMARK    2  A    between atoms: C_2  and  C_3
REMARK    3  A    between atoms: C_5  and  O_6
REMARK    4  A    between atoms: N_8  and  S_9
REMARK    5  A    between atoms: S_9  and  C_12
REMARK    6  A    between atoms: C_15  and  O_16
REMARK    7  A    between atoms: O_16  and  C_17
REMARK    8  A    between atoms: C_17  and  C_18
REMARK    9  A    between atoms: C_30  and  C_31
REMARK   10  A    between atoms: N_33  and  O_34
REMARK                            x       y       z     vdW  Elec       q    Type
REMARK                         _______ _______ _______ _____ _____    ______ ____
ROOT
ATOM      1  S   UNL     1       2.655   5.782  18.861  0.00  0.00    +0.000 S 
ATOM      2  O   UNL     1       1.545   5.111  18.251  0.00  0.00    +0.000 OA
ATOM      3  O   UNL     1       3.242   5.346  20.133  0.00  0.00    +0.000 OA
ENDROOT
BRANCH   1  10
ATOM      4  C   UNL     1       6.284   4.147  15.869  0.00  0.00    +0.000 C 
ATOM      5  C   UNL     1       6.484   4.945  17.179  0.00  0.00    +0.000 C 
ATOM      6  C   UNL     1       7.752   4.341  17.850  0.00  0.00    +0.000 C 
ATOM      7  C   UNL     1       6.840   6.415  16.851  0.00  0.00    +0.000 C 
ATOM      8  C   UNL     1       5.648   7.259  16.416  0.00  0.00    +0.000 C 
ATOM      9  C   UNL     1       4.504   7.178  17.427  0.00  0.00    +0.000 C 
ATOM     10  N   UNL     1       4.016   5.744  17.646  0.00  0.00    +0.000 NA
ATOM     11  C   UNL     1       5.236   4.868  18.159  0.00  0.00    +0.000 C 
BRANCH  11  12
ATOM     12  C   UNL     1       4.853   3.381  18.354  0.00  0.00    +0.000 C 
ATOM     13  O   UNL     1       4.159   2.728  17.574  0.00  0.00    +0.000 OA
ATOM     14  N   UNL     1       5.245   2.887  19.588  0.00  0.00    +0.000 N 
ATOM     15  H   UNL     1       6.047   3.282  20.063  0.00  0.00    +0.000 HD
BRANCH  14  16
ATOM     16  O   UNL     1       4.968   1.522  19.826  0.00  0.00    +0.000 OA
ATOM     17  H   UNL     1       4.635   1.538  20.750  0.00  0.00    +0.000 HD
ENDBRANCH  14  16
ENDBRANCH  11  12
BRANCH   8  18
ATOM     18  O   UNL     1       5.210   6.883  15.115  0.00  0.00    +0.000 OA
ATOM     19  H   UNL     1       5.067   5.921  15.122  0.00  0.00    +0.000 HD
ENDBRANCH   8  18
ENDBRANCH   1  10
BRANCH   1  20
ATOM     20  C   UNL     1       2.133   7.523  19.102  0.00  0.00    +0.000 A 
ATOM     21  C   UNL     1       1.812   8.302  17.984  0.00  0.00    +0.000 A 
ATOM     22  C   UNL     1       1.041   9.494  18.111  0.00  0.00    +0.000 A 
ATOM     23  C   UNL     1       0.558   9.951  19.353  0.00  0.00    +0.000 A 
ATOM     24  C   UNL     1       0.955   9.209  20.472  0.00  0.00    +0.000 A 
ATOM     25  C   UNL     1       1.686   7.980  20.343  0.00  0.00    +0.000 A 
BRANCH  23  26
ATOM     26  O   UNL     1      -0.324  11.021  19.313  0.00  0.00    +0.000 OA
BRANCH  26  27
ATOM     27  C   UNL     1      -0.501  12.066  20.369  0.00  0.00    +0.000 C 
BRANCH  27  28
ATOM     28  C   UNL     1       0.721  12.980  20.605  0.00  0.00    +0.000 A 
ATOM     29  N   UNL     1       0.571  13.512  21.829  0.00  0.00    +0.000 NA
ATOM     30  C   UNL     1       0.737  14.821  21.954  0.00  0.00    +0.000 A 
ATOM     31  C   UNL     1       1.321  15.582  20.987  0.00  0.00    +0.000 A 
ATOM     32  C   UNL     1       1.567  15.055  19.742  0.00  0.00    +0.000 A 
ATOM     33  C   UNL     1       2.144  15.936  18.828  0.00  0.00    +0.000 A 
ATOM     34  C   UNL     1       3.118  15.468  17.983  0.00  0.00    +0.000 A 
ATOM     35  C   UNL     1       3.407  14.109  18.034  0.00  0.00    +0.000 A 
ATOM     36  C   UNL     1       2.574  13.206  18.758  0.00  0.00    +0.000 A 
ATOM     37  C   UNL     1       1.503  13.667  19.597  0.00  0.00    +0.000 A 
ENDBRANCH  27  28
ENDBRANCH  26  27
ENDBRANCH  23  26
ENDBRANCH   1  20
TORSDOF 8
ENDMDL
MODEL 8
REMARK VINA RESULT:      -8.2      1.600      3.608
REMARK  Name = 
REMARK  10 active torsions:
REMARK  status: ('A' for Active; 'I' for Inactive)
REMARK    1  A    between atoms: C_1  and  C_2
REMARK    2  A    between atoms: C_2  and  C_3
REMARK    3  A    between atoms: C_5  and  O_6
REMARK    4  A    between atoms: N_8  and  S_9
REMARK    5  A    between atoms: S_9  and  C_12
REMARK    6  A    between atoms: C_15  and  O_16
REMARK    7  A    between atoms: O_16  and  C_17
REMARK    8  A    between atoms: C_17  and  C_18
REMARK    9  A    between atoms: C_30  and  C_31
REMARK   10  A    between atoms: N_33  and  O_34
REMARK                            x       y       z     vdW  Elec       q    Type
REMARK                         _______ _______ _______ _____ _____    ______ ____
ROOT
ATOM      1  S   UNL     1      -1.804  12.288  20.363  0.00  0.00    +0.000 S 
ATOM      2  O   UNL     1      -1.089  13.484  20.025  0.00  0.00    +0.000 OA
ATOM      3  O   UNL     1      -2.187  11.958  21.740  0.00  0.00    +0.000 OA
ENDROOT
BRANCH   1  10
ATOM      4  C   UNL     1      -6.458  13.336  18.937  0.00  0.00    +0.000 C 
ATOM      5  C   UNL     1      -5.970  11.982  19.506  0.00  0.00    +0.000 C 
ATOM      6  C   UNL     1      -7.132  11.459  20.400  0.00  0.00    +0.000 C 
ATOM      7  C   UNL     1      -5.823  10.953  18.359  0.00  0.00    +0.000 C 
ATOM      8  C   UNL     1      -4.573  11.147  17.509  0.00  0.00    +0.000 C 
ATOM      9  C   UNL     1      -3.311  11.201  18.371  0.00  0.00    +0.000 C 
ATOM     10  N   UNL     1      -3.359  12.325  19.409  0.00  0.00    +0.000 NA
ATOM     11  C   UNL     1      -4.624  12.100  20.340  0.00  0.00    +0.000 C 
BRANCH  11  12
ATOM     12  C   UNL     1      -4.791  13.224  21.390  0.00  0.00    +0.000 C 
ATOM     13  O   UNL     1      -4.639  14.424  21.161  0.00  0.00    +0.000 OA
ATOM     14  N   UNL     1      -4.981  12.733  22.672  0.00  0.00    +0.000 N 
ATOM     15  H   UNL     1      -5.410  11.827  22.811  0.00  0.00    +0.000 HD
BRANCH  14  16
ATOM     16  O   UNL     1      -5.184  13.699  23.683  0.00  0.00    +0.000 OA
ATOM     17  H   UNL     1      -5.633  14.421  23.191  0.00  0.00    +0.000 HD
ENDBRANCH  14  16
ENDBRANCH  11  12
BRANCH   8  18
ATOM     18  O   UNL     1      -4.689  12.309  16.696  0.00  0.00    +0.000 OA
ATOM     19  H   UNL     1      -4.923  13.051  17.280  0.00  0.00    +0.000 HD
ENDBRANCH   8  18
ENDBRANCH   1  10
BRANCH   1  20
ATOM     20  C   UNL     1      -0.780  10.891  19.762  0.00  0.00    +0.000 A 
ATOM     21  C   UNL     1      -0.079  11.026  18.557  0.00  0.00    +0.000 A 
ATOM     22  C   UNL     1       1.015  10.168  18.240  0.00  0.00    +0.000 A 
ATOM     23  C   UNL     1       1.453   9.151  19.110  0.00  0.00    +0.000 A 
ATOM     24  C   UNL     1       0.693   8.973  20.273  0.00  0.00    +0.000 A 
ATOM     25  C   UNL     1      -0.375   9.868  20.620  0.00  0.00    +0.000 A 
BRANCH  23  26
ATOM     26  O   UNL     1       2.632   8.509  18.760  0.00  0.00    +0.000 OA
BRANCH  26  27
ATOM     27  C   UNL     1       2.798   7.479  17.689  0.00  0.00    +0.000 C 
BRANCH  27  28
ATOM     28  C   UNL     1       3.145   6.059  18.185  0.00  0.00    +0.000 A 
ATOM     29  N   UNL     1       4.168   5.627  17.429  0.00  0.00    +0.000 NA
ATOM     30  C   UNL     1       4.074   4.415  16.903  0.00  0.00    +0.000 A 
ATOM     31  C   UNL     1       3.151   3.504  17.321  0.00  0.00    +0.000 A 
ATOM     32  C   UNL     1       2.131   3.882  18.160  0.00  0.00    +0.000 A 
ATOM     33  C   UNL     1       1.234   2.870  18.498  0.00  0.00    +0.000 A 
ATOM     34  C   UNL     1       0.763   2.808  19.786  0.00  0.00    +0.000 A 
ATOM     35  C   UNL     1       1.145   3.823  20.655  0.00  0.00    +0.000 A 
ATOM     36  C   UNL     1       1.803   4.994  20.175  0.00  0.00    +0.000 A 
ATOM     37  C   UNL     1       2.247   5.112  18.813  0.00  0.00    +0.000 A 
ENDBRANCH  27  28
ENDBRANCH  26  27
ENDBRANCH  23  26
ENDBRANCH   1  20
TORSDOF 8
ENDMDL
MODEL 9
REMARK VINA RESULT:      -8.2      6.676     10.571
REMARK  Name = 
REMARK  10 active torsions:
REMARK  status: ('A' for Active; 'I' for Inactive)
REMARK    1  A    between atoms: C_1  and  C_2
REMARK    2  A    between atoms: C_2  and  C_3
REMARK    3  A    between atoms: C_5  and  O_6
REMARK    4  A    between atoms: N_8  and  S_9
REMARK    5  A    between atoms: S_9  and  C_12
REMARK    6  A    between atoms: C_15  and  O_16
REMARK    7  A    between atoms: O_16  and  C_17
REMARK    8  A    between atoms: C_17  and  C_18
REMARK    9  A    between atoms: C_30  and  C_31
REMARK   10  A    between atoms: N_33  and  O_34
REMARK                            x       y       z     vdW  Elec       q    Type
REMARK                         _______ _______ _______ _____ _____    ______ ____
ROOT
ATOM      1  S   UNL     1       6.178   4.968  17.356  0.00  0.00    +0.000 S 
ATOM      2  O   UNL     1       6.798   3.816  17.943  0.00  0.00    +0.000 OA
ATOM      3  O   UNL     1       5.816   5.034  15.936  0.00  0.00    +0.000 OA
ENDROOT
BRANCH   1  10
ATOM      4  C   UNL     1       2.171   4.226  20.216  0.00  0.00    +0.000 C 
ATOM      5  C   UNL     1       2.163   4.414  18.681  0.00  0.00    +0.000 C 
ATOM      6  C   UNL     1       1.065   3.448  18.145  0.00  0.00    +0.000 C 
ATOM      7  C   UNL     1       1.679   5.841  18.328  0.00  0.00    +0.000 C 
ATOM      8  C   UNL     1       2.730   6.922  18.543  0.00  0.00    +0.000 C 
ATOM      9  C   UNL     1       4.036   6.586  17.823  0.00  0.00    +0.000 C 
ATOM     10  N   UNL     1       4.629   5.251  18.278  0.00  0.00    +0.000 NA
ATOM     11  C   UNL     1       3.565   4.105  18.003  0.00  0.00    +0.000 C 
BRANCH  11  12
ATOM     12  C   UNL     1       4.054   2.718  18.486  0.00  0.00    +0.000 C 
ATOM     13  O   UNL     1       3.717   1.645  17.987  0.00  0.00    +0.000 OA
ATOM     14  N   UNL     1       4.799   2.792  19.652  0.00  0.00    +0.000 N 
ATOM     15  H   UNL     1       5.324   3.630  19.868  0.00  0.00    +0.000 HD
BRANCH  14  16
ATOM     16  O   UNL     1       5.317   1.570  20.136  0.00  0.00    +0.000 OA
ATOM     17  H   UNL     1       6.268   1.643  19.903  0.00  0.00    +0.000 HD
ENDBRANCH  14  16
ENDBRANCH  11  12
BRANCH   8  18
ATOM     18  O   UNL     1       2.952   7.144  19.930  0.00  0.00    +0.000 OA
ATOM     19  H   UNL     1       2.278   7.774  20.237  0.00  0.00    +0.000 HD
ENDBRANCH   8  18
ENDBRANCH   1  10
BRANCH   1  20
ATOM     20  C   UNL     1       7.311   6.375  17.667  0.00  0.00    +0.000 A 
ATOM     21  C   UNL     1       7.163   7.551  16.921  0.00  0.00    +0.000 A 
ATOM     22  C   UNL     1       7.724   8.784  17.366  0.00  0.00    +0.000 A 
ATOM     23  C   UNL     1       8.446   8.893  18.571  0.00  0.00    +0.000 A 
ATOM     24  C   UNL     1       8.657   7.695  19.266  0.00  0.00    +0.000 A 
ATOM     25  C   UNL     1       8.050   6.463  18.848  0.00  0.00    +0.000 A 
BRANCH  23  26
ATOM     26  O   UNL     1       8.782  10.178  18.972  0.00  0.00    +0.000 OA
BRANCH  26  27
ATOM     27  C   UNL     1      10.049  10.905  18.650  0.00  0.00    +0.000 C 
BRANCH  27  28
ATOM     28  C   UNL     1       9.882  12.171  17.782  0.00  0.00    +0.000 A 
ATOM     29  N   UNL     1      11.094  12.451  17.276  0.00  0.00    +0.000 NA
ATOM     30  C   UNL     1      11.524  13.701  17.370  0.00  0.00    +0.000 A 
ATOM     31  C   UNL     1      10.699  14.739  17.682  0.00  0.00    +0.000 A 
ATOM     32  C   UNL     1       9.422  14.502  18.129  0.00  0.00    +0.000 A 
ATOM     33  C   UNL     1       8.681  15.641  18.441  0.00  0.00    +0.000 A 
ATOM     34  C   UNL     1       7.352  15.678  18.103  0.00  0.00    +0.000 A 
ATOM     35  C   UNL     1       6.803  14.530  17.544  0.00  0.00    +0.000 A 
ATOM     36  C   UNL     1       7.523  13.299  17.537  0.00  0.00    +0.000 A 
ATOM     37  C   UNL     1       8.897  13.219  17.951  0.00  0.00    +0.000 A 
ENDBRANCH  27  28
ENDBRANCH  26  27
ENDBRANCH  23  26
ENDBRANCH   1  20
TORSDOF 8
ENDMDL
