MODEL 1
REMARK VINA RESULT:      -8.0      0.000      0.000
REMARK  Name = 
REMARK  13 active torsions:
REMARK  status: ('A' for Active; 'I' for Inactive)
REMARK    1  A    between atoms: C_1  and  O_2
REMARK    2  A    between atoms: O_2  and  C_3
REMARK    3  A    between atoms: C_8  and  C_9
REMARK    4  A    between atoms: C_9  and  C_10
REMARK    5  A    between atoms: C_9  and  N_30
REMARK    6  A    between atoms: C_10  and  N_11
REMARK    7  A    between atoms: C_12  and  C_14
REMARK    8  A    between atoms: C_14  and  O_15
REMARK    9  A    between atoms: O_15  and  C_16
REMARK   10  A    between atoms: C_19  and  C_20
REMARK   11  A    between atoms: C_20  and  C_22
REMARK   12  A    between atoms: N_30  and  C_31
REMARK   13  A    between atoms: N_30  and  C_32
REMARK                            x       y       z     vdW  Elec       q    Type
REMARK                         _______ _______ _______ _____ _____    ______ ____
ROOT
ATOM      1  N   UNL     1       1.912   6.138  18.399  0.00  0.00    +0.000 N 
ATOM      2  C   UNL     1       2.470   7.383  18.276  0.00  0.00    +0.000 C 
ATOM      3  O   UNL     1       3.525   7.602  17.679  0.00  0.00    +0.000 OA
ATOM      4  H   UNL     1       0.985   6.068  18.811  0.00  0.00    +0.000 HD
ENDROOT
BRANCH   1   5
ATOM      5  C   UNL     1       2.556   4.939  17.887  0.00  0.00    +0.000 C 
BRANCH   5   6
ATOM      6  C   UNL     1       3.855   4.506  18.652  0.00  0.00    +0.000 C 
BRANCH   6  12
ATOM      7  C   UNL     1       6.395   4.663  17.945  0.00  0.00    +0.000 A 
ATOM      8  C   UNL     1       7.349   4.636  16.908  0.00  0.00    +0.000 A 
ATOM      9  C   UNL     1       6.990   4.419  15.584  0.00  0.00    +0.000 A 
ATOM     10  C   UNL     1       5.657   4.252  15.258  0.00  0.00    +0.000 A 
ATOM     11  C   UNL     1       4.692   4.308  16.260  0.00  0.00    +0.000 A 
ATOM     12  C   UNL     1       5.026   4.488  17.627  0.00  0.00    +0.000 A 
BRANCH   7  14
ATOM     13  C   UNL     1       7.958   5.677  19.422  0.00  0.00    +0.000 C 
ATOM     14  O   UNL     1       6.767   4.886  19.254  0.00  0.00    +0.000 OA
ENDBRANCH   7  14
ENDBRANCH   6  12
BRANCH   6  15
ATOM     15  N   UNL     1       3.698   3.160  19.315  0.00  0.00    +0.000 NA
ATOM     16  C   UNL     1       2.714   3.167  20.405  0.00  0.00    +0.000 C 
ATOM     17  C   UNL     1       3.423   2.023  18.437  0.00  0.00    +0.000 C 
ENDBRANCH   6  15
ENDBRANCH   5   6
ENDBRANCH   1   5
BRANCH   2  18
ATOM     18  C   UNL     1       1.687   8.511  18.954  0.00  0.00    +0.000 C 
BRANCH  18  19
ATOM     19  O   UNL     1       1.471   8.228  20.334  0.00  0.00    +0.000 OA
BRANCH  19  20
ATOM     20  C   UNL     1       0.802   9.178  21.050  0.00  0.00    +0.000 A 
ATOM     21  C   UNL     1       0.893  10.469  20.531  0.00  0.00    +0.000 A 
ATOM     22  C   UNL     1       0.239  11.532  21.156  0.00  0.00    +0.000 A 
ATOM     23  C   UNL     1      -0.526  11.305  22.306  0.00  0.00    +0.000 A 
ATOM     24  C   UNL     1      -0.639  10.009  22.812  0.00  0.00    +0.000 A 
ATOM     25  C   UNL     1       0.029   8.946  22.188  0.00  0.00    +0.000 A 
BRANCH  23  26
ATOM     26  C   UNL     1      -1.249  12.467  22.898  0.00  0.00    +0.000 C 
ATOM     27  O   UNL     1      -0.607  13.321  23.495  0.00  0.00    +0.000 OA
BRANCH  26  28
ATOM     28  C   UNL     1      -2.723  12.618  22.795  0.00  0.00    +0.000 A 
ATOM     29  C   UNL     1      -3.478  12.536  23.971  0.00  0.00    +0.000 A 
ATOM     30  C   UNL     1      -4.865  12.669  23.927  0.00  0.00    +0.000 A 
ATOM     31  C   UNL     1      -5.502  12.873  22.703  0.00  0.00    +0.000 A 
ATOM     32  C   UNL     1      -4.758  12.927  21.524  0.00  0.00    +0.000 A 
ATOM     33  C   UNL     1      -3.366  12.788  21.567  0.00  0.00    +0.000 A 
ENDBRANCH  26  28
ENDBRANCH  23  26
ENDBRANCH  19  20
ENDBRANCH  18  19
ENDBRANCH   2  18
TORSDOF 10
ENDMDL
MODEL 2
REMARK VINA RESULT:      -8.0      1.051      1.439
REMARK  Name = 
REMARK  13 active torsions:
REMARK  status: ('A' for Active; 'I' for Inactive)
REMARK    1  A    between atoms: C_1  and  O_2
REMARK    2  A    between atoms: O_2  and  C_3
REMARK    3  A    between atoms: C_8  and  C_9
REMARK    4  A    between atoms: C_9  and  C_10
REMARK    5  A    between atoms: C_9  and  N_30
REMARK    6  A    between atoms: C_10  and  N_11
REMARK    7  A    between atoms: C_12  and  C_14
REMARK    8  A    between atoms: C_14  and  O_15
REMARK    9  A    between atoms: O_15  and  C_16
REMARK   10  A    between atoms: C_19  and  C_20
REMARK   11  A    between atoms: C_20  and  C_22
REMARK   12  A    between atoms: N_30  and  C_31
REMARK   13  A    between atoms: N_30  and  C_32
REMARK                            x       y       z     vdW  Elec       q    Type
REMARK                         _______ _______ _______ _____ _____    ______ ____
ROOT
ATOM      1  N   UNL     1       2.631   6.440  18.928  0.00  0.00    +0.000 N 
ATOM      2  C   UNL     1       1.963   6.250  20.109  0.00  0.00    +0.000 C 
ATOM      3  O   UNL     1       1.474   5.172  20.449  0.00  0.00    +0.000 OA
ATOM      4  H   UNL     1       3.098   7.331  18.780  0.00  0.00    +0.000 HD
ENDROOT
BRANCH   1   5
ATOM      5  C   UNL     1       2.768   5.391  17.930  0.00  0.00    +0.000 C 
BRANCH   5   6
ATOM      6  C   UNL     1       3.857   4.308  18.251  0.00  0.00    +0.000 C 
BRANCH   6  12
ATOM      7  C   UNL     1       6.383   4.556  17.523  0.00  0.00    +0.000 A 
ATOM      8  C   UNL     1       7.314   4.711  16.475  0.00  0.00    +0.000 A 
ATOM      9  C   UNL     1       6.921   4.753  15.143  0.00  0.00    +0.000 A 
ATOM     10  C   UNL     1       5.579   4.672  14.825  0.00  0.00    +0.000 A 
ATOM     11  C   UNL     1       4.637   4.552  15.845  0.00  0.00    +0.000 A 
ATOM     12  C   UNL     1       5.005   4.465  17.212  0.00  0.00    +0.000 A 
BRANCH   7  14
ATOM     13  C   UNL     1       7.899   5.380  19.159  0.00  0.00    +0.000 C 
ATOM     14  O   UNL     1       6.788   4.522  18.840  0.00  0.00    +0.000 OA
ENDBRANCH   7  14
ENDBRANCH   6  12
BRANCH   6  15
ATOM     15  N   UNL     1       3.290   2.910  18.220  0.00  0.00    +0.000 NA
ATOM     16  C   UNL     1       3.879   2.028  19.235  0.00  0.00    +0.000 C 
ATOM     17  C   UNL     1       1.833   2.792  18.278  0.00  0.00    +0.000 C 
ENDBRANCH   6  15
ENDBRANCH   5   6
ENDBRANCH   1   5
BRANCH   2  18
ATOM     18  C   UNL     1       1.850   7.495  20.993  0.00  0.00    +0.000 C 
BRANCH  18  19
ATOM     19  O   UNL     1       1.203   8.559  20.299  0.00  0.00    +0.000 OA
BRANCH  19  20
ATOM     20  C   UNL     1       0.553   9.479  21.071  0.00  0.00    +0.000 A 
ATOM     21  C   UNL     1       0.491  10.759  20.523  0.00  0.00    +0.000 A 
ATOM     22  C   UNL     1      -0.163  11.789  21.201  0.00  0.00    +0.000 A 
ATOM     23  C   UNL     1      -0.773  11.539  22.436  0.00  0.00    +0.000 A 
ATOM     24  C   UNL     1      -0.735  10.251  22.973  0.00  0.00    +0.000 A 
ATOM     25  C   UNL     1      -0.067   9.222  22.295  0.00  0.00    +0.000 A 
BRANCH  23  26
ATOM     26  C   UNL     1      -1.506  12.662  23.087  0.00  0.00    +0.000 C 
ATOM     27  O   UNL     1      -0.864  13.585  23.572  0.00  0.00    +0.000 OA
BRANCH  26  28
ATOM     28  C   UNL     1      -2.989  12.695  23.174  0.00  0.00    +0.000 A 
ATOM     29  C   UNL     1      -3.715  12.864  21.988  0.00  0.00    +0.000 A 
ATOM     30  C   UNL     1      -5.107  12.905  22.017  0.00  0.00    +0.000 A 
ATOM     31  C   UNL     1      -5.779  12.789  23.234  0.00  0.00    +0.000 A 
ATOM     32  C   UNL     1      -5.060  12.650  24.421  0.00  0.00    +0.000 A 
ATOM     33  C   UNL     1      -3.662  12.613  24.394  0.00  0.00    +0.000 A 
ENDBRANCH  26  28
ENDBRANCH  23  26
ENDBRANCH  19  20
ENDBRANCH  18  19
ENDBRANCH   2  18
TORSDOF 10
ENDMDL
MODEL 3
REMARK VINA RESULT:      -7.9      1.247      1.379
REMARK  Name = 
REMARK  13 active torsions:
REMARK  status: ('A' for Active; 'I' for Inactive)
REMARK    1  A    between atoms: C_1  and  O_2
REMARK    2  A    between atoms: O_2  and  C_3
REMARK    3  A    between atoms: C_8  and  C_9
REMARK    4  A    between atoms: C_9  and  C_10
REMARK    5  A    between atoms: C_9  and  N_30
REMARK    6  A    between atoms: C_10  and  N_11
REMARK    7  A    between atoms: C_12  and  C_14
REMARK    8  A    between atoms: C_14  and  O_15
REMARK    9  A    between atoms: O_15  and  C_16
REMARK   10  A    between atoms: C_19  and  C_20
REMARK   11  A    between atoms: C_20  and  C_22
REMARK   12  A    between atoms: N_30  and  C_31
REMARK   13  A    between atoms: N_30  and  C_32
REMARK                            x       y       z     vdW  Elec       q    Type
REMARK                         _______ _______ _______ _____ _____    ______ ____
ROOT
ATOM      1  N   UNL     1       2.500   6.305  18.807  0.00  0.00    +0.000 N 
ATOM      2  C   UNL     1       1.964   6.474  20.056  0.00  0.00    +0.000 C 
ATOM      3  O   UNL     1       1.654   5.539  20.797  0.00  0.00    +0.000 OA
ATOM      4  H   UNL     1       2.828   7.129  18.311  0.00  0.00    +0.000 HD
ENDROOT
BRANCH   1   5
ATOM      5  C   UNL     1       2.692   4.992  18.209  0.00  0.00    +0.000 C 
BRANCH   5   6
ATOM      6  C   UNL     1       3.934   4.197  18.744  0.00  0.00    +0.000 C 
BRANCH   6  12
ATOM      7  C   UNL     1       6.393   4.757  17.962  0.00  0.00    +0.000 A 
ATOM      8  C   UNL     1       7.319   4.839  16.901  0.00  0.00    +0.000 A 
ATOM      9  C   UNL     1       6.980   4.486  15.601  0.00  0.00    +0.000 A 
ATOM     10  C   UNL     1       5.692   4.069  15.321  0.00  0.00    +0.000 A 
ATOM     11  C   UNL     1       4.750   4.012  16.345  0.00  0.00    +0.000 A 
ATOM     12  C   UNL     1       5.072   4.326  17.690  0.00  0.00    +0.000 A 
BRANCH   7  14
ATOM     13  C   UNL     1       8.025   5.758  19.371  0.00  0.00    +0.000 C 
ATOM     14  O   UNL     1       6.743   5.116  19.245  0.00  0.00    +0.000 OA
ENDBRANCH   7  14
ENDBRANCH   6  12
BRANCH   6  15
ATOM     15  N   UNL     1       3.605   2.748  19.009  0.00  0.00    +0.000 NA
ATOM     16  C   UNL     1       4.372   2.179  20.124  0.00  0.00    +0.000 C 
ATOM     17  C   UNL     1       2.192   2.418  19.189  0.00  0.00    +0.000 C 
ENDBRANCH   6  15
ENDBRANCH   5   6
ENDBRANCH   1   5
BRANCH   2  18
ATOM     18  C   UNL     1       1.758   7.931  20.478  0.00  0.00    +0.000 C 
BRANCH  18  19
ATOM     19  O   UNL     1       0.928   8.017  21.634  0.00  0.00    +0.000 OA
BRANCH  19  20
ATOM     20  C   UNL     1       0.240   9.184  21.800  0.00  0.00    +0.000 A 
ATOM     21  C   UNL     1      -0.013   9.884  20.620  0.00  0.00    +0.000 A 
ATOM     22  C   UNL     1      -0.725  11.084  20.646  0.00  0.00    +0.000 A 
ATOM     23  C   UNL     1      -1.201  11.590  21.861  0.00  0.00    +0.000 A 
ATOM     24  C   UNL     1      -0.972  10.877  23.040  0.00  0.00    +0.000 A 
ATOM     25  C   UNL     1      -0.247   9.679  23.011  0.00  0.00    +0.000 A 
BRANCH  23  26
ATOM     26  C   UNL     1      -2.004  12.845  21.823  0.00  0.00    +0.000 C 
ATOM     27  O   UNL     1      -1.443  13.913  22.037  0.00  0.00    +0.000 OA
BRANCH  26  28
ATOM     28  C   UNL     1      -3.463  12.845  21.540  0.00  0.00    +0.000 A 
ATOM     29  C   UNL     1      -4.344  12.839  22.628  0.00  0.00    +0.000 A 
ATOM     30  C   UNL     1      -5.722  12.835  22.415  0.00  0.00    +0.000 A 
ATOM     31  C   UNL     1      -6.222  12.825  21.114  0.00  0.00    +0.000 A 
ATOM     32  C   UNL     1      -5.348  12.802  20.026  0.00  0.00    +0.000 A 
ATOM     33  C   UNL     1      -3.965  12.800  20.239  0.00  0.00    +0.000 A 
ENDBRANCH  26  28
ENDBRANCH  23  26
ENDBRANCH  19  20
ENDBRANCH  18  19
ENDBRANCH   2  18
TORSDOF 10
ENDMDL
MODEL 4
REMARK VINA RESULT:      -7.7      2.926      4.352
REMARK  Name = 
REMARK  13 active torsions:
REMARK  status: ('A' for Active; 'I' for Inactive)
REMARK    1  A    between atoms: C_1  and  O_2
REMARK    2  A    between atoms: O_2  and  C_3
REMARK    3  A    between atoms: C_8  and  C_9
REMARK    4  A    between atoms: C_9  and  C_10
REMARK    5  A    between atoms: C_9  and  N_30
REMARK    6  A    between atoms: C_10  and  N_11
REMARK    7  A    between atoms: C_12  and  C_14
REMARK    8  A    between atoms: C_14  and  O_15
REMARK    9  A    between atoms: O_15  and  C_16
REMARK   10  A    between atoms: C_19  and  C_20
REMARK   11  A    between atoms: C_20  and  C_22
REMARK   12  A    between atoms: N_30  and  C_31
REMARK   13  A    between atoms: N_30  and  C_32
REMARK                            x       y       z     vdW  Elec       q    Type
REMARK                         _______ _______ _______ _____ _____    ______ ____
ROOT
ATOM      1  N   UNL     1       3.897   4.611  17.240  0.00  0.00    +0.000 N 
ATOM      2  C   UNL     1       3.949   4.985  18.557  0.00  0.00    +0.000 C 
ATOM      3  O   UNL     1       4.977   4.950  19.236  0.00  0.00    +0.000 OA
ATOM      4  H   UNL     1       3.035   4.778  16.728  0.00  0.00    +0.000 HD
ENDROOT
BRANCH   1   5
ATOM      5  C   UNL     1       5.050   4.072  16.534  0.00  0.00    +0.000 C 
BRANCH   5   6
ATOM      6  C   UNL     1       5.902   5.131  15.751  0.00  0.00    +0.000 C 
BRANCH   6  12
ATOM      7  C   UNL     1       7.275   4.867  13.510  0.00  0.00    +0.000 A 
ATOM      8  C   UNL     1       7.360   4.302  12.222  0.00  0.00    +0.000 A 
ATOM      9  C   UNL     1       6.382   3.447  11.728  0.00  0.00    +0.000 A 
ATOM     10  C   UNL     1       5.275   3.158  12.503  0.00  0.00    +0.000 A 
ATOM     11  C   UNL     1       5.152   3.731  13.767  0.00  0.00    +0.000 A 
ATOM     12  C   UNL     1       6.149   4.576  14.318  0.00  0.00    +0.000 A 
BRANCH   7  14
ATOM     13  C   UNL     1       9.302   6.021  13.047  0.00  0.00    +0.000 C 
ATOM     14  O   UNL     1       8.250   5.719  13.983  0.00  0.00    +0.000 OA
ENDBRANCH   7  14
ENDBRANCH   6  12
BRANCH   6  15
ATOM     15  N   UNL     1       7.207   5.432  16.445  0.00  0.00    +0.000 NA
ATOM     16  C   UNL     1       7.212   6.736  17.120  0.00  0.00    +0.000 C 
ATOM     17  C   UNL     1       7.706   4.417  17.372  0.00  0.00    +0.000 C 
ENDBRANCH   6  15
ENDBRANCH   5   6
ENDBRANCH   1   5
BRANCH   2  18
ATOM     18  C   UNL     1       2.615   5.447  19.149  0.00  0.00    +0.000 C 
BRANCH  18  19
ATOM     19  O   UNL     1       2.807   6.520  20.068  0.00  0.00    +0.000 OA
BRANCH  19  20
ATOM     20  C   UNL     1       2.072   7.648  19.843  0.00  0.00    +0.000 A 
ATOM     21  C   UNL     1       2.143   8.139  18.539  0.00  0.00    +0.000 A 
ATOM     22  C   UNL     1       1.424   9.276  18.170  0.00  0.00    +0.000 A 
ATOM     23  C   UNL     1       0.613   9.928  19.107  0.00  0.00    +0.000 A 
ATOM     24  C   UNL     1       0.519   9.422  20.405  0.00  0.00    +0.000 A 
ATOM     25  C   UNL     1       1.253   8.287  20.775  0.00  0.00    +0.000 A 
BRANCH  23  26
ATOM     26  C   UNL     1      -0.177  11.104  18.643  0.00  0.00    +0.000 C 
ATOM     27  O   UNL     1       0.343  12.212  18.664  0.00  0.00    +0.000 OA
BRANCH  26  28
ATOM     28  C   UNL     1      -1.577  10.977  18.160  0.00  0.00    +0.000 A 
ATOM     29  C   UNL     1      -2.556  11.777  18.762  0.00  0.00    +0.000 A 
ATOM     30  C   UNL     1      -3.884  11.694  18.347  0.00  0.00    +0.000 A 
ATOM     31  C   UNL     1      -4.239  10.800  17.337  0.00  0.00    +0.000 A 
ATOM     32  C   UNL     1      -3.273   9.980  16.754  0.00  0.00    +0.000 A 
ATOM     33  C   UNL     1      -1.940  10.059  17.173  0.00  0.00    +0.000 A 
ENDBRANCH  26  28
ENDBRANCH  23  26
ENDBRANCH  19  20
ENDBRANCH  18  19
ENDBRANCH   2  18
TORSDOF 10
ENDMDL
MODEL 5
REMARK VINA RESULT:      -7.6      1.118      1.523
REMARK  Name = 
REMARK  13 active torsions:
REMARK  status: ('A' for Active; 'I' for Inactive)
REMARK    1  A    between atoms: C_1  and  O_2
REMARK    2  A    between atoms: O_2  and  C_3
REMARK    3  A    between atoms: C_8  and  C_9
REMARK    4  A    between atoms: C_9  and  C_10
REMARK    5  A    between atoms: C_9  and  N_30
REMARK    6  A    between atoms: C_10  and  N_11
REMARK    7  A    between atoms: C_12  and  C_14
REMARK    8  A    between atoms: C_14  and  O_15
REMARK    9  A    between atoms: O_15  and  C_16
REMARK   10  A    between atoms: C_19  and  C_20
REMARK   11  A    between atoms: C_20  and  C_22
REMARK   12  A    between atoms: N_30  and  C_31
REMARK   13  A    between atoms: N_30  and  C_32
REMARK                            x       y       z     vdW  Elec       q    Type
REMARK                         _______ _______ _______ _____ _____    ______ ____
ROOT
ATOM      1  N   UNL     1       2.853   5.968  19.764  0.00  0.00    +0.000 N 
ATOM      2  C   UNL     1       1.780   6.288  20.553  0.00  0.00    +0.000 C 
ATOM      3  O   UNL     1       0.817   5.540  20.730  0.00  0.00    +0.000 OA
ATOM      4  H   UNL     1       3.651   6.597  19.764  0.00  0.00    +0.000 HD
ENDROOT
BRANCH   1   5
ATOM      5  C   UNL     1       2.923   4.730  19.004  0.00  0.00    +0.000 C 
BRANCH   5   6
ATOM      6  C   UNL     1       4.246   3.909  19.195  0.00  0.00    +0.000 C 
BRANCH   6  12
ATOM      7  C   UNL     1       6.465   4.771  18.050  0.00  0.00    +0.000 A 
ATOM      8  C   UNL     1       7.183   4.996  16.858  0.00  0.00    +0.000 A 
ATOM      9  C   UNL     1       6.668   4.655  15.614  0.00  0.00    +0.000 A 
ATOM     10  C   UNL     1       5.402   4.106  15.527  0.00  0.00    +0.000 A 
ATOM     11  C   UNL     1       4.659   3.906  16.688  0.00  0.00    +0.000 A 
ATOM     12  C   UNL     1       5.169   4.204  17.977  0.00  0.00    +0.000 A 
BRANCH   7  14
ATOM     13  C   UNL     1       8.099   6.034  19.228  0.00  0.00    +0.000 C 
ATOM     14  O   UNL     1       6.987   5.120  19.277  0.00  0.00    +0.000 OA
ENDBRANCH   7  14
ENDBRANCH   6  12
BRANCH   6  15
ATOM     15  N   UNL     1       3.980   2.430  19.324  0.00  0.00    +0.000 NA
ATOM     16  C   UNL     1       4.663   1.821  20.472  0.00  0.00    +0.000 C 
ATOM     17  C   UNL     1       2.578   2.014  19.331  0.00  0.00    +0.000 C 
ENDBRANCH   6  15
ENDBRANCH   5   6
ENDBRANCH   1   5
BRANCH   2  18
ATOM     18  C   UNL     1       1.848   7.671  21.206  0.00  0.00    +0.000 C 
BRANCH  18  19
ATOM     19  O   UNL     1       1.390   8.683  20.312  0.00  0.00    +0.000 OA
BRANCH  19  20
ATOM     20  C   UNL     1       0.681   9.707  20.869  0.00  0.00    +0.000 A 
ATOM     21  C   UNL     1       0.106   9.414  22.105  0.00  0.00    +0.000 A 
ATOM     22  C   UNL     1      -0.630  10.380  22.792  0.00  0.00    +0.000 A 
ATOM     23  C   UNL     1      -0.787  11.660  22.248  0.00  0.00    +0.000 A 
ATOM     24  C   UNL     1      -0.189  11.964  21.023  0.00  0.00    +0.000 A 
ATOM     25  C   UNL     1       0.539  10.987  20.330  0.00  0.00    +0.000 A 
BRANCH  23  26
ATOM     26  C   UNL     1      -1.533  12.669  23.052  0.00  0.00    +0.000 C 
ATOM     27  O   UNL     1      -0.902  13.465  23.735  0.00  0.00    +0.000 OA
BRANCH  26  28
ATOM     28  C   UNL     1      -3.017  12.737  23.057  0.00  0.00    +0.000 A 
ATOM     29  C   UNL     1      -3.679  12.591  24.283  0.00  0.00    +0.000 A 
ATOM     30  C   UNL     1      -5.071  12.644  24.340  0.00  0.00    +0.000 A 
ATOM     31  C   UNL     1      -5.806  12.833  23.170  0.00  0.00    +0.000 A 
ATOM     32  C   UNL     1      -5.153  12.950  21.943  0.00  0.00    +0.000 A 
ATOM     33  C   UNL     1      -3.756  12.892  21.883  0.00  0.00    +0.000 A 
ENDBRANCH  26  28
ENDBRANCH  23  26
ENDBRANCH  19  20
ENDBRANCH  18  19
ENDBRANCH   2  18
TORSDOF 10
ENDMDL
MODEL 6
REMARK VINA RESULT:      -7.6      2.852      3.773
REMARK  Name = 
REMARK  13 active torsions:
REMARK  status: ('A' for Active; 'I' for Inactive)
REMARK    1  A    between atoms: C_1  and  O_2
REMARK    2  A    between atoms: O_2  and  C_3
REMARK    3  A    between atoms: C_8  and  C_9
REMARK    4  A    between atoms: C_9  and  C_10
REMARK    5  A    between atoms: C_9  and  N_30
REMARK    6  A    between atoms: C_10  and  N_11
REMARK    7  A    between atoms: C_12  and  C_14
REMARK    8  A    between atoms: C_14  and  O_15
REMARK    9  A    between atoms: O_15  and  C_16
REMARK   10  A    between atoms: C_19  and  C_20
REMARK   11  A    between atoms: C_20  and  C_22
REMARK   12  A    between atoms: N_30  and  C_31
REMARK   13  A    between atoms: N_30  and  C_32
REMARK                            x       y       z     vdW  Elec       q    Type
REMARK                         _______ _______ _______ _____ _____    ______ ____
ROOT
ATOM      1  N   UNL     1       2.262   7.360  18.739  0.00  0.00    +0.000 N 
ATOM      2  C   UNL     1       1.905   8.627  18.358  0.00  0.00    +0.000 C 
ATOM      3  O   UNL     1       2.183   9.112  17.259  0.00  0.00    +0.000 OA
ATOM      4  H   UNL     1       1.895   7.004  19.618  0.00  0.00    +0.000 HD
ENDROOT
BRANCH   1   5
ATOM      5  C   UNL     1       3.067   6.488  17.898  0.00  0.00    +0.000 C 
BRANCH   5   6
ATOM      6  C   UNL     1       3.611   5.200  18.609  0.00  0.00    +0.000 C 
BRANCH   6  12
ATOM      7  C   UNL     1       5.743   4.723  17.125  0.00  0.00    +0.000 A 
ATOM      8  C   UNL     1       7.150   4.686  17.032  0.00  0.00    +0.000 A 
ATOM      9  C   UNL     1       7.966   5.054  18.095  0.00  0.00    +0.000 A 
ATOM     10  C   UNL     1       7.394   5.440  19.292  0.00  0.00    +0.000 A 
ATOM     11  C   UNL     1       6.007   5.452  19.419  0.00  0.00    +0.000 A 
ATOM     12  C   UNL     1       5.143   5.122  18.344  0.00  0.00    +0.000 A 
BRANCH   7  14
ATOM     13  C   UNL     1       5.650   4.094  14.834  0.00  0.00    +0.000 C 
ATOM     14  O   UNL     1       4.947   4.350  16.064  0.00  0.00    +0.000 OA
ENDBRANCH   7  14
ENDBRANCH   6  12
BRANCH   6  15
ATOM     15  N   UNL     1       2.916   3.951  18.126  0.00  0.00    +0.000 NA
ATOM     16  C   UNL     1       3.186   2.780  18.970  0.00  0.00    +0.000 C 
ATOM     17  C   UNL     1       1.475   4.050  17.899  0.00  0.00    +0.000 C 
ENDBRANCH   6  15
ENDBRANCH   5   6
ENDBRANCH   1   5
BRANCH   2  18
ATOM     18  C   UNL     1       1.131   9.424  19.411  0.00  0.00    +0.000 C 
BRANCH  18  19
ATOM     19  O   UNL     1       0.696  10.677  18.887  0.00  0.00    +0.000 OA
BRANCH  19  20
ATOM     20  C   UNL     1      -0.631  10.776  18.580  0.00  0.00    +0.000 A 
ATOM     21  C   UNL     1      -1.338  11.701  19.347  0.00  0.00    +0.000 A 
ATOM     22  C   UNL     1      -2.699  11.915  19.123  0.00  0.00    +0.000 A 
ATOM     23  C   UNL     1      -3.363  11.207  18.114  0.00  0.00    +0.000 A 
ATOM     24  C   UNL     1      -2.649  10.301  17.327  0.00  0.00    +0.000 A 
ATOM     25  C   UNL     1      -1.286  10.080  17.563  0.00  0.00    +0.000 A 
BRANCH  23  26
ATOM     26  C   UNL     1      -4.802  11.518  17.881  0.00  0.00    +0.000 C 
ATOM     27  O   UNL     1      -5.158  11.865  16.762  0.00  0.00    +0.000 OA
BRANCH  26  28
ATOM     28  C   UNL     1      -5.817  11.427  18.961  0.00  0.00    +0.000 A 
ATOM     29  C   UNL     1      -6.036  12.558  19.757  0.00  0.00    +0.000 A 
ATOM     30  C   UNL     1      -6.976  12.523  20.785  0.00  0.00    +0.000 A 
ATOM     31  C   UNL     1      -7.692  11.351  21.029  0.00  0.00    +0.000 A 
ATOM     32  C   UNL     1      -7.458  10.212  20.258  0.00  0.00    +0.000 A 
ATOM     33  C   UNL     1      -6.511  10.245  19.229  0.00  0.00    +0.000 A 
ENDBRANCH  26  28
ENDBRANCH  23  26
ENDBRANCH  19  20
ENDBRANCH  18  19
ENDBRANCH   2  18
TORSDOF 10
ENDMDL
MODEL 7
REMARK VINA RESULT:      -7.5      3.709     11.149
REMARK  Name = 
REMARK  13 active torsions:
REMARK  status: ('A' for Active; 'I' for Inactive)
REMARK    1  A    between atoms: C_1  and  O_2
REMARK    2  A    between atoms: O_2  and  C_3
REMARK    3  A    between atoms: C_8  and  C_9
REMARK    4  A    between atoms: C_9  and  C_10
REMARK    5  A    between atoms: C_9  and  N_30
REMARK    6  A    between atoms: C_10  and  N_11
REMARK    7  A    between atoms: C_12  and  C_14
REMARK    8  A    between atoms: C_14  and  O_15
REMARK    9  A    between atoms: O_15  and  C_16
REMARK   10  A    between atoms: C_19  and  C_20
REMARK   11  A    between atoms: C_20  and  C_22
REMARK   12  A    between atoms: N_30  and  C_31
REMARK   13  A    between atoms: N_30  and  C_32
REMARK                            x       y       z     vdW  Elec       q    Type
REMARK                         _______ _______ _______ _____ _____    ______ ____
ROOT
ATOM      1  N   UNL     1      -3.084  12.288  19.092  0.00  0.00    +0.000 N 
ATOM      2  C   UNL     1      -2.198  11.470  18.441  0.00  0.00    +0.000 C 
ATOM      3  O   UNL     1      -2.512  10.393  17.932  0.00  0.00    +0.000 OA
ATOM      4  H   UNL     1      -2.762  13.207  19.383  0.00  0.00    +0.000 HD
ENDROOT
BRANCH   1   5
ATOM      5  C   UNL     1      -4.477  11.923  19.300  0.00  0.00    +0.000 C 
BRANCH   5   6
ATOM      6  C   UNL     1      -5.417  13.107  19.718  0.00  0.00    +0.000 C 
BRANCH   6  12
ATOM      7  C   UNL     1      -4.774  13.206  22.278  0.00  0.00    +0.000 A 
ATOM      8  C   UNL     1      -5.176  13.027  23.617  0.00  0.00    +0.000 A 
ATOM      9  C   UNL     1      -6.469  12.646  23.952  0.00  0.00    +0.000 A 
ATOM     10  C   UNL     1      -7.390  12.405  22.950  0.00  0.00    +0.000 A 
ATOM     11  C   UNL     1      -7.008  12.543  21.618  0.00  0.00    +0.000 A 
ATOM     12  C   UNL     1      -5.708  12.968  21.241  0.00  0.00    +0.000 A 
BRANCH   7  14
ATOM     13  C   UNL     1      -2.878  14.509  22.876  0.00  0.00    +0.000 C 
ATOM     14  O   UNL     1      -3.485  13.578  21.961  0.00  0.00    +0.000 OA
ENDBRANCH   7  14
ENDBRANCH   6  12
BRANCH   6  15
ATOM     15  N   UNL     1      -6.698  13.119  18.922  0.00  0.00    +0.000 NA
ATOM     16  C   UNL     1      -6.857  14.329  18.106  0.00  0.00    +0.000 C 
ATOM     17  C   UNL     1      -6.964  11.947  18.089  0.00  0.00    +0.000 C 
ENDBRANCH   6  15
ENDBRANCH   5   6
ENDBRANCH   1   5
BRANCH   2  18
ATOM     18  C   UNL     1      -0.758  11.986  18.396  0.00  0.00    +0.000 C 
BRANCH  18  19
ATOM     19  O   UNL     1      -0.034  11.588  19.558  0.00  0.00    +0.000 OA
BRANCH  19  20
ATOM     20  C   UNL     1       0.575  10.368  19.504  0.00  0.00    +0.000 A 
ATOM     21  C   UNL     1       1.071  10.019  18.248  0.00  0.00    +0.000 A 
ATOM     22  C   UNL     1       1.733   8.806  18.059  0.00  0.00    +0.000 A 
ATOM     23  C   UNL     1       1.915   7.932  19.137  0.00  0.00    +0.000 A 
ATOM     24  C   UNL     1       1.443   8.291  20.401  0.00  0.00    +0.000 A 
ATOM     25  C   UNL     1       0.768   9.505  20.584  0.00  0.00    +0.000 A 
BRANCH  23  26
ATOM     26  C   UNL     1       2.681   6.676  18.890  0.00  0.00    +0.000 C 
ATOM     27  O   UNL     1       3.823   6.756  18.456  0.00  0.00    +0.000 OA
BRANCH  26  28
ATOM     28  C   UNL     1       2.102   5.332  19.148  0.00  0.00    +0.000 A 
ATOM     29  C   UNL     1       1.833   4.509  18.047  0.00  0.00    +0.000 A 
ATOM     30  C   UNL     1       1.288   3.240  18.236  0.00  0.00    +0.000 A 
ATOM     31  C   UNL     1       0.999   2.795  19.525  0.00  0.00    +0.000 A 
ATOM     32  C   UNL     1       1.238   3.622  20.623  0.00  0.00    +0.000 A 
ATOM     33  C   UNL     1       1.780   4.898  20.435  0.00  0.00    +0.000 A 
ENDBRANCH  26  28
ENDBRANCH  23  26
ENDBRANCH  19  20
ENDBRANCH  18  19
ENDBRANCH   2  18
TORSDOF 10
ENDMDL
MODEL 8
REMARK VINA RESULT:      -7.5      1.622      2.108
REMARK  Name = 
REMARK  13 active torsions:
REMARK  status: ('A' for Active; 'I' for Inactive)
REMARK    1  A    between atoms: C_1  and  O_2
REMARK    2  A    between atoms: O_2  and  C_3
REMARK    3  A    between atoms: C_8  and  C_9
REMARK    4  A    between atoms: C_9  and  C_10
REMARK    5  A    between atoms: C_9  and  N_30
REMARK    6  A    between atoms: C_10  and  N_11
REMARK    7  A    between atoms: C_12  and  C_14
REMARK    8  A    between atoms: C_14  and  O_15
REMARK    9  A    between atoms: O_15  and  C_16
REMARK   10  A    between atoms: C_19  and  C_20
REMARK   11  A    between atoms: C_20  and  C_22
REMARK   12  A    between atoms: N_30  and  C_31
REMARK   13  A    between atoms: N_30  and  C_32
REMARK                            x       y       z     vdW  Elec       q    Type
REMARK                         _______ _______ _______ _____ _____    ______ ____
ROOT
ATOM      1  N   UNL     1       2.592   6.672  19.097  0.00  0.00    +0.000 N 
ATOM      2  C   UNL     1       1.842   6.631  20.243  0.00  0.00    +0.000 C 
ATOM      3  O   UNL     1       1.328   5.603  20.685  0.00  0.00    +0.000 OA
ATOM      4  H   UNL     1       3.070   7.540  18.868  0.00  0.00    +0.000 HD
ENDROOT
BRANCH   1   5
ATOM      5  C   UNL     1       2.796   5.504  18.254  0.00  0.00    +0.000 C 
BRANCH   5   6
ATOM      6  C   UNL     1       3.864   4.484  18.783  0.00  0.00    +0.000 C 
BRANCH   6  12
ATOM      7  C   UNL     1       6.392   4.747  18.068  0.00  0.00    +0.000 A 
ATOM      8  C   UNL     1       7.353   4.696  17.037  0.00  0.00    +0.000 A 
ATOM      9  C   UNL     1       7.017   4.345  15.736  0.00  0.00    +0.000 A 
ATOM     10  C   UNL     1       5.700   4.064  15.424  0.00  0.00    +0.000 A 
ATOM     11  C   UNL     1       4.727   4.140  16.418  0.00  0.00    +0.000 A 
ATOM     12  C   UNL     1       5.040   4.456  17.764  0.00  0.00    +0.000 A 
BRANCH   7  14
ATOM     13  C   UNL     1       8.030   5.730  19.484  0.00  0.00    +0.000 C 
ATOM     14  O   UNL     1       6.741   5.103  19.353  0.00  0.00    +0.000 OA
ENDBRANCH   7  14
ENDBRANCH   6  12
BRANCH   6  15
ATOM     15  N   UNL     1       3.282   3.105  18.973  0.00  0.00    +0.000 NA
ATOM     16  C   UNL     1       3.452   2.592  20.338  0.00  0.00    +0.000 C 
ATOM     17  C   UNL     1       1.889   2.919  18.566  0.00  0.00    +0.000 C 
ENDBRANCH   6  15
ENDBRANCH   5   6
ENDBRANCH   1   5
BRANCH   2  18
ATOM     18  C   UNL     1       1.670   7.979  20.950  0.00  0.00    +0.000 C 
BRANCH  18  19
ATOM     19  O   UNL     1       1.018   8.922  20.102  0.00  0.00    +0.000 OA
BRANCH  19  20
ATOM     20  C   UNL     1       0.214   9.836  20.720  0.00  0.00    +0.000 A 
ATOM     21  C   UNL     1      -0.501  10.662  19.853  0.00  0.00    +0.000 A 
ATOM     22  C   UNL     1      -1.375  11.628  20.354  0.00  0.00    +0.000 A 
ATOM     23  C   UNL     1      -1.549  11.766  21.736  0.00  0.00    +0.000 A 
ATOM     24  C   UNL     1      -0.854  10.922  22.605  0.00  0.00    +0.000 A 
ATOM     25  C   UNL     1       0.031   9.962  22.098  0.00  0.00    +0.000 A 
BRANCH  23  26
ATOM     26  C   UNL     1      -2.537  12.775  22.213  0.00  0.00    +0.000 C 
ATOM     27  O   UNL     1      -3.640  12.819  21.682  0.00  0.00    +0.000 OA
BRANCH  26  28
ATOM     28  C   UNL     1      -2.228  13.732  23.306  0.00  0.00    +0.000 A 
ATOM     29  C   UNL     1      -3.135  13.835  24.368  0.00  0.00    +0.000 A 
ATOM     30  C   UNL     1      -2.892  14.721  25.416  0.00  0.00    +0.000 A 
ATOM     31  C   UNL     1      -1.746  15.516  25.400  0.00  0.00    +0.000 A 
ATOM     32  C   UNL     1      -0.854  15.438  24.331  0.00  0.00    +0.000 A 
ATOM     33  C   UNL     1      -1.100  14.553  23.275  0.00  0.00    +0.000 A 
ENDBRANCH  26  28
ENDBRANCH  23  26
ENDBRANCH  19  20
ENDBRANCH  18  19
ENDBRANCH   2  18
TORSDOF 10
ENDMDL
MODEL 9
REMARK VINA RESULT:      -7.5      1.518      2.063
REMARK  Name = 
REMARK  13 active torsions:
REMARK  status: ('A' for Active; 'I' for Inactive)
REMARK    1  A    between atoms: C_1  and  O_2
REMARK    2  A    between atoms: O_2  and  C_3
REMARK    3  A    between atoms: C_8  and  C_9
REMARK    4  A    between atoms: C_9  and  C_10
REMARK    5  A    between atoms: C_9  and  N_30
REMARK    6  A    between atoms: C_10  and  N_11
REMARK    7  A    between atoms: C_12  and  C_14
REMARK    8  A    between atoms: C_14  and  O_15
REMARK    9  A    between atoms: O_15  and  C_16
REMARK   10  A    between atoms: C_19  and  C_20
REMARK   11  A    between atoms: C_20  and  C_22
REMARK   12  A    between atoms: N_30  and  C_31
REMARK   13  A    between atoms: N_30  and  C_32
REMARK                            x       y       z     vdW  Elec       q    Type
REMARK                         _______ _______ _______ _____ _____    ______ ____
ROOT
ATOM      1  N   UNL     1       3.826   6.284  18.567  0.00  0.00    +0.000 N 
ATOM      2  C   UNL     1       2.841   7.202  18.820  0.00  0.00    +0.000 C 
ATOM      3  O   UNL     1       2.114   7.165  19.815  0.00  0.00    +0.000 OA
ATOM      4  H   UNL     1       4.449   6.454  17.783  0.00  0.00    +0.000 HD
ENDROOT
BRANCH   1   5
ATOM      5  C   UNL     1       4.061   5.133  19.425  0.00  0.00    +0.000 C 
BRANCH   5   6
ATOM      6  C   UNL     1       4.439   3.810  18.672  0.00  0.00    +0.000 C 
BRANCH   6  12
ATOM      7  C   UNL     1       6.694   4.556  17.518  0.00  0.00    +0.000 A 
ATOM      8  C   UNL     1       7.371   4.895  16.328  0.00  0.00    +0.000 A 
ATOM      9  C   UNL     1       6.743   4.861  15.090  0.00  0.00    +0.000 A 
ATOM     10  C   UNL     1       5.407   4.516  15.012  0.00  0.00    +0.000 A 
ATOM     11  C   UNL     1       4.708   4.210  16.176  0.00  0.00    +0.000 A 
ATOM     12  C   UNL     1       5.327   4.194  17.452  0.00  0.00    +0.000 A 
BRANCH   7  14
ATOM     13  C   UNL     1       7.767   5.908  19.153  0.00  0.00    +0.000 C 
ATOM     14  O   UNL     1       7.330   4.600  18.740  0.00  0.00    +0.000 OA
ENDBRANCH   7  14
ENDBRANCH   6  12
BRANCH   6  15
ATOM     15  N   UNL     1       3.217   3.043  18.229  0.00  0.00    +0.000 NA
ATOM     16  C   UNL     1       3.345   1.594  18.426  0.00  0.00    +0.000 C 
ATOM     17  C   UNL     1       1.933   3.484  18.773  0.00  0.00    +0.000 C 
ENDBRANCH   6  15
ENDBRANCH   5   6
ENDBRANCH   1   5
BRANCH   2  18
ATOM     18  C   UNL     1       2.690   8.294  17.759  0.00  0.00    +0.000 C 
BRANCH  18  19
ATOM     19  O   UNL     1       1.330   8.706  17.638  0.00  0.00    +0.000 OA
BRANCH  19  20
ATOM     20  C   UNL     1       0.977   9.837  18.316  0.00  0.00    +0.000 A 
ATOM     21  C   UNL     1      -0.275   9.784  18.926  0.00  0.00    +0.000 A 
ATOM     22  C   UNL     1      -0.749  10.867  19.667  0.00  0.00    +0.000 A 
ATOM     23  C   UNL     1       0.038  12.015  19.813  0.00  0.00    +0.000 A 
ATOM     24  C   UNL     1       1.304  12.060  19.225  0.00  0.00    +0.000 A 
ATOM     25  C   UNL     1       1.772  10.975  18.471  0.00  0.00    +0.000 A 
BRANCH  23  26
ATOM     26  C   UNL     1      -0.494  13.119  20.662  0.00  0.00    +0.000 C 
ATOM     27  O   UNL     1       0.154  14.153  20.762  0.00  0.00    +0.000 OA
BRANCH  26  28
ATOM     28  C   UNL     1      -1.779  13.003  21.398  0.00  0.00    +0.000 A 
ATOM     29  C   UNL     1      -1.754  12.453  22.686  0.00  0.00    +0.000 A 
ATOM     30  C   UNL     1      -2.933  12.320  23.416  0.00  0.00    +0.000 A 
ATOM     31  C   UNL     1      -4.145  12.725  22.856  0.00  0.00    +0.000 A 
ATOM     32  C   UNL     1      -4.179  13.247  21.563  0.00  0.00    +0.000 A 
ATOM     33  C   UNL     1      -2.997  13.376  20.827  0.00  0.00    +0.000 A 
ENDBRANCH  26  28
ENDBRANCH  23  26
ENDBRANCH  19  20
ENDBRANCH  18  19
ENDBRANCH   2  18
TORSDOF 10
ENDMDL
