MODEL 1
REMARK VINA RESULT:      -8.9      0.000      0.000
REMARK  Name = 
REMARK  8 active torsions:
REMARK  status: ('A' for Active; 'I' for Inactive)
REMARK    1  A    between atoms: C_1  and  S_2
REMARK    2  A    between atoms: S_2  and  C_5
REMARK    3  A    between atoms: C_8  and  O_9
REMARK    4  A    between atoms: O_9  and  C_10
REMARK    5  A    between atoms: C_10  and  C_11
REMARK    6  A    between atoms: C_11  and  C_12
REMARK    7  A    between atoms: C_16  and  C_17
REMARK    8  A    between atoms: C_23  and  C_24
REMARK                            x       y       z     vdW  Elec       q    Type
REMARK                         _______ _______ _______ _____ _____    ______ ____
ROOT
ATOM      1  C   UNL     1       5.823   5.309  18.603  0.00  0.00    +0.000 A 
ATOM      2  C   UNL     1       5.249   4.049  18.707  0.00  0.00    +0.000 A 
ATOM      3  C   UNL     1       3.889   3.909  18.521  0.00  0.00    +0.000 A 
ATOM      4  C   UNL     1       3.046   5.003  18.208  0.00  0.00    +0.000 A 
ATOM      5  C   UNL     1       3.641   6.276  18.075  0.00  0.00    +0.000 A 
ATOM      6  C   UNL     1       5.035   6.418  18.288  0.00  0.00    +0.000 A 
ENDROOT
BRANCH   5   7
ATOM      7  C   UNL     1       2.919   7.560  17.841  0.00  0.00    +0.000 C 
ATOM      8  O   UNL     1       2.888   7.985  16.685  0.00  0.00    +0.000 OA
ATOM      9  N   UNL     1       2.232   8.198  18.853  0.00  0.00    +0.000 N 
ATOM     10  C   UNL     1       1.471   9.416  18.556  0.00  0.00    +0.000 C 
ATOM     11  C   UNL     1       0.814   9.752  19.852  0.00  0.00    +0.000 A 
ATOM     12  C   UNL     1       0.081  10.864  20.225  0.00  0.00    +0.000 A 
ATOM     13  C   UNL     1      -0.408  10.917  21.538  0.00  0.00    +0.000 A 
ATOM     14  C   UNL     1      -0.143   9.837  22.388  0.00  0.00    +0.000 A 
ATOM     15  N   UNL     1       0.564   8.734  22.036  0.00  0.00    +0.000 NA
ATOM     16  C   UNL     1       1.024   8.732  20.772  0.00  0.00    +0.000 A 
ATOM     17  C   UNL     1       1.857   7.634  20.151  0.00  0.00    +0.000 C 
BRANCH  13  18
ATOM     18  C   UNL     1      -1.188  12.084  22.062  0.00  0.00    +0.000 C 
ATOM     19  F   UNL     1      -2.501  12.066  21.701  0.00  0.00    +0.000 F 
ATOM     20  F   UNL     1      -1.176  12.155  23.421  0.00  0.00    +0.000 F 
ATOM     21  F   UNL     1      -0.700  13.277  21.622  0.00  0.00    +0.000 F 
ENDBRANCH  13  18
ENDBRANCH   5   7
BRANCH   1  23
ATOM     22  C   UNL     1       7.944   7.088  18.260  0.00  0.00    +0.000 C 
ATOM     23  S   UNL     1       7.584   5.446  18.821  0.00  0.00    +0.000 S 
ATOM     24  O   UNL     1       8.204   4.499  17.917  0.00  0.00    +0.000 OA
ATOM     25  O   UNL     1       7.839   5.390  20.246  0.00  0.00    +0.000 OA
ENDBRANCH   1  23
BRANCH   4  26
ATOM     26  O   UNL     1       1.673   4.828  18.064  0.00  0.00    +0.000 OA
BRANCH  26  27
ATOM     27  C   UNL     1       1.182   3.718  18.836  0.00  0.00    +0.000 C 
BRANCH  27  28
ATOM     28  C   UNL     1       0.774   3.996  20.272  0.00  0.00    +0.000 C 
BRANCH  28  29
ATOM     29  C   UNL     1       1.600   3.088  21.175  0.00  0.00    +0.000 C 
ATOM     30  F   UNL     1       0.869   2.550  22.182  0.00  0.00    +0.000 F 
ATOM     31  F   UNL     1       2.127   2.056  20.479  0.00  0.00    +0.000 F 
ATOM     32  F   UNL     1       2.619   3.762  21.749  0.00  0.00    +0.000 F 
ENDBRANCH  28  29
ENDBRANCH  27  28
ENDBRANCH  26  27
ENDBRANCH   4  26
TORSDOF 7
ENDMDL
MODEL 2
REMARK VINA RESULT:      -8.6      0.929      1.163
REMARK  Name = 
REMARK  8 active torsions:
REMARK  status: ('A' for Active; 'I' for Inactive)
REMARK    1  A    between atoms: C_1  and  S_2
REMARK    2  A    between atoms: S_2  and  C_5
REMARK    3  A    between atoms: C_8  and  O_9
REMARK    4  A    between atoms: O_9  and  C_10
REMARK    5  A    between atoms: C_10  and  C_11
REMARK    6  A    between atoms: C_11  and  C_12
REMARK    7  A    between atoms: C_16  and  C_17
REMARK    8  A    between atoms: C_23  and  C_24
REMARK                            x       y       z     vdW  Elec       q    Type
REMARK                         _______ _______ _______ _____ _____    ______ ____
ROOT
ATOM      1  C   UNL     1       5.675   6.207  17.982  0.00  0.00    +0.000 A 
ATOM      2  C   UNL     1       5.310   4.921  18.359  0.00  0.00    +0.000 A 
ATOM      3  C   UNL     1       3.983   4.645  18.616  0.00  0.00    +0.000 A 
ATOM      4  C   UNL     1       2.964   5.620  18.495  0.00  0.00    +0.000 A 
ATOM      5  C   UNL     1       3.338   6.917  18.083  0.00  0.00    +0.000 A 
ATOM      6  C   UNL     1       4.706   7.201  17.840  0.00  0.00    +0.000 A 
ENDROOT
BRANCH   5   7
ATOM      7  C   UNL     1       2.435   8.100  17.985  0.00  0.00    +0.000 C 
ATOM      8  O   UNL     1       2.209   8.541  16.856  0.00  0.00    +0.000 OA
ATOM      9  N   UNL     1       1.802   8.620  19.093  0.00  0.00    +0.000 N 
ATOM     10  C   UNL     1       0.861   9.733  18.934  0.00  0.00    +0.000 C 
ATOM     11  C   UNL     1       0.329   9.953  20.310  0.00  0.00    +0.000 A 
ATOM     12  C   UNL     1      -0.488  10.950  20.809  0.00  0.00    +0.000 A 
ATOM     13  C   UNL     1      -0.816  10.910  22.171  0.00  0.00    +0.000 A 
ATOM     14  C   UNL     1      -0.314   9.857  22.943  0.00  0.00    +0.000 A 
ATOM     15  N   UNL     1       0.480   8.864  22.469  0.00  0.00    +0.000 NA
ATOM     16  C   UNL     1       0.778   8.949  21.160  0.00  0.00    +0.000 A 
ATOM     17  C   UNL     1       1.663   7.984  20.404  0.00  0.00    +0.000 C 
BRANCH  13  18
ATOM     18  C   UNL     1      -1.670  11.954  22.827  0.00  0.00    +0.000 C 
ATOM     19  F   UNL     1      -2.444  12.652  21.950  0.00  0.00    +0.000 F 
ATOM     20  F   UNL     1      -2.526  11.428  23.745  0.00  0.00    +0.000 F 
ATOM     21  F   UNL     1      -0.933  12.885  23.494  0.00  0.00    +0.000 F 
ENDBRANCH  13  18
ENDBRANCH   5   7
BRANCH   1  23
ATOM     22  C   UNL     1       7.493   8.287  17.598  0.00  0.00    +0.000 C 
ATOM     23  S   UNL     1       7.392   6.519  17.629  0.00  0.00    +0.000 S 
ATOM     24  O   UNL     1       7.656   6.014  16.299  0.00  0.00    +0.000 OA
ATOM     25  O   UNL     1       8.150   6.044  18.770  0.00  0.00    +0.000 OA
ENDBRANCH   1  23
BRANCH   4  26
ATOM     26  O   UNL     1       1.641   5.312  18.799  0.00  0.00    +0.000 OA
BRANCH  26  27
ATOM     27  C   UNL     1       1.422   3.893  18.903  0.00  0.00    +0.000 C 
BRANCH  27  28
ATOM     28  C   UNL     1       0.689   3.391  20.134  0.00  0.00    +0.000 C 
BRANCH  28  29
ATOM     29  C   UNL     1       1.731   3.097  21.208  0.00  0.00    +0.000 C 
ATOM     30  F   UNL     1       2.293   4.223  21.711  0.00  0.00    +0.000 F 
ATOM     31  F   UNL     1       1.184   2.434  22.250  0.00  0.00    +0.000 F 
ATOM     32  F   UNL     1       2.738   2.341  20.721  0.00  0.00    +0.000 F 
ENDBRANCH  28  29
ENDBRANCH  27  28
ENDBRANCH  26  27
ENDBRANCH   4  26
TORSDOF 7
ENDMDL
MODEL 3
REMARK VINA RESULT:      -8.4      1.327      2.058
REMARK  Name = 
REMARK  8 active torsions:
REMARK  status: ('A' for Active; 'I' for Inactive)
REMARK    1  A    between atoms: C_1  and  S_2
REMARK    2  A    between atoms: S_2  and  C_5
REMARK    3  A    between atoms: C_8  and  O_9
REMARK    4  A    between atoms: O_9  and  C_10
REMARK    5  A    between atoms: C_10  and  C_11
REMARK    6  A    between atoms: C_11  and  C_12
REMARK    7  A    between atoms: C_16  and  C_17
REMARK    8  A    between atoms: C_23  and  C_24
REMARK                            x       y       z     vdW  Elec       q    Type
REMARK                         _______ _______ _______ _____ _____    ______ ____
ROOT
ATOM      1  C   UNL     1       5.698   5.199  18.429  0.00  0.00    +0.000 A 
ATOM      2  C   UNL     1       5.278   4.476  17.321  0.00  0.00    +0.000 A 
ATOM      3  C   UNL     1       3.926   4.326  17.087  0.00  0.00    +0.000 A 
ATOM      4  C   UNL     1       2.939   4.897  17.925  0.00  0.00    +0.000 A 
ATOM      5  C   UNL     1       3.374   5.655  19.033  0.00  0.00    +0.000 A 
ATOM      6  C   UNL     1       4.763   5.789  19.282  0.00  0.00    +0.000 A 
ENDROOT
BRANCH   5   7
ATOM      7  C   UNL     1       2.499   6.258  20.080  0.00  0.00    +0.000 C 
ATOM      8  O   UNL     1       2.457   5.689  21.173  0.00  0.00    +0.000 OA
ATOM      9  N   UNL     1       1.839   7.450  19.872  0.00  0.00    +0.000 N 
ATOM     10  C   UNL     1       1.054   8.043  20.959  0.00  0.00    +0.000 C 
ATOM     11  C   UNL     1       0.576   9.337  20.392  0.00  0.00    +0.000 A 
ATOM     12  C   UNL     1      -0.315  10.266  20.898  0.00  0.00    +0.000 A 
ATOM     13  C   UNL     1      -0.592  11.400  20.122  0.00  0.00    +0.000 A 
ATOM     14  C   UNL     1       0.060  11.537  18.892  0.00  0.00    +0.000 A 
ATOM     15  N   UNL     1       0.945  10.642  18.385  0.00  0.00    +0.000 NA
ATOM     16  C   UNL     1       1.172   9.565  19.157  0.00  0.00    +0.000 A 
ATOM     17  C   UNL     1       2.090   8.418  18.802  0.00  0.00    +0.000 C 
BRANCH  13  18
ATOM     18  C   UNL     1      -1.563  12.457  20.556  0.00  0.00    +0.000 C 
ATOM     19  F   UNL     1      -1.144  13.724  20.284  0.00  0.00    +0.000 F 
ATOM     20  F   UNL     1      -2.778  12.329  19.958  0.00  0.00    +0.000 F 
ATOM     21  F   UNL     1      -1.802  12.425  21.896  0.00  0.00    +0.000 F 
ENDBRANCH  13  18
ENDBRANCH   5   7
BRANCH   1  23
ATOM     22  C   UNL     1       7.782   7.010  18.033  0.00  0.00    +0.000 C 
ATOM     23  S   UNL     1       7.449   5.396  18.683  0.00  0.00    +0.000 S 
ATOM     24  O   UNL     1       8.116   4.414  17.855  0.00  0.00    +0.000 OA
ATOM     25  O   UNL     1       7.666   5.434  20.116  0.00  0.00    +0.000 OA
ENDBRANCH   1  23
BRANCH   4  26
ATOM     26  O   UNL     1       1.585   4.692  17.675  0.00  0.00    +0.000 OA
BRANCH  26  27
ATOM     27  C   UNL     1       1.135   3.405  18.136  0.00  0.00    +0.000 C 
BRANCH  27  28
ATOM     28  C   UNL     1       0.757   3.285  19.601  0.00  0.00    +0.000 C 
BRANCH  28  29
ATOM     29  C   UNL     1       1.736   2.317  20.257  0.00  0.00    +0.000 C 
ATOM     30  F   UNL     1       1.779   1.116  19.630  0.00  0.00    +0.000 F 
ATOM     31  F   UNL     1       2.993   2.811  20.243  0.00  0.00    +0.000 F 
ATOM     32  F   UNL     1       1.401   2.076  21.542  0.00  0.00    +0.000 F 
ENDBRANCH  28  29
ENDBRANCH  27  28
ENDBRANCH  26  27
ENDBRANCH   4  26
TORSDOF 7
ENDMDL
MODEL 4
REMARK VINA RESULT:      -8.3      0.901      1.364
REMARK  Name = 
REMARK  8 active torsions:
REMARK  status: ('A' for Active; 'I' for Inactive)
REMARK    1  A    between atoms: C_1  and  S_2
REMARK    2  A    between atoms: S_2  and  C_5
REMARK    3  A    between atoms: C_8  and  O_9
REMARK    4  A    between atoms: O_9  and  C_10
REMARK    5  A    between atoms: C_10  and  C_11
REMARK    6  A    between atoms: C_11  and  C_12
REMARK    7  A    between atoms: C_16  and  C_17
REMARK    8  A    between atoms: C_23  and  C_24
REMARK                            x       y       z     vdW  Elec       q    Type
REMARK                         _______ _______ _______ _____ _____    ______ ____
ROOT
ATOM      1  C   UNL     1       5.650   5.488  18.787  0.00  0.00    +0.000 A 
ATOM      2  C   UNL     1       5.139   4.206  18.946  0.00  0.00    +0.000 A 
ATOM      3  C   UNL     1       3.777   4.007  18.853  0.00  0.00    +0.000 A 
ATOM      4  C   UNL     1       2.869   5.058  18.582  0.00  0.00    +0.000 A 
ATOM      5  C   UNL     1       3.398   6.353  18.393  0.00  0.00    +0.000 A 
ATOM      6  C   UNL     1       4.796   6.557  18.510  0.00  0.00    +0.000 A 
ENDROOT
BRANCH   5   7
ATOM      7  C   UNL     1       2.607   7.602  18.191  0.00  0.00    +0.000 C 
ATOM      8  O   UNL     1       2.488   8.009  17.033  0.00  0.00    +0.000 OA
ATOM      9  N   UNL     1       1.956   8.222  19.235  0.00  0.00    +0.000 N 
ATOM     10  C   UNL     1       1.126   9.402  18.973  0.00  0.00    +0.000 C 
ATOM     11  C   UNL     1       0.534   9.727  20.303  0.00  0.00    +0.000 A 
ATOM     12  C   UNL     1      -0.222  10.811  20.709  0.00  0.00    +0.000 A 
ATOM     13  C   UNL     1      -0.632  10.860  22.049  0.00  0.00    +0.000 A 
ATOM     14  C   UNL     1      -0.269   9.804  22.892  0.00  0.00    +0.000 A 
ATOM     15  N   UNL     1       0.463   8.728  22.509  0.00  0.00    +0.000 NA
ATOM     16  C   UNL     1       0.844   8.729  21.219  0.00  0.00    +0.000 A 
ATOM     17  C   UNL     1       1.686   7.660  20.560  0.00  0.00    +0.000 C 
BRANCH  13  18
ATOM     18  C   UNL     1      -1.430  11.999  22.608  0.00  0.00    +0.000 C 
ATOM     19  F   UNL     1      -0.665  12.971  23.176  0.00  0.00    +0.000 F 
ATOM     20  F   UNL     1      -2.184  12.623  21.662  0.00  0.00    +0.000 F 
ATOM     21  F   UNL     1      -2.302  11.600  23.575  0.00  0.00    +0.000 F 
ENDBRANCH  13  18
ENDBRANCH   5   7
BRANCH   1  23
ATOM     22  C   UNL     1       8.043   4.465  17.784  0.00  0.00    +0.000 C 
ATOM     23  S   UNL     1       7.414   5.702  18.885  0.00  0.00    +0.000 S 
ATOM     24  O   UNL     1       7.813   5.369  20.236  0.00  0.00    +0.000 OA
ATOM     25  O   UNL     1       7.714   7.003  18.320  0.00  0.00    +0.000 OA
ENDBRANCH   1  23
BRANCH   4  26
ATOM     26  O   UNL     1       1.498   4.823  18.532  0.00  0.00    +0.000 OA
BRANCH  26  27
ATOM     27  C   UNL     1       0.966   4.433  19.810  0.00  0.00    +0.000 C 
BRANCH  27  28
ATOM     28  C   UNL     1       1.091   2.970  20.198  0.00  0.00    +0.000 C 
BRANCH  28  29
ATOM     29  C   UNL     1       1.802   2.905  21.545  0.00  0.00    +0.000 C 
ATOM     30  F   UNL     1       2.208   4.124  21.980  0.00  0.00    +0.000 F 
ATOM     31  F   UNL     1       0.993   2.399  22.501  0.00  0.00    +0.000 F 
ATOM     32  F   UNL     1       2.903   2.126  21.481  0.00  0.00    +0.000 F 
ENDBRANCH  28  29
ENDBRANCH  27  28
ENDBRANCH  26  27
ENDBRANCH   4  26
TORSDOF 7
ENDMDL
MODEL 5
REMARK VINA RESULT:      -8.3      1.531      2.056
REMARK  Name = 
REMARK  8 active torsions:
REMARK  status: ('A' for Active; 'I' for Inactive)
REMARK    1  A    between atoms: C_1  and  S_2
REMARK    2  A    between atoms: S_2  and  C_5
REMARK    3  A    between atoms: C_8  and  O_9
REMARK    4  A    between atoms: O_9  and  C_10
REMARK    5  A    between atoms: C_10  and  C_11
REMARK    6  A    between atoms: C_11  and  C_12
REMARK    7  A    between atoms: C_16  and  C_17
REMARK    8  A    between atoms: C_23  and  C_24
REMARK                            x       y       z     vdW  Elec       q    Type
REMARK                         _______ _______ _______ _____ _____    ______ ____
ROOT
ATOM      1  C   UNL     1       5.577   5.054  17.448  0.00  0.00    +0.000 A 
ATOM      2  C   UNL     1       4.986   4.095  16.637  0.00  0.00    +0.000 A 
ATOM      3  C   UNL     1       3.654   3.783  16.821  0.00  0.00    +0.000 A 
ATOM      4  C   UNL     1       2.851   4.416  17.800  0.00  0.00    +0.000 A 
ATOM      5  C   UNL     1       3.452   5.410  18.602  0.00  0.00    +0.000 A 
ATOM      6  C   UNL     1       4.825   5.713  18.423  0.00  0.00    +0.000 A 
ENDROOT
BRANCH   5   7
ATOM      7  C   UNL     1       2.806   6.125  19.741  0.00  0.00    +0.000 C 
ATOM      8  O   UNL     1       2.984   5.660  20.869  0.00  0.00    +0.000 OA
ATOM      9  N   UNL     1       2.121   7.306  19.558  0.00  0.00    +0.000 N 
ATOM     10  C   UNL     1       1.571   8.013  20.720  0.00  0.00    +0.000 C 
ATOM     11  C   UNL     1       0.992   9.259  20.140  0.00  0.00    +0.000 A 
ATOM     12  C   UNL     1       0.223  10.248  20.725  0.00  0.00    +0.000 A 
ATOM     13  C   UNL     1      -0.202  11.313  19.917  0.00  0.00    +0.000 A 
ATOM     14  C   UNL     1       0.189  11.323  18.574  0.00  0.00    +0.000 A 
ATOM     15  N   UNL     1       0.952  10.367  17.987  0.00  0.00    +0.000 NA
ATOM     16  C   UNL     1       1.327   9.360  18.795  0.00  0.00    +0.000 A 
ATOM     17  C   UNL     1       2.154   8.167  18.374  0.00  0.00    +0.000 C 
BRANCH  13  18
ATOM     18  C   UNL     1      -1.064  12.425  20.435  0.00  0.00    +0.000 C 
ATOM     19  F   UNL     1      -2.332  12.033  20.739  0.00  0.00    +0.000 F 
ATOM     20  F   UNL     1      -0.565  12.988  21.570  0.00  0.00    +0.000 F 
ATOM     21  F   UNL     1      -1.194  13.443  19.540  0.00  0.00    +0.000 F 
ENDBRANCH  13  18
ENDBRANCH   5   7
BRANCH   1  23
ATOM     22  C   UNL     1       7.730   6.420  18.578  0.00  0.00    +0.000 C 
ATOM     23  S   UNL     1       7.288   5.452  17.162  0.00  0.00    +0.000 S 
ATOM     24  O   UNL     1       7.342   6.295  15.986  0.00  0.00    +0.000 OA
ATOM     25  O   UNL     1       8.026   4.206  17.219  0.00  0.00    +0.000 OA
ENDBRANCH   1  23
BRANCH   4  26
ATOM     26  O   UNL     1       1.522   4.047  17.980  0.00  0.00    +0.000 OA
BRANCH  26  27
ATOM     27  C   UNL     1       1.389   2.873  18.801  0.00  0.00    +0.000 C 
BRANCH  27  28
ATOM     28  C   UNL     1       0.771   3.052  20.176  0.00  0.00    +0.000 C 
BRANCH  28  29
ATOM     29  C   UNL     1       1.833   2.701  21.213  0.00  0.00    +0.000 C 
ATOM     30  F   UNL     1       1.513   1.599  21.933  0.00  0.00    +0.000 F 
ATOM     31  F   UNL     1       3.024   2.452  20.626  0.00  0.00    +0.000 F 
ATOM     32  F   UNL     1       2.010   3.708  22.094  0.00  0.00    +0.000 F 
ENDBRANCH  28  29
ENDBRANCH  27  28
ENDBRANCH  26  27
ENDBRANCH   4  26
TORSDOF 7
ENDMDL
MODEL 6
REMARK VINA RESULT:      -8.1      1.752      2.360
REMARK  Name = 
REMARK  8 active torsions:
REMARK  status: ('A' for Active; 'I' for Inactive)
REMARK    1  A    between atoms: C_1  and  S_2
REMARK    2  A    between atoms: S_2  and  C_5
REMARK    3  A    between atoms: C_8  and  O_9
REMARK    4  A    between atoms: O_9  and  C_10
REMARK    5  A    between atoms: C_10  and  C_11
REMARK    6  A    between atoms: C_11  and  C_12
REMARK    7  A    between atoms: C_16  and  C_17
REMARK    8  A    between atoms: C_23  and  C_24
REMARK                            x       y       z     vdW  Elec       q    Type
REMARK                         _______ _______ _______ _____ _____    ______ ____
ROOT
ATOM      1  C   UNL     1       5.331   4.954  16.927  0.00  0.00    +0.000 A 
ATOM      2  C   UNL     1       4.632   3.952  16.267  0.00  0.00    +0.000 A 
ATOM      3  C   UNL     1       3.344   3.655  16.664  0.00  0.00    +0.000 A 
ATOM      4  C   UNL     1       2.691   4.345  17.713  0.00  0.00    +0.000 A 
ATOM      5  C   UNL     1       3.398   5.381  18.360  0.00  0.00    +0.000 A 
ATOM      6  C   UNL     1       4.727   5.669  17.963  0.00  0.00    +0.000 A 
ENDROOT
BRANCH   5   7
ATOM      7  C   UNL     1       2.923   6.161  19.540  0.00  0.00    +0.000 C 
ATOM      8  O   UNL     1       3.326   5.802  20.648  0.00  0.00    +0.000 OA
ATOM      9  N   UNL     1       2.147   7.291  19.395  0.00  0.00    +0.000 N 
ATOM     10  C   UNL     1       1.772   8.069  20.580  0.00  0.00    +0.000 C 
ATOM     11  C   UNL     1       1.026   9.234  20.023  0.00  0.00    +0.000 A 
ATOM     12  C   UNL     1       0.315  10.234  20.660  0.00  0.00    +0.000 A 
ATOM     13  C   UNL     1      -0.309  11.205  19.865  0.00  0.00    +0.000 A 
ATOM     14  C   UNL     1      -0.163  11.118  18.476  0.00  0.00    +0.000 A 
ATOM     15  N   UNL     1       0.539  10.151  17.834  0.00  0.00    +0.000 NA
ATOM     16  C   UNL     1       1.111   9.234  18.636  0.00  0.00    +0.000 A 
ATOM     17  C   UNL     1       1.918   8.047  18.163  0.00  0.00    +0.000 C 
BRANCH  13  18
ATOM     18  C   UNL     1      -1.129  12.318  20.445  0.00  0.00    +0.000 C 
ATOM     19  F   UNL     1      -2.091  11.891  21.309  0.00  0.00    +0.000 F 
ATOM     20  F   UNL     1      -0.377  13.216  21.138  0.00  0.00    +0.000 F 
ATOM     21  F   UNL     1      -1.781  13.037  19.490  0.00  0.00    +0.000 F 
ENDBRANCH  13  18
ENDBRANCH   5   7
BRANCH   1  23
ATOM     22  C   UNL     1       6.932   4.932  14.643  0.00  0.00    +0.000 C 
ATOM     23  S   UNL     1       6.979   5.330  16.369  0.00  0.00    +0.000 S 
ATOM     24  O   UNL     1       7.878   4.410  17.034  0.00  0.00    +0.000 OA
ATOM     25  O   UNL     1       7.152   6.763  16.497  0.00  0.00    +0.000 OA
ENDBRANCH   1  23
BRANCH   4  26
ATOM     26  O   UNL     1       1.404   3.990  18.108  0.00  0.00    +0.000 OA
BRANCH  26  27
ATOM     27  C   UNL     1       1.364   2.695  18.733  0.00  0.00    +0.000 C 
BRANCH  27  28
ATOM     28  C   UNL     1       2.213   2.495  19.975  0.00  0.00    +0.000 C 
BRANCH  28  29
ATOM     29  C   UNL     1       1.479   3.135  21.148  0.00  0.00    +0.000 C 
ATOM     30  F   UNL     1       2.322   3.719  22.035  0.00  0.00    +0.000 F 
ATOM     31  F   UNL     1       0.628   4.096  20.726  0.00  0.00    +0.000 F 
ATOM     32  F   UNL     1       0.761   2.220  21.835  0.00  0.00    +0.000 F 
ENDBRANCH  28  29
ENDBRANCH  27  28
ENDBRANCH  26  27
ENDBRANCH   4  26
TORSDOF 7
ENDMDL
MODEL 7
REMARK VINA RESULT:      -8.1      0.862      1.269
REMARK  Name = 
REMARK  8 active torsions:
REMARK  status: ('A' for Active; 'I' for Inactive)
REMARK    1  A    between atoms: C_1  and  S_2
REMARK    2  A    between atoms: S_2  and  C_5
REMARK    3  A    between atoms: C_8  and  O_9
REMARK    4  A    between atoms: O_9  and  C_10
REMARK    5  A    between atoms: C_10  and  C_11
REMARK    6  A    between atoms: C_11  and  C_12
REMARK    7  A    between atoms: C_16  and  C_17
REMARK    8  A    between atoms: C_23  and  C_24
REMARK                            x       y       z     vdW  Elec       q    Type
REMARK                         _______ _______ _______ _____ _____    ______ ____
ROOT
ATOM      1  C   UNL     1       5.763   5.502  18.221  0.00  0.00    +0.000 A 
ATOM      2  C   UNL     1       5.255   4.230  18.455  0.00  0.00    +0.000 A 
ATOM      3  C   UNL     1       3.888   4.050  18.510  0.00  0.00    +0.000 A 
ATOM      4  C   UNL     1       2.970   5.110  18.318  0.00  0.00    +0.000 A 
ATOM      5  C   UNL     1       3.493   6.394  18.052  0.00  0.00    +0.000 A 
ATOM      6  C   UNL     1       4.898   6.579  18.018  0.00  0.00    +0.000 A 
ENDROOT
BRANCH   5   7
ATOM      7  C   UNL     1       2.702   7.651  17.913  0.00  0.00    +0.000 C 
ATOM      8  O   UNL     1       2.562   8.103  16.775  0.00  0.00    +0.000 OA
ATOM      9  N   UNL     1       2.072   8.231  18.994  0.00  0.00    +0.000 N 
ATOM     10  C   UNL     1       1.240   9.422  18.793  0.00  0.00    +0.000 C 
ATOM     11  C   UNL     1       0.674   9.696  20.146  0.00  0.00    +0.000 A 
ATOM     12  C   UNL     1      -0.072  10.764  20.607  0.00  0.00    +0.000 A 
ATOM     13  C   UNL     1      -0.457  10.762  21.956  0.00  0.00    +0.000 A 
ATOM     14  C   UNL     1      -0.081   9.674  22.750  0.00  0.00    +0.000 A 
ATOM     15  N   UNL     1       0.642   8.612  22.312  0.00  0.00    +0.000 NA
ATOM     16  C   UNL     1       0.999   8.662  21.016  0.00  0.00    +0.000 A 
ATOM     17  C   UNL     1       1.825   7.619  20.300  0.00  0.00    +0.000 C 
BRANCH  13  18
ATOM     18  C   UNL     1      -1.241  11.881  22.573  0.00  0.00    +0.000 C 
ATOM     19  F   UNL     1      -1.858  11.534  23.736  0.00  0.00    +0.000 F 
ATOM     20  F   UNL     1      -0.469  12.962  22.867  0.00  0.00    +0.000 F 
ATOM     21  F   UNL     1      -2.228  12.339  21.753  0.00  0.00    +0.000 F 
ENDBRANCH  13  18
ENDBRANCH   5   7
BRANCH   1  23
ATOM     22  C   UNL     1       8.044   5.612  19.822  0.00  0.00    +0.000 C 
ATOM     23  S   UNL     1       7.530   5.691  18.128  0.00  0.00    +0.000 S 
ATOM     24  O   UNL     1       7.793   7.022  17.624  0.00  0.00    +0.000 OA
ATOM     25  O   UNL     1       8.045   4.521  17.445  0.00  0.00    +0.000 OA
ENDBRANCH   1  23
BRANCH   4  26
ATOM     26  O   UNL     1       1.599   4.895  18.418  0.00  0.00    +0.000 OA
BRANCH  26  27
ATOM     27  C   UNL     1       1.196   4.560  19.758  0.00  0.00    +0.000 C 
BRANCH  27  28
ATOM     28  C   UNL     1       1.222   3.092  20.145  0.00  0.00    +0.000 C 
BRANCH  28  29
ATOM     29  C   UNL     1       1.914   2.979  21.499  0.00  0.00    +0.000 C 
ATOM     30  F   UNL     1       3.032   2.214  21.451  0.00  0.00    +0.000 F 
ATOM     31  F   UNL     1       2.290   4.194  21.957  0.00  0.00    +0.000 F 
ATOM     32  F   UNL     1       1.099   2.425  22.422  0.00  0.00    +0.000 F 
ENDBRANCH  28  29
ENDBRANCH  27  28
ENDBRANCH  26  27
ENDBRANCH   4  26
TORSDOF 7
ENDMDL
MODEL 8
REMARK VINA RESULT:      -8.0      0.916      1.149
REMARK  Name = 
REMARK  8 active torsions:
REMARK  status: ('A' for Active; 'I' for Inactive)
REMARK    1  A    between atoms: C_1  and  S_2
REMARK    2  A    between atoms: S_2  and  C_5
REMARK    3  A    between atoms: C_8  and  O_9
REMARK    4  A    between atoms: O_9  and  C_10
REMARK    5  A    between atoms: C_10  and  C_11
REMARK    6  A    between atoms: C_11  and  C_12
REMARK    7  A    between atoms: C_16  and  C_17
REMARK    8  A    between atoms: C_23  and  C_24
REMARK                            x       y       z     vdW  Elec       q    Type
REMARK                         _______ _______ _______ _____ _____    ______ ____
ROOT
ATOM      1  C   UNL     1       5.790   5.488  17.925  0.00  0.00    +0.000 A 
ATOM      2  C   UNL     1       5.270   4.221  18.154  0.00  0.00    +0.000 A 
ATOM      3  C   UNL     1       3.904   4.063  18.266  0.00  0.00    +0.000 A 
ATOM      4  C   UNL     1       2.998   5.144  18.138  0.00  0.00    +0.000 A 
ATOM      5  C   UNL     1       3.533   6.424  17.876  0.00  0.00    +0.000 A 
ATOM      6  C   UNL     1       4.938   6.585  17.783  0.00  0.00    +0.000 A 
ENDROOT
BRANCH   5   7
ATOM      7  C   UNL     1       2.759   7.697  17.799  0.00  0.00    +0.000 C 
ATOM      8  O   UNL     1       2.670   8.233  16.693  0.00  0.00    +0.000 OA
ATOM      9  N   UNL     1       2.091   8.204  18.893  0.00  0.00    +0.000 N 
ATOM     10  C   UNL     1       1.279   9.416  18.748  0.00  0.00    +0.000 C 
ATOM     11  C   UNL     1       0.661   9.597  20.093  0.00  0.00    +0.000 A 
ATOM     12  C   UNL     1      -0.093  10.637  20.603  0.00  0.00    +0.000 A 
ATOM     13  C   UNL     1      -0.533  10.541  21.930  0.00  0.00    +0.000 A 
ATOM     14  C   UNL     1      -0.199   9.392  22.657  0.00  0.00    +0.000 A 
ATOM     15  N   UNL     1       0.530   8.357  22.170  0.00  0.00    +0.000 NA
ATOM     16  C   UNL     1       0.940   8.498  20.897  0.00  0.00    +0.000 A 
ATOM     17  C   UNL     1       1.786   7.500  20.139  0.00  0.00    +0.000 C 
BRANCH  13  18
ATOM     18  C   UNL     1      -1.332  11.620  22.597  0.00  0.00    +0.000 C 
ATOM     19  F   UNL     1      -2.264  12.187  21.782  0.00  0.00    +0.000 F 
ATOM     20  F   UNL     1      -2.011  11.171  23.687  0.00  0.00    +0.000 F 
ATOM     21  F   UNL     1      -0.553  12.646  23.039  0.00  0.00    +0.000 F 
ENDBRANCH  13  18
ENDBRANCH   5   7
BRANCH   1  23
ATOM     22  C   UNL     1       8.109   5.873  19.426  0.00  0.00    +0.000 C 
ATOM     23  S   UNL     1       7.555   5.649  17.758  0.00  0.00    +0.000 S 
ATOM     24  O   UNL     1       7.807   6.866  17.016  0.00  0.00    +0.000 OA
ATOM     25  O   UNL     1       8.053   4.372  17.286  0.00  0.00    +0.000 OA
ENDBRANCH   1  23
BRANCH   4  26
ATOM     26  O   UNL     1       1.629   4.950  18.293  0.00  0.00    +0.000 OA
BRANCH  26  27
ATOM     27  C   UNL     1       1.282   3.556  18.376  0.00  0.00    +0.000 C 
BRANCH  27  28
ATOM     28  C   UNL     1       1.761   2.792  19.598  0.00  0.00    +0.000 C 
BRANCH  28  29
ATOM     29  C   UNL     1       1.291   3.551  20.834  0.00  0.00    +0.000 C 
ATOM     30  F   UNL     1       0.261   4.391  20.570  0.00  0.00    +0.000 F 
ATOM     31  F   UNL     1       0.866   2.701  21.796  0.00  0.00    +0.000 F 
ATOM     32  F   UNL     1       2.284   4.301  21.356  0.00  0.00    +0.000 F 
ENDBRANCH  28  29
ENDBRANCH  27  28
ENDBRANCH  26  27
ENDBRANCH   4  26
TORSDOF 7
ENDMDL
MODEL 9
REMARK VINA RESULT:      -8.0      1.464      1.870
REMARK  Name = 
REMARK  8 active torsions:
REMARK  status: ('A' for Active; 'I' for Inactive)
REMARK    1  A    between atoms: C_1  and  S_2
REMARK    2  A    between atoms: S_2  and  C_5
REMARK    3  A    between atoms: C_8  and  O_9
REMARK    4  A    between atoms: O_9  and  C_10
REMARK    5  A    between atoms: C_10  and  C_11
REMARK    6  A    between atoms: C_11  and  C_12
REMARK    7  A    between atoms: C_16  and  C_17
REMARK    8  A    between atoms: C_23  and  C_24
REMARK                            x       y       z     vdW  Elec       q    Type
REMARK                         _______ _______ _______ _____ _____    ______ ____
ROOT
ATOM      1  C   UNL     1       5.511   6.044  18.221  0.00  0.00    +0.000 A 
ATOM      2  C   UNL     1       5.265   4.908  18.981  0.00  0.00    +0.000 A 
ATOM      3  C   UNL     1       4.028   4.746  19.570  0.00  0.00    +0.000 A 
ATOM      4  C   UNL     1       2.982   5.687  19.419  0.00  0.00    +0.000 A 
ATOM      5  C   UNL     1       3.230   6.826  18.623  0.00  0.00    +0.000 A 
ATOM      6  C   UNL     1       4.509   6.998  18.036  0.00  0.00    +0.000 A 
ENDROOT
BRANCH   5   7
ATOM      7  C   UNL     1       2.296   7.971  18.416  0.00  0.00    +0.000 C 
ATOM      8  O   UNL     1       2.055   8.295  17.252  0.00  0.00    +0.000 OA
ATOM      9  N   UNL     1       1.655   8.580  19.473  0.00  0.00    +0.000 N 
ATOM     10  C   UNL     1       0.686   9.649  19.214  0.00  0.00    +0.000 C 
ATOM     11  C   UNL     1       0.155   9.988  20.566  0.00  0.00    +0.000 A 
ATOM     12  C   UNL     1      -0.685  11.008  20.971  0.00  0.00    +0.000 A 
ATOM     13  C   UNL     1      -1.005  11.093  22.334  0.00  0.00    +0.000 A 
ATOM     14  C   UNL     1      -0.473  10.132  23.200  0.00  0.00    +0.000 A 
ATOM     15  N   UNL     1       0.344   9.118  22.819  0.00  0.00    +0.000 NA
ATOM     16  C   UNL     1       0.633   9.083  21.506  0.00  0.00    +0.000 A 
ATOM     17  C   UNL     1       1.539   8.071  20.841  0.00  0.00    +0.000 C 
BRANCH  13  18
ATOM     18  C   UNL     1      -1.882  12.174  22.891  0.00  0.00    +0.000 C 
ATOM     19  F   UNL     1      -2.796  11.721  23.793  0.00  0.00    +0.000 F 
ATOM     20  F   UNL     1      -1.174  13.143  23.531  0.00  0.00    +0.000 F 
ATOM     21  F   UNL     1      -2.599  12.812  21.925  0.00  0.00    +0.000 F 
ENDBRANCH  13  18
ENDBRANCH   5   7
BRANCH   1  23
ATOM     22  C   UNL     1       8.184   6.582  18.809  0.00  0.00    +0.000 C 
ATOM     23  S   UNL     1       7.108   6.206  17.452  0.00  0.00    +0.000 S 
ATOM     24  O   UNL     1       7.048   7.355  16.574  0.00  0.00    +0.000 OA
ATOM     25  O   UNL     1       7.466   4.897  16.943  0.00  0.00    +0.000 OA
ENDBRANCH   1  23
BRANCH   4  26
ATOM     26  O   UNL     1       1.760   5.506  20.060  0.00  0.00    +0.000 OA
BRANCH  26  27
ATOM     27  C   UNL     1       1.605   4.168  20.568  0.00  0.00    +0.000 C 
BRANCH  27  28
ATOM     28  C   UNL     1       0.500   3.320  19.964  0.00  0.00    +0.000 C 
BRANCH  28  29
ATOM     29  C   UNL     1       1.111   2.494  18.837  0.00  0.00    +0.000 C 
ATOM     30  F   UNL     1       1.464   3.250  17.769  0.00  0.00    +0.000 F 
ATOM     31  F   UNL     1       2.228   1.856  19.250  0.00  0.00    +0.000 F 
ATOM     32  F   UNL     1       0.245   1.561  18.387  0.00  0.00    +0.000 F 
ENDBRANCH  28  29
ENDBRANCH  27  28
ENDBRANCH  26  27
ENDBRANCH   4  26
TORSDOF 7
ENDMDL
