MODEL 1
REMARK VINA RESULT:      -7.7      0.000      0.000
REMARK  Name = 
REMARK  8 active torsions:
REMARK  status: ('A' for Active; 'I' for Inactive)
REMARK    1  A    between atoms: C_1  and  O_2
REMARK    2  A    between atoms: O_2  and  C_3
REMARK    3  A    between atoms: C_6  and  S_7
REMARK    4  A    between atoms: S_7  and  N_10
REMARK    5  A    between atoms: N_13  and  S_14
REMARK    6  A    between atoms: S_14  and  C_17
REMARK    7  A    between atoms: C_20  and  O_21
REMARK    8  A    between atoms: O_21  and  C_22
REMARK                            x       y       z     vdW  Elec       q    Type
REMARK                         _______ _______ _______ _____ _____    ______ ____
ROOT
ATOM      1  N   UNL     1       1.568   9.242  19.237  0.00  0.00    +0.000 N 
ATOM      2  C   UNL     1       2.215   9.062  17.988  0.00  0.00    +0.000 A 
ATOM      3  C   UNL     1       2.612   7.789  17.900  0.00  0.00    +0.000 A 
ATOM      4  N   UNL     1       2.247   7.120  19.097  0.00  0.00    +0.000 N 
ATOM      5  C   UNL     1       1.645   8.045  19.939  0.00  0.00    +0.000 A 
ATOM      6  O   UNL     1       1.304   7.862  21.092  0.00  0.00    +0.000 OA
ENDROOT
BRANCH   1   7
ATOM      7  S   UNL     1       0.969  10.695  19.717  0.00  0.00    +0.000 S 
ATOM      8  O   UNL     1       1.770  11.767  19.169  0.00  0.00    +0.000 OA
ATOM      9  O   UNL     1       0.696  10.643  21.142  0.00  0.00    +0.000 OA
BRANCH   7  13
ATOM     10  C   UNL     1      -3.066  10.753  17.580  0.00  0.00    +0.000 A 
ATOM     11  C   UNL     1      -2.049   9.897  17.146  0.00  0.00    +0.000 A 
ATOM     12  C   UNL     1      -0.821   9.863  17.806  0.00  0.00    +0.000 A 
ATOM     13  C   UNL     1      -0.605  10.717  18.890  0.00  0.00    +0.000 A 
ATOM     14  C   UNL     1      -1.614  11.573  19.337  0.00  0.00    +0.000 A 
ATOM     15  C   UNL     1      -2.844  11.593  18.675  0.00  0.00    +0.000 A 
BRANCH  10  17
ATOM     16  C   UNL     1      -5.087  11.822  16.980  0.00  0.00    +0.000 C 
ATOM     17  O   UNL     1      -4.211  10.709  16.835  0.00  0.00    +0.000 OA
ENDBRANCH  10  17
ENDBRANCH   7  13
ENDBRANCH   1   7
BRANCH   4  18
ATOM     18  S   UNL     1       2.472   5.503  19.307  0.00  0.00    +0.000 S 
ATOM     19  O   UNL     1       2.724   5.214  20.703  0.00  0.00    +0.000 OA
ATOM     20  O   UNL     1       1.421   4.795  18.596  0.00  0.00    +0.000 OA
BRANCH  18  21
ATOM     21  C   UNL     1       3.980   5.213  18.411  0.00  0.00    +0.000 A 
ATOM     22  C   UNL     1       3.930   4.832  17.070  0.00  0.00    +0.000 A 
ATOM     23  C   UNL     1       5.126   4.648  16.370  0.00  0.00    +0.000 A 
ATOM     24  C   UNL     1       6.360   4.867  16.991  0.00  0.00    +0.000 A 
ATOM     25  C   UNL     1       6.398   5.255  18.332  0.00  0.00    +0.000 A 
ATOM     26  C   UNL     1       5.209   5.435  19.043  0.00  0.00    +0.000 A 
BRANCH  24  27
ATOM     27  O   UNL     1       7.455   4.638  16.205  0.00  0.00    +0.000 OA
ATOM     28  C   UNL     1       7.238   4.707  14.800  0.00  0.00    +0.000 C 
ENDBRANCH  24  27
ENDBRANCH  18  21
ENDBRANCH   4  18
TORSDOF 6
ENDMDL
MODEL 2
REMARK VINA RESULT:      -7.7      0.884      1.253
REMARK  Name = 
REMARK  8 active torsions:
REMARK  status: ('A' for Active; 'I' for Inactive)
REMARK    1  A    between atoms: C_1  and  O_2
REMARK    2  A    between atoms: O_2  and  C_3
REMARK    3  A    between atoms: C_6  and  S_7
REMARK    4  A    between atoms: S_7  and  N_10
REMARK    5  A    between atoms: N_13  and  S_14
REMARK    6  A    between atoms: S_14  and  C_17
REMARK    7  A    between atoms: C_20  and  O_21
REMARK    8  A    between atoms: O_21  and  C_22
REMARK                            x       y       z     vdW  Elec       q    Type
REMARK                         _______ _______ _______ _____ _____    ______ ____
ROOT
ATOM      1  N   UNL     1       1.440   9.179  19.225  0.00  0.00    +0.000 N 
ATOM      2  C   UNL     1       2.081   9.224  17.960  0.00  0.00    +0.000 A 
ATOM      3  C   UNL     1       2.650   8.036  17.734  0.00  0.00    +0.000 A 
ATOM      4  N   UNL     1       2.406   7.200  18.855  0.00  0.00    +0.000 N 
ATOM      5  C   UNL     1       1.698   7.938  19.795  0.00  0.00    +0.000 A 
ATOM      6  O   UNL     1       1.409   7.589  20.924  0.00  0.00    +0.000 OA
ENDROOT
BRANCH   1   7
ATOM      7  S   UNL     1       0.654  10.475  19.861  0.00  0.00    +0.000 S 
ATOM      8  O   UNL     1       1.456  11.668  19.702  0.00  0.00    +0.000 OA
ATOM      9  O   UNL     1       0.133  10.114  21.167  0.00  0.00    +0.000 OA
BRANCH   7  13
ATOM     10  C   UNL     1      -2.920  10.823  17.041  0.00  0.00    +0.000 A 
ATOM     11  C   UNL     1      -1.962   9.823  16.846  0.00  0.00    +0.000 A 
ATOM     12  C   UNL     1      -0.878   9.702  17.715  0.00  0.00    +0.000 A 
ATOM     13  C   UNL     1      -0.742  10.610  18.767  0.00  0.00    +0.000 A 
ATOM     14  C   UNL     1      -1.694  11.610  18.976  0.00  0.00    +0.000 A 
ATOM     15  C   UNL     1      -2.782  11.718  18.105  0.00  0.00    +0.000 A 
BRANCH  10  17
ATOM     16  C   UNL     1      -3.602  10.275  14.844  0.00  0.00    +0.000 C 
ATOM     17  O   UNL     1      -3.919  10.851  16.107  0.00  0.00    +0.000 OA
ENDBRANCH  10  17
ENDBRANCH   7  13
ENDBRANCH   1   7
BRANCH   4  18
ATOM     18  S   UNL     1       2.858   5.618  18.891  0.00  0.00    +0.000 S 
ATOM     19  O   UNL     1       3.382   5.280  20.197  0.00  0.00    +0.000 OA
ATOM     20  O   UNL     1       1.794   4.821  18.306  0.00  0.00    +0.000 OA
BRANCH  18  21
ATOM     21  C   UNL     1       4.211   5.588  17.738  0.00  0.00    +0.000 A 
ATOM     22  C   UNL     1       5.330   6.393  17.955  0.00  0.00    +0.000 A 
ATOM     23  C   UNL     1       6.401   6.326  17.060  0.00  0.00    +0.000 A 
ATOM     24  C   UNL     1       6.371   5.444  15.973  0.00  0.00    +0.000 A 
ATOM     25  C   UNL     1       5.251   4.638  15.769  0.00  0.00    +0.000 A 
ATOM     26  C   UNL     1       4.171   4.702  16.654  0.00  0.00    +0.000 A 
BRANCH  24  27
ATOM     27  O   UNL     1       7.472   5.484  15.163  0.00  0.00    +0.000 OA
ATOM     28  C   UNL     1       7.318   4.896  13.876  0.00  0.00    +0.000 C 
ENDBRANCH  24  27
ENDBRANCH  18  21
ENDBRANCH   4  18
TORSDOF 6
ENDMDL
MODEL 3
REMARK VINA RESULT:      -7.7      0.213      8.548
REMARK  Name = 
REMARK  8 active torsions:
REMARK  status: ('A' for Active; 'I' for Inactive)
REMARK    1  A    between atoms: C_1  and  O_2
REMARK    2  A    between atoms: O_2  and  C_3
REMARK    3  A    between atoms: C_6  and  S_7
REMARK    4  A    between atoms: S_7  and  N_10
REMARK    5  A    between atoms: N_13  and  S_14
REMARK    6  A    between atoms: S_14  and  C_17
REMARK    7  A    between atoms: C_20  and  O_21
REMARK    8  A    between atoms: O_21  and  C_22
REMARK                            x       y       z     vdW  Elec       q    Type
REMARK                         _______ _______ _______ _____ _____    ______ ____
ROOT
ATOM      1  N   UNL     1       2.258   7.148  19.042  0.00  0.00    +0.000 N 
ATOM      2  C   UNL     1       2.619   7.760  17.815  0.00  0.00    +0.000 A 
ATOM      3  C   UNL     1       2.213   9.033  17.844  0.00  0.00    +0.000 A 
ATOM      4  N   UNL     1       1.565   9.270  19.084  0.00  0.00    +0.000 N 
ATOM      5  C   UNL     1       1.555   8.079  19.797  0.00  0.00    +0.000 A 
ATOM      6  O   UNL     1       0.988   7.871  20.854  0.00  0.00    +0.000 OA
ENDROOT
BRANCH   1   7
ATOM      7  S   UNL     1       2.568   5.566  19.363  0.00  0.00    +0.000 S 
ATOM      8  O   UNL     1       1.525   4.734  18.803  0.00  0.00    +0.000 OA
ATOM      9  O   UNL     1       2.936   5.433  20.760  0.00  0.00    +0.000 OA
BRANCH   7  13
ATOM     10  C   UNL     1       6.357   4.861  16.915  0.00  0.00    +0.000 A 
ATOM     11  C   UNL     1       5.104   4.549  16.381  0.00  0.00    +0.000 A 
ATOM     12  C   UNL     1       3.942   4.778  17.117  0.00  0.00    +0.000 A 
ATOM     13  C   UNL     1       4.045   5.297  18.410  0.00  0.00    +0.000 A 
ATOM     14  C   UNL     1       5.291   5.618  18.954  0.00  0.00    +0.000 A 
ATOM     15  C   UNL     1       6.449   5.393  18.205  0.00  0.00    +0.000 A 
BRANCH  10  17
ATOM     16  C   UNL     1       7.201   4.754  14.709  0.00  0.00    +0.000 C 
ATOM     17  O   UNL     1       7.418   4.566  16.104  0.00  0.00    +0.000 OA
ENDBRANCH  10  17
ENDBRANCH   7  13
ENDBRANCH   1   7
BRANCH   4  18
ATOM     18  S   UNL     1       1.031  10.762  19.530  0.00  0.00    +0.000 S 
ATOM     19  O   UNL     1       0.895  10.832  20.969  0.00  0.00    +0.000 OA
ATOM     20  O   UNL     1       1.812  11.762  18.823  0.00  0.00    +0.000 OA
BRANCH  18  21
ATOM     21  C   UNL     1      -0.603  10.801  18.827  0.00  0.00    +0.000 A 
ATOM     22  C   UNL     1      -0.943   9.915  17.805  0.00  0.00    +0.000 A 
ATOM     23  C   UNL     1      -2.243   9.932  17.293  0.00  0.00    +0.000 A 
ATOM     24  C   UNL     1      -3.205  10.806  17.813  0.00  0.00    +0.000 A 
ATOM     25  C   UNL     1      -2.856  11.684  18.840  0.00  0.00    +0.000 A 
ATOM     26  C   UNL     1      -1.557  11.679  19.354  0.00  0.00    +0.000 A 
BRANCH  24  27
ATOM     27  O   UNL     1      -4.434  10.738  17.217  0.00  0.00    +0.000 OA
ATOM     28  C   UNL     1      -5.117  11.977  17.057  0.00  0.00    +0.000 C 
ENDBRANCH  24  27
ENDBRANCH  18  21
ENDBRANCH   4  18
TORSDOF 6
ENDMDL
MODEL 4
REMARK VINA RESULT:      -7.6      0.370      8.599
REMARK  Name = 
REMARK  8 active torsions:
REMARK  status: ('A' for Active; 'I' for Inactive)
REMARK    1  A    between atoms: C_1  and  O_2
REMARK    2  A    between atoms: O_2  and  C_3
REMARK    3  A    between atoms: C_6  and  S_7
REMARK    4  A    between atoms: S_7  and  N_10
REMARK    5  A    between atoms: N_13  and  S_14
REMARK    6  A    between atoms: S_14  and  C_17
REMARK    7  A    between atoms: C_20  and  O_21
REMARK    8  A    between atoms: O_21  and  C_22
REMARK                            x       y       z     vdW  Elec       q    Type
REMARK                         _______ _______ _______ _____ _____    ______ ____
ROOT
ATOM      1  N   UNL     1       2.264   7.077  19.065  0.00  0.00    +0.000 N 
ATOM      2  C   UNL     1       2.616   7.691  17.836  0.00  0.00    +0.000 A 
ATOM      3  C   UNL     1       2.211   8.964  17.871  0.00  0.00    +0.000 A 
ATOM      4  N   UNL     1       1.571   9.199  19.116  0.00  0.00    +0.000 N 
ATOM      5  C   UNL     1       1.566   8.006  19.827  0.00  0.00    +0.000 A 
ATOM      6  O   UNL     1       1.006   7.795  20.887  0.00  0.00    +0.000 OA
ENDROOT
BRANCH   1   7
ATOM      7  S   UNL     1       2.575   5.494  19.380  0.00  0.00    +0.000 S 
ATOM      8  O   UNL     1       1.495   4.669  18.884  0.00  0.00    +0.000 OA
ATOM      9  O   UNL     1       3.018   5.367  20.756  0.00  0.00    +0.000 OA
BRANCH   7  13
ATOM     10  C   UNL     1       6.227   4.764  16.738  0.00  0.00    +0.000 A 
ATOM     11  C   UNL     1       6.371   5.373  17.988  0.00  0.00    +0.000 A 
ATOM     12  C   UNL     1       5.261   5.582  18.806  0.00  0.00    +0.000 A 
ATOM     13  C   UNL     1       3.996   5.204  18.350  0.00  0.00    +0.000 A 
ATOM     14  C   UNL     1       3.839   4.590  17.105  0.00  0.00    +0.000 A 
ATOM     15  C   UNL     1       4.959   4.376  16.297  0.00  0.00    +0.000 A 
BRANCH  10  17
ATOM     16  C   UNL     1       7.257   4.746  14.610  0.00  0.00    +0.000 C 
ATOM     17  O   UNL     1       7.386   4.639  16.023  0.00  0.00    +0.000 OA
ENDBRANCH  10  17
ENDBRANCH   7  13
ENDBRANCH   1   7
BRANCH   4  18
ATOM     18  S   UNL     1       1.040  10.689  19.568  0.00  0.00    +0.000 S 
ATOM     19  O   UNL     1       0.908  10.754  21.008  0.00  0.00    +0.000 OA
ATOM     20  O   UNL     1       1.822  11.691  18.864  0.00  0.00    +0.000 OA
BRANCH  18  21
ATOM     21  C   UNL     1      -0.594  10.734  18.869  0.00  0.00    +0.000 A 
ATOM     22  C   UNL     1      -1.541  11.629  19.369  0.00  0.00    +0.000 A 
ATOM     23  C   UNL     1      -2.808  11.679  18.781  0.00  0.00    +0.000 A 
ATOM     24  C   UNL     1      -3.121  10.865  17.687  0.00  0.00    +0.000 A 
ATOM     25  C   UNL     1      -2.165   9.979  17.190  0.00  0.00    +0.000 A 
ATOM     26  C   UNL     1      -0.897   9.916  17.775  0.00  0.00    +0.000 A 
BRANCH  24  27
ATOM     27  O   UNL     1      -4.397  10.996  17.212  0.00  0.00    +0.000 OA
ATOM     28  C   UNL     1      -5.429  10.984  18.192  0.00  0.00    +0.000 C 
ENDBRANCH  24  27
ENDBRANCH  18  21
ENDBRANCH   4  18
TORSDOF 6
ENDMDL
MODEL 5
REMARK VINA RESULT:      -7.6      0.243      1.305
REMARK  Name = 
REMARK  8 active torsions:
REMARK  status: ('A' for Active; 'I' for Inactive)
REMARK    1  A    between atoms: C_1  and  O_2
REMARK    2  A    between atoms: O_2  and  C_3
REMARK    3  A    between atoms: C_6  and  S_7
REMARK    4  A    between atoms: S_7  and  N_10
REMARK    5  A    between atoms: N_13  and  S_14
REMARK    6  A    between atoms: S_14  and  C_17
REMARK    7  A    between atoms: C_20  and  O_21
REMARK    8  A    between atoms: O_21  and  C_22
REMARK                            x       y       z     vdW  Elec       q    Type
REMARK                         _______ _______ _______ _____ _____    ______ ____
ROOT
ATOM      1  N   UNL     1       1.467   9.218  19.272  0.00  0.00    +0.000 N 
ATOM      2  C   UNL     1       2.094   9.063  18.009  0.00  0.00    +0.000 A 
ATOM      3  C   UNL     1       2.537   7.806  17.910  0.00  0.00    +0.000 A 
ATOM      4  N   UNL     1       2.223   7.122  19.113  0.00  0.00    +0.000 N 
ATOM      5  C   UNL     1       1.605   8.023  19.970  0.00  0.00    +0.000 A 
ATOM      6  O   UNL     1       1.295   7.826  21.130  0.00  0.00    +0.000 OA
ENDROOT
BRANCH   1   7
ATOM      7  S   UNL     1       0.824  10.646  19.768  0.00  0.00    +0.000 S 
ATOM      8  O   UNL     1       1.651  11.745  19.320  0.00  0.00    +0.000 OA
ATOM      9  O   UNL     1       0.454  10.534  21.167  0.00  0.00    +0.000 OA
BRANCH   7  13
ATOM     10  C   UNL     1      -3.071  10.762  17.388  0.00  0.00    +0.000 A 
ATOM     11  C   UNL     1      -2.901  11.587  18.504  0.00  0.00    +0.000 A 
ATOM     12  C   UNL     1      -1.707  11.568  19.223  0.00  0.00    +0.000 A 
ATOM     13  C   UNL     1      -0.690  10.692  18.836  0.00  0.00    +0.000 A 
ATOM     14  C   UNL     1      -0.845   9.866  17.721  0.00  0.00    +0.000 A 
ATOM     15  C   UNL     1      -2.042   9.899  17.000  0.00  0.00    +0.000 A 
BRANCH  10  17
ATOM     16  C   UNL     1      -5.259  11.654  17.462  0.00  0.00    +0.000 C 
ATOM     17  O   UNL     1      -4.295  10.856  16.784  0.00  0.00    +0.000 OA
ENDBRANCH  10  17
ENDBRANCH   7  13
ENDBRANCH   1   7
BRANCH   4  18
ATOM     18  S   UNL     1       2.513   5.515  19.315  0.00  0.00    +0.000 S 
ATOM     19  O   UNL     1       2.903   5.249  20.683  0.00  0.00    +0.000 OA
ATOM     20  O   UNL     1       1.422   4.770  18.712  0.00  0.00    +0.000 OA
BRANCH  18  21
ATOM     21  C   UNL     1       3.939   5.258  18.284  0.00  0.00    +0.000 A 
ATOM     22  C   UNL     1       5.191   5.708  18.701  0.00  0.00    +0.000 A 
ATOM     23  C   UNL     1       6.307   5.461  17.897  0.00  0.00    +0.000 A 
ATOM     24  C   UNL     1       6.182   4.747  16.701  0.00  0.00    +0.000 A 
ATOM     25  C   UNL     1       4.925   4.294  16.295  0.00  0.00    +0.000 A 
ATOM     26  C   UNL     1       3.802   4.542  17.089  0.00  0.00    +0.000 A 
BRANCH  24  27
ATOM     27  O   UNL     1       7.343   4.585  15.996  0.00  0.00    +0.000 OA
ATOM     28  C   UNL     1       7.262   4.834  14.597  0.00  0.00    +0.000 C 
ENDBRANCH  24  27
ENDBRANCH  18  21
ENDBRANCH   4  18
TORSDOF 6
ENDMDL
MODEL 6
REMARK VINA RESULT:      -7.5      1.016      1.073
REMARK  Name = 
REMARK  8 active torsions:
REMARK  status: ('A' for Active; 'I' for Inactive)
REMARK    1  A    between atoms: C_1  and  O_2
REMARK    2  A    between atoms: O_2  and  C_3
REMARK    3  A    between atoms: C_6  and  S_7
REMARK    4  A    between atoms: S_7  and  N_10
REMARK    5  A    between atoms: N_13  and  S_14
REMARK    6  A    between atoms: S_14  and  C_17
REMARK    7  A    between atoms: C_20  and  O_21
REMARK    8  A    between atoms: O_21  and  C_22
REMARK                            x       y       z     vdW  Elec       q    Type
REMARK                         _______ _______ _______ _____ _____    ______ ____
ROOT
ATOM      1  N   UNL     1       1.448   8.931  19.390  0.00  0.00    +0.000 N 
ATOM      2  C   UNL     1       2.097   9.011  18.131  0.00  0.00    +0.000 A 
ATOM      3  C   UNL     1       2.678   7.834  17.882  0.00  0.00    +0.000 A 
ATOM      4  N   UNL     1       2.434   6.970  18.981  0.00  0.00    +0.000 N 
ATOM      5  C   UNL     1       1.713   7.680  19.932  0.00  0.00    +0.000 A 
ATOM      6  O   UNL     1       1.419   7.301  21.051  0.00  0.00    +0.000 OA
ENDROOT
BRANCH   1   7
ATOM      7  S   UNL     1       0.645  10.205  20.050  0.00  0.00    +0.000 S 
ATOM      8  O   UNL     1       1.531  11.343  20.163  0.00  0.00    +0.000 OA
ATOM      9  O   UNL     1      -0.100   9.742  21.207  0.00  0.00    +0.000 OA
BRANCH   7  13
ATOM     10  C   UNL     1      -2.403  11.126  16.778  0.00  0.00    +0.000 A 
ATOM     11  C   UNL     1      -2.098   9.802  17.106  0.00  0.00    +0.000 A 
ATOM     12  C   UNL     1      -1.181   9.515  18.116  0.00  0.00    +0.000 A 
ATOM     13  C   UNL     1      -0.545  10.567  18.780  0.00  0.00    +0.000 A 
ATOM     14  C   UNL     1      -0.844  11.895  18.465  0.00  0.00    +0.000 A 
ATOM     15  C   UNL     1      -1.772  12.172  17.457  0.00  0.00    +0.000 A 
BRANCH  10  17
ATOM     16  C   UNL     1      -3.220  10.298  14.720  0.00  0.00    +0.000 C 
ATOM     17  O   UNL     1      -3.298  11.273  15.754  0.00  0.00    +0.000 OA
ENDBRANCH  10  17
ENDBRANCH   7  13
ENDBRANCH   1   7
BRANCH   4  18
ATOM     18  S   UNL     1       2.900   5.392  18.983  0.00  0.00    +0.000 S 
ATOM     19  O   UNL     1       3.373   5.015  20.298  0.00  0.00    +0.000 OA
ATOM     20  O   UNL     1       1.869   4.606  18.328  0.00  0.00    +0.000 OA
BRANCH  18  21
ATOM     21  C   UNL     1       4.300   5.412  17.887  0.00  0.00    +0.000 A 
ATOM     22  C   UNL     1       4.237   4.741  16.666  0.00  0.00    +0.000 A 
ATOM     23  C   UNL     1       5.332   4.800  15.799  0.00  0.00    +0.000 A 
ATOM     24  C   UNL     1       6.468   5.545  16.132  0.00  0.00    +0.000 A 
ATOM     25  C   UNL     1       6.518   6.219  17.354  0.00  0.00    +0.000 A 
ATOM     26  C   UNL     1       5.432   6.160  18.231  0.00  0.00    +0.000 A 
BRANCH  24  27
ATOM     27  O   UNL     1       7.477   5.512  15.209  0.00  0.00    +0.000 OA
ATOM     28  C   UNL     1       7.169   4.872  13.975  0.00  0.00    +0.000 C 
ENDBRANCH  24  27
ENDBRANCH  18  21
ENDBRANCH   4  18
TORSDOF 6
ENDMDL
MODEL 7
REMARK VINA RESULT:      -7.5      0.686      8.574
REMARK  Name = 
REMARK  8 active torsions:
REMARK  status: ('A' for Active; 'I' for Inactive)
REMARK    1  A    between atoms: C_1  and  O_2
REMARK    2  A    between atoms: O_2  and  C_3
REMARK    3  A    between atoms: C_6  and  S_7
REMARK    4  A    between atoms: S_7  and  N_10
REMARK    5  A    between atoms: N_13  and  S_14
REMARK    6  A    between atoms: S_14  and  C_17
REMARK    7  A    between atoms: C_20  and  O_21
REMARK    8  A    between atoms: O_21  and  C_22
REMARK                            x       y       z     vdW  Elec       q    Type
REMARK                         _______ _______ _______ _____ _____    ______ ____
ROOT
ATOM      1  N   UNL     1       2.416   7.237  18.745  0.00  0.00    +0.000 N 
ATOM      2  C   UNL     1       2.606   7.925  17.520  0.00  0.00    +0.000 A 
ATOM      3  C   UNL     1       2.134   9.168  17.657  0.00  0.00    +0.000 A 
ATOM      4  N   UNL     1       1.611   9.307  18.969  0.00  0.00    +0.000 N 
ATOM      5  C   UNL     1       1.746   8.086  19.617  0.00  0.00    +0.000 A 
ATOM      6  O   UNL     1       1.309   7.795  20.715  0.00  0.00    +0.000 OA
ENDROOT
BRANCH   1   7
ATOM      7  S   UNL     1       2.848   5.664  18.948  0.00  0.00    +0.000 S 
ATOM      8  O   UNL     1       1.796   4.795  18.467  0.00  0.00    +0.000 OA
ATOM      9  O   UNL     1       3.381   5.492  20.288  0.00  0.00    +0.000 OA
BRANCH   7  13
ATOM     10  C   UNL     1       6.368   5.329  16.059  0.00  0.00    +0.000 A 
ATOM     11  C   UNL     1       6.324   6.360  17.002  0.00  0.00    +0.000 A 
ATOM     12  C   UNL     1       5.260   6.457  17.899  0.00  0.00    +0.000 A 
ATOM     13  C   UNL     1       4.219   5.528  17.825  0.00  0.00    +0.000 A 
ATOM     14  C   UNL     1       4.252   4.490  16.890  0.00  0.00    +0.000 A 
ATOM     15  C   UNL     1       5.328   4.397  16.003  0.00  0.00    +0.000 A 
BRANCH  10  17
ATOM     16  C   UNL     1       7.218   4.906  13.895  0.00  0.00    +0.000 C 
ATOM     17  O   UNL     1       7.450   5.360  15.224  0.00  0.00    +0.000 OA
ENDBRANCH  10  17
ENDBRANCH   7  13
ENDBRANCH   1   7
BRANCH   4  18
ATOM     18  S   UNL     1       1.044  10.741  19.545  0.00  0.00    +0.000 S 
ATOM     19  O   UNL     1       0.897  10.676  20.983  0.00  0.00    +0.000 OA
ATOM     20  O   UNL     1       1.810  11.816  18.940  0.00  0.00    +0.000 OA
BRANCH  18  21
ATOM     21  C   UNL     1      -0.585  10.813  18.835  0.00  0.00    +0.000 A 
ATOM     22  C   UNL     1      -0.945   9.919  17.826  0.00  0.00    +0.000 A 
ATOM     23  C   UNL     1      -2.242   9.964  17.308  0.00  0.00    +0.000 A 
ATOM     24  C   UNL     1      -3.182  10.871  17.809  0.00  0.00    +0.000 A 
ATOM     25  C   UNL     1      -2.814  11.756  18.824  0.00  0.00    +0.000 A 
ATOM     26  C   UNL     1      -1.517  11.725  19.344  0.00  0.00    +0.000 A 
BRANCH  24  27
ATOM     27  O   UNL     1      -4.410  10.827  17.209  0.00  0.00    +0.000 OA
ATOM     28  C   UNL     1      -5.439  11.582  17.841  0.00  0.00    +0.000 C 
ENDBRANCH  24  27
ENDBRANCH  18  21
ENDBRANCH   4  18
TORSDOF 6
ENDMDL
MODEL 8
REMARK VINA RESULT:      -7.4      2.823      3.895
REMARK  Name = 
REMARK  8 active torsions:
REMARK  status: ('A' for Active; 'I' for Inactive)
REMARK    1  A    between atoms: C_1  and  O_2
REMARK    2  A    between atoms: O_2  and  C_3
REMARK    3  A    between atoms: C_6  and  S_7
REMARK    4  A    between atoms: S_7  and  N_10
REMARK    5  A    between atoms: N_13  and  S_14
REMARK    6  A    between atoms: S_14  and  C_17
REMARK    7  A    between atoms: C_20  and  O_21
REMARK    8  A    between atoms: O_21  and  C_22
REMARK                            x       y       z     vdW  Elec       q    Type
REMARK                         _______ _______ _______ _____ _____    ______ ____
ROOT
ATOM      1  N   UNL     1       2.566   7.261  18.617  0.00  0.00    +0.000 N 
ATOM      2  C   UNL     1       1.974   6.211  19.364  0.00  0.00    +0.000 A 
ATOM      3  C   UNL     1       2.886   5.249  19.533  0.00  0.00    +0.000 A 
ATOM      4  N   UNL     1       4.083   5.645  18.883  0.00  0.00    +0.000 N 
ATOM      5  C   UNL     1       3.856   6.873  18.276  0.00  0.00    +0.000 A 
ATOM      6  O   UNL     1       4.618   7.469  17.537  0.00  0.00    +0.000 OA
ENDROOT
BRANCH   1   7
ATOM      7  S   UNL     1       1.736   8.613  18.185  0.00  0.00    +0.000 S 
ATOM      8  O   UNL     1       0.606   8.256  17.356  0.00  0.00    +0.000 OA
ATOM      9  O   UNL     1       2.680   9.621  17.738  0.00  0.00    +0.000 OA
BRANCH   7  13
ATOM     10  C   UNL     1       0.120  10.021  22.216  0.00  0.00    +0.000 A 
ATOM     11  C   UNL     1      -0.415  10.524  21.027  0.00  0.00    +0.000 A 
ATOM     12  C   UNL     1       0.063  10.085  19.793  0.00  0.00    +0.000 A 
ATOM     13  C   UNL     1       1.106   9.156  19.757  0.00  0.00    +0.000 A 
ATOM     14  C   UNL     1       1.646   8.642  20.937  0.00  0.00    +0.000 A 
ATOM     15  C   UNL     1       1.154   9.082  22.169  0.00  0.00    +0.000 A 
BRANCH  10  17
ATOM     16  C   UNL     1      -1.566  11.373  23.177  0.00  0.00    +0.000 C 
ATOM     17  O   UNL     1      -0.418  10.550  23.357  0.00  0.00    +0.000 OA
ENDBRANCH  10  17
ENDBRANCH   7  13
ENDBRANCH   1   7
BRANCH   4  18
ATOM     18  S   UNL     1       5.469   4.761  18.972  0.00  0.00    +0.000 S 
ATOM     19  O   UNL     1       6.516   5.540  19.598  0.00  0.00    +0.000 OA
ATOM     20  O   UNL     1       5.142   3.440  19.480  0.00  0.00    +0.000 OA
BRANCH  18  21
ATOM     21  C   UNL     1       5.895   4.557  17.258  0.00  0.00    +0.000 A 
ATOM     22  C   UNL     1       4.990   3.956  16.382  0.00  0.00    +0.000 A 
ATOM     23  C   UNL     1       5.325   3.840  15.030  0.00  0.00    +0.000 A 
ATOM     24  C   UNL     1       6.538   4.344  14.548  0.00  0.00    +0.000 A 
ATOM     25  C   UNL     1       7.434   4.950  15.431  0.00  0.00    +0.000 A 
ATOM     26  C   UNL     1       7.111   5.064  16.786  0.00  0.00    +0.000 A 
BRANCH  24  27
ATOM     27  O   UNL     1       6.756   4.155  13.211  0.00  0.00    +0.000 OA
ATOM     28  C   UNL     1       5.792   3.359  12.531  0.00  0.00    +0.000 C 
ENDBRANCH  24  27
ENDBRANCH  18  21
ENDBRANCH   4  18
TORSDOF 6
ENDMDL
MODEL 9
REMARK VINA RESULT:      -7.3      2.735      8.373
REMARK  Name = 
REMARK  8 active torsions:
REMARK  status: ('A' for Active; 'I' for Inactive)
REMARK    1  A    between atoms: C_1  and  O_2
REMARK    2  A    between atoms: O_2  and  C_3
REMARK    3  A    between atoms: C_6  and  S_7
REMARK    4  A    between atoms: S_7  and  N_10
REMARK    5  A    between atoms: N_13  and  S_14
REMARK    6  A    between atoms: S_14  and  C_17
REMARK    7  A    between atoms: C_20  and  O_21
REMARK    8  A    between atoms: O_21  and  C_22
REMARK                            x       y       z     vdW  Elec       q    Type
REMARK                         _______ _______ _______ _____ _____    ______ ____
ROOT
ATOM      1  N   UNL     1       5.908   4.973  18.001  0.00  0.00    +0.000 N 
ATOM      2  C   UNL     1       5.815   4.277  19.233  0.00  0.00    +0.000 A 
ATOM      3  C   UNL     1       4.540   4.299  19.634  0.00  0.00    +0.000 A 
ATOM      4  N   UNL     1       3.781   5.027  18.681  0.00  0.00    +0.000 N 
ATOM      5  C   UNL     1       4.651   5.483  17.698  0.00  0.00    +0.000 A 
ATOM      6  O   UNL     1       4.378   6.234  16.780  0.00  0.00    +0.000 OA
ENDROOT
BRANCH   1   7
ATOM      7  S   UNL     1       7.334   5.182  17.211  0.00  0.00    +0.000 S 
ATOM      8  O   UNL     1       8.325   4.262  17.726  0.00  0.00    +0.000 OA
ATOM      9  O   UNL     1       7.626   6.602  17.136  0.00  0.00    +0.000 OA
BRANCH   7  13
ATOM     10  C   UNL     1       6.239   3.812  12.995  0.00  0.00    +0.000 A 
ATOM     11  C   UNL     1       5.664   3.194  14.110  0.00  0.00    +0.000 A 
ATOM     12  C   UNL     1       5.982   3.620  15.399  0.00  0.00    +0.000 A 
ATOM     13  C   UNL     1       6.906   4.654  15.568  0.00  0.00    +0.000 A 
ATOM     14  C   UNL     1       7.484   5.283  14.463  0.00  0.00    +0.000 A 
ATOM     15  C   UNL     1       7.152   4.855  13.175  0.00  0.00    +0.000 A 
BRANCH  10  17
ATOM     16  C   UNL     1       4.462   3.209  11.557  0.00  0.00    +0.000 C 
ATOM     17  O   UNL     1       5.865   3.286  11.790  0.00  0.00    +0.000 OA
ENDBRANCH  10  17
ENDBRANCH   7  13
ENDBRANCH   1   7
BRANCH   4  18
ATOM     18  S   UNL     1       2.145   5.169  18.779  0.00  0.00    +0.000 S 
ATOM     19  O   UNL     1       1.540   4.837  17.507  0.00  0.00    +0.000 OA
ATOM     20  O   UNL     1       1.696   4.509  19.992  0.00  0.00    +0.000 OA
BRANCH  18  21
ATOM     21  C   UNL     1       1.935   6.916  19.040  0.00  0.00    +0.000 A 
ATOM     22  C   UNL     1       1.943   7.789  17.952  0.00  0.00    +0.000 A 
ATOM     23  C   UNL     1       1.736   9.153  18.172  0.00  0.00    +0.000 A 
ATOM     24  C   UNL     1       1.495   9.641  19.461  0.00  0.00    +0.000 A 
ATOM     25  C   UNL     1       1.481   8.758  20.542  0.00  0.00    +0.000 A 
ATOM     26  C   UNL     1       1.695   7.393  20.334  0.00  0.00    +0.000 A 
BRANCH  24  27
ATOM     27  O   UNL     1       1.323  10.995  19.547  0.00  0.00    +0.000 OA
ATOM     28  C   UNL     1       0.058  11.490  19.123  0.00  0.00    +0.000 C 
ENDBRANCH  24  27
ENDBRANCH  18  21
ENDBRANCH   4  18
TORSDOF 6
ENDMDL
