MODEL 1
REMARK VINA RESULT:      -9.3      0.000      0.000
REMARK  Name = 
REMARK  11 active torsions:
REMARK  status: ('A' for Active; 'I' for Inactive)
REMARK    1  A    between atoms: C_4  and  C_5
REMARK    2  A    between atoms: C_5  and  O_6
REMARK    3  A    between atoms: O_6  and  C_7
REMARK    4  A    between atoms: C_7  and  C_8
REMARK    5  A    between atoms: C_8  and  O_9
REMARK    6  A    between atoms: C_8  and  C_17
REMARK    7  A    between atoms: O_9  and  C_10
REMARK    8  A    between atoms: C_10  and  C_11
REMARK    9  A    between atoms: C_20  and  O_21
REMARK   10  A    between atoms: O_21  and  C_22
REMARK   11  A    between atoms: C_22  and  C_23
REMARK                            x       y       z     vdW  Elec       q    Type
REMARK                         _______ _______ _______ _____ _____    ______ ____
ROOT
ATOM      1  C   UNL     1       4.017   6.069  18.044  0.00  0.00    +0.000 C 
ENDROOT
BRANCH   1   2
ATOM      2  C   UNL     1       2.952   7.106  18.441  0.00  0.00    +0.000 A 
ATOM      3  C   UNL     1       2.369   7.065  19.724  0.00  0.00    +0.000 A 
ATOM      4  C   UNL     1       1.543   8.103  20.199  0.00  0.00    +0.000 A 
ATOM      5  C   UNL     1       1.253   9.200  19.392  0.00  0.00    +0.000 A 
ATOM      6  C   UNL     1       1.755   9.208  18.086  0.00  0.00    +0.000 A 
ATOM      7  C   UNL     1       2.609   8.190  17.622  0.00  0.00    +0.000 A 
BRANCH   5   8
ATOM      8  O   UNL     1       0.510  10.296  19.754  0.00  0.00    +0.000 OA
BRANCH   8   9
ATOM      9  C   UNL     1       0.087  11.202  18.714  0.00  0.00    +0.000 C 
BRANCH   9  10
ATOM     10  C   UNL     1      -1.417  11.120  18.442  0.00  0.00    +0.000 A 
ATOM     11  C   UNL     1      -1.924  10.177  17.554  0.00  0.00    +0.000 A 
ATOM     12  C   UNL     1      -3.291  10.140  17.308  0.00  0.00    +0.000 A 
ATOM     13  C   UNL     1      -4.155  10.963  18.031  0.00  0.00    +0.000 A 
ATOM     14  C   UNL     1      -5.552  10.865  17.864  0.00  0.00    +0.000 A 
ATOM     15  C   UNL     1      -6.415  11.581  18.679  0.00  0.00    +0.000 A 
ATOM     16  C   UNL     1      -5.882  12.439  19.635  0.00  0.00    +0.000 A 
ATOM     17  C   UNL     1      -4.490  12.584  19.750  0.00  0.00    +0.000 A 
ATOM     18  C   UNL     1      -3.596  11.848  18.973  0.00  0.00    +0.000 A 
ATOM     19  N   UNL     1      -2.246  11.947  19.147  0.00  0.00    +0.000 NA
ENDBRANCH   9  10
ENDBRANCH   8   9
ENDBRANCH   5   8
ENDBRANCH   1   2
BRANCH   1  20
ATOM     20  C   UNL     1       5.154   6.646  17.148  0.00  0.00    +0.000 C 
BRANCH  20  21
ATOM     21  O   UNL     1       6.038   5.626  16.628  0.00  0.00    +0.000 OA
BRANCH  21  22
ATOM     22  C   UNL     1       5.308   4.693  15.812  0.00  0.00    +0.000 C 
BRANCH  22  26
ATOM     23  C   UNL     1       7.133   4.052  11.932  0.00  0.00    +0.000 A 
ATOM     24  C   UNL     1       7.730   4.908  12.857  0.00  0.00    +0.000 A 
ATOM     25  C   UNL     1       7.123   5.119  14.102  0.00  0.00    +0.000 A 
ATOM     26  C   UNL     1       5.904   4.496  14.434  0.00  0.00    +0.000 A 
ATOM     27  C   UNL     1       5.334   3.621  13.499  0.00  0.00    +0.000 A 
ATOM     28  C   UNL     1       5.942   3.405  12.257  0.00  0.00    +0.000 A 
ENDBRANCH  22  26
ENDBRANCH  21  22
ENDBRANCH  20  21
ENDBRANCH   1  20
BRANCH   1  29
ATOM     29  O   UNL     1       4.631   5.534  19.237  0.00  0.00    +0.000 OA
BRANCH  29  30
ATOM     30  C   UNL     1       4.640   4.108  19.289  0.00  0.00    +0.000 C 
BRANCH  30  31
ATOM     31  C   UNL     1       3.235   3.591  19.447  0.00  0.00    +0.000 A 
ATOM     32  C   UNL     1       2.547   3.760  20.660  0.00  0.00    +0.000 A 
ATOM     33  C   UNL     1       1.242   3.288  20.807  0.00  0.00    +0.000 A 
ATOM     34  C   UNL     1       0.614   2.639  19.747  0.00  0.00    +0.000 A 
ATOM     35  C   UNL     1       1.287   2.466  18.538  0.00  0.00    +0.000 A 
ATOM     36  C   UNL     1       2.592   2.940  18.388  0.00  0.00    +0.000 A 
ENDBRANCH  30  31
ENDBRANCH  29  30
ENDBRANCH   1  29
TORSDOF 11
ENDMDL
MODEL 2
REMARK VINA RESULT:      -9.2      1.693      5.511
REMARK  Name = 
REMARK  11 active torsions:
REMARK  status: ('A' for Active; 'I' for Inactive)
REMARK    1  A    between atoms: C_4  and  C_5
REMARK    2  A    between atoms: C_5  and  O_6
REMARK    3  A    between atoms: O_6  and  C_7
REMARK    4  A    between atoms: C_7  and  C_8
REMARK    5  A    between atoms: C_8  and  O_9
REMARK    6  A    between atoms: C_8  and  C_17
REMARK    7  A    between atoms: O_9  and  C_10
REMARK    8  A    between atoms: C_10  and  C_11
REMARK    9  A    between atoms: C_20  and  O_21
REMARK   10  A    between atoms: O_21  and  C_22
REMARK   11  A    between atoms: C_22  and  C_23
REMARK                            x       y       z     vdW  Elec       q    Type
REMARK                         _______ _______ _______ _____ _____    ______ ____
ROOT
ATOM      1  C   UNL     1       5.238   5.380  17.748  0.00  0.00    +0.000 C 
ENDROOT
BRANCH   1   2
ATOM      2  C   UNL     1       4.035   6.235  18.180  0.00  0.00    +0.000 A 
ATOM      3  C   UNL     1       3.338   5.927  19.365  0.00  0.00    +0.000 A 
ATOM      4  C   UNL     1       2.363   6.792  19.902  0.00  0.00    +0.000 A 
ATOM      5  C   UNL     1       2.038   7.979  19.251  0.00  0.00    +0.000 A 
ATOM      6  C   UNL     1       2.661   8.253  18.029  0.00  0.00    +0.000 A 
ATOM      7  C   UNL     1       3.660   7.408  17.509  0.00  0.00    +0.000 A 
BRANCH   5   8
ATOM      8  O   UNL     1       1.151   8.927  19.696  0.00  0.00    +0.000 OA
BRANCH   8   9
ATOM      9  C   UNL     1       0.549   9.803  18.720  0.00  0.00    +0.000 C 
BRANCH   9  10
ATOM     10  C   UNL     1      -0.504  10.729  19.334  0.00  0.00    +0.000 A 
ATOM     11  C   UNL     1      -1.509  11.276  18.545  0.00  0.00    +0.000 A 
ATOM     12  C   UNL     1      -2.439  12.131  19.124  0.00  0.00    +0.000 A 
ATOM     13  C   UNL     1      -2.430  12.346  20.502  0.00  0.00    +0.000 A 
ATOM     14  C   UNL     1      -3.428  13.131  21.116  0.00  0.00    +0.000 A 
ATOM     15  C   UNL     1      -3.501  13.232  22.497  0.00  0.00    +0.000 A 
ATOM     16  C   UNL     1      -2.543  12.586  23.271  0.00  0.00    +0.000 A 
ATOM     17  C   UNL     1      -1.511  11.861  22.651  0.00  0.00    +0.000 A 
ATOM     18  C   UNL     1      -1.434  11.709  21.267  0.00  0.00    +0.000 A 
ATOM     19  N   UNL     1      -0.467  10.942  20.684  0.00  0.00    +0.000 NA
ENDBRANCH   9  10
ENDBRANCH   8   9
ENDBRANCH   5   8
ENDBRANCH   1   2
BRANCH   1  20
ATOM     20  C   UNL     1       5.090   3.867  18.092  0.00  0.00    +0.000 C 
BRANCH  20  21
ATOM     21  O   UNL     1       4.161   3.178  17.223  0.00  0.00    +0.000 OA
BRANCH  21  22
ATOM     22  C   UNL     1       3.598   2.034  17.891  0.00  0.00    +0.000 C 
BRANCH  22  26
ATOM     23  C   UNL     1       1.262   3.179  21.358  0.00  0.00    +0.000 A 
ATOM     24  C   UNL     1       2.584   2.761  21.509  0.00  0.00    +0.000 A 
ATOM     25  C   UNL     1       3.324   2.380  20.382  0.00  0.00    +0.000 A 
ATOM     26  C   UNL     1       2.752   2.390  19.095  0.00  0.00    +0.000 A 
ATOM     27  C   UNL     1       1.430   2.836  18.965  0.00  0.00    +0.000 A 
ATOM     28  C   UNL     1       0.690   3.223  20.088  0.00  0.00    +0.000 A 
ENDBRANCH  22  26
ENDBRANCH  21  22
ENDBRANCH  20  21
ENDBRANCH   1  20
BRANCH   1  29
ATOM     29  O   UNL     1       5.412   5.487  16.318  0.00  0.00    +0.000 OA
BRANCH  29  30
ATOM     30  C   UNL     1       6.757   5.285  15.885  0.00  0.00    +0.000 C 
BRANCH  30  31
ATOM     31  C   UNL     1       6.770   4.797  14.461  0.00  0.00    +0.000 A 
ATOM     32  C   UNL     1       5.868   3.807  14.039  0.00  0.00    +0.000 A 
ATOM     33  C   UNL     1       5.874   3.357  12.719  0.00  0.00    +0.000 A 
ATOM     34  C   UNL     1       6.783   3.889  11.807  0.00  0.00    +0.000 A 
ATOM     35  C   UNL     1       7.683   4.873  12.214  0.00  0.00    +0.000 A 
ATOM     36  C   UNL     1       7.677   5.326  13.535  0.00  0.00    +0.000 A 
ENDBRANCH  30  31
ENDBRANCH  29  30
ENDBRANCH   1  29
TORSDOF 11
ENDMDL
MODEL 3
REMARK VINA RESULT:      -9.0      0.258      1.164
REMARK  Name = 
REMARK  11 active torsions:
REMARK  status: ('A' for Active; 'I' for Inactive)
REMARK    1  A    between atoms: C_4  and  C_5
REMARK    2  A    between atoms: C_5  and  O_6
REMARK    3  A    between atoms: O_6  and  C_7
REMARK    4  A    between atoms: C_7  and  C_8
REMARK    5  A    between atoms: C_8  and  O_9
REMARK    6  A    between atoms: C_8  and  C_17
REMARK    7  A    between atoms: O_9  and  C_10
REMARK    8  A    between atoms: C_10  and  C_11
REMARK    9  A    between atoms: C_20  and  O_21
REMARK   10  A    between atoms: O_21  and  C_22
REMARK   11  A    between atoms: C_22  and  C_23
REMARK                            x       y       z     vdW  Elec       q    Type
REMARK                         _______ _______ _______ _____ _____    ______ ____
ROOT
ATOM      1  C   UNL     1       3.696   5.973  18.063  0.00  0.00    +0.000 C 
ENDROOT
BRANCH   1   2
ATOM      2  C   UNL     1       2.742   7.112  18.466  0.00  0.00    +0.000 A 
ATOM      3  C   UNL     1       2.203   7.154  19.768  0.00  0.00    +0.000 A 
ATOM      4  C   UNL     1       1.490   8.274  20.241  0.00  0.00    +0.000 A 
ATOM      5  C   UNL     1       1.272   9.373  19.415  0.00  0.00    +0.000 A 
ATOM      6  C   UNL     1       1.727   9.305  18.094  0.00  0.00    +0.000 A 
ATOM      7  C   UNL     1       2.469   8.203  17.630  0.00  0.00    +0.000 A 
BRANCH   5   8
ATOM      8  O   UNL     1       0.643  10.540  19.771  0.00  0.00    +0.000 OA
BRANCH   8   9
ATOM      9  C   UNL     1       0.193  11.417  18.718  0.00  0.00    +0.000 C 
BRANCH   9  10
ATOM     10  C   UNL     1      -1.303  11.270  18.432  0.00  0.00    +0.000 A 
ATOM     11  C   UNL     1      -1.757  10.342  17.502  0.00  0.00    +0.000 A 
ATOM     12  C   UNL     1      -3.119  10.246  17.246  0.00  0.00    +0.000 A 
ATOM     13  C   UNL     1      -4.027  10.992  17.996  0.00  0.00    +0.000 A 
ATOM     14  C   UNL     1      -5.417  10.830  17.815  0.00  0.00    +0.000 A 
ATOM     15  C   UNL     1      -6.320  11.467  18.654  0.00  0.00    +0.000 A 
ATOM     16  C   UNL     1      -5.836  12.309  19.648  0.00  0.00    +0.000 A 
ATOM     17  C   UNL     1      -4.453  12.520  19.779  0.00  0.00    +0.000 A 
ATOM     18  C   UNL     1      -3.519  11.864  18.978  0.00  0.00    +0.000 A 
ATOM     19  N   UNL     1      -2.177  12.024  19.166  0.00  0.00    +0.000 NA
ENDBRANCH   9  10
ENDBRANCH   8   9
ENDBRANCH   5   8
ENDBRANCH   1   2
BRANCH   1  20
ATOM     20  C   UNL     1       4.575   6.301  16.818  0.00  0.00    +0.000 C 
BRANCH  20  21
ATOM     21  O   UNL     1       5.780   5.503  16.751  0.00  0.00    +0.000 OA
BRANCH  21  22
ATOM     22  C   UNL     1       5.538   4.282  16.029  0.00  0.00    +0.000 C 
BRANCH  22  26
ATOM     23  C   UNL     1       7.142   4.312  12.002  0.00  0.00    +0.000 A 
ATOM     24  C   UNL     1       6.045   3.509  12.316  0.00  0.00    +0.000 A 
ATOM     25  C   UNL     1       5.546   3.497  13.624  0.00  0.00    +0.000 A 
ATOM     26  C   UNL     1       6.143   4.267  14.641  0.00  0.00    +0.000 A 
ATOM     27  C   UNL     1       7.228   5.085  14.298  0.00  0.00    +0.000 A 
ATOM     28  C   UNL     1       7.726   5.103  12.990  0.00  0.00    +0.000 A 
ENDBRANCH  22  26
ENDBRANCH  21  22
ENDBRANCH  20  21
ENDBRANCH   1  20
BRANCH   1  29
ATOM     29  O   UNL     1       4.587   5.685  19.162  0.00  0.00    +0.000 OA
BRANCH  29  30
ATOM     30  C   UNL     1       4.644   4.302  19.508  0.00  0.00    +0.000 C 
BRANCH  30  31
ATOM     31  C   UNL     1       3.257   3.715  19.507  0.00  0.00    +0.000 A 
ATOM     32  C   UNL     1       2.770   3.043  18.375  0.00  0.00    +0.000 A 
ATOM     33  C   UNL     1       1.488   2.493  18.373  0.00  0.00    +0.000 A 
ATOM     34  C   UNL     1       0.679   2.611  19.502  0.00  0.00    +0.000 A 
ATOM     35  C   UNL     1       1.153   3.276  20.632  0.00  0.00    +0.000 A 
ATOM     36  C   UNL     1       2.436   3.825  20.636  0.00  0.00    +0.000 A 
ENDBRANCH  30  31
ENDBRANCH  29  30
ENDBRANCH   1  29
TORSDOF 11
ENDMDL
MODEL 4
REMARK VINA RESULT:      -8.9      0.857      1.478
REMARK  Name = 
REMARK  11 active torsions:
REMARK  status: ('A' for Active; 'I' for Inactive)
REMARK    1  A    between atoms: C_4  and  C_5
REMARK    2  A    between atoms: C_5  and  O_6
REMARK    3  A    between atoms: O_6  and  C_7
REMARK    4  A    between atoms: C_7  and  C_8
REMARK    5  A    between atoms: C_8  and  O_9
REMARK    6  A    between atoms: C_8  and  C_17
REMARK    7  A    between atoms: O_9  and  C_10
REMARK    8  A    between atoms: C_10  and  C_11
REMARK    9  A    between atoms: C_20  and  O_21
REMARK   10  A    between atoms: O_21  and  C_22
REMARK   11  A    between atoms: C_22  and  C_23
REMARK                            x       y       z     vdW  Elec       q    Type
REMARK                         _______ _______ _______ _____ _____    ______ ____
ROOT
ATOM      1  C   UNL     1       3.921   6.071  17.308  0.00  0.00    +0.000 C 
ENDROOT
BRANCH   1   2
ATOM      2  C   UNL     1       3.135   7.131  18.098  0.00  0.00    +0.000 A 
ATOM      3  C   UNL     1       2.729   8.325  17.467  0.00  0.00    +0.000 A 
ATOM      4  C   UNL     1       1.843   9.230  18.087  0.00  0.00    +0.000 A 
ATOM      5  C   UNL     1       1.360   8.979  19.369  0.00  0.00    +0.000 A 
ATOM      6  C   UNL     1       1.825   7.841  20.037  0.00  0.00    +0.000 A 
ATOM      7  C   UNL     1       2.681   6.919  19.407  0.00  0.00    +0.000 A 
BRANCH   5   8
ATOM      8  O   UNL     1       0.456   9.749  20.057  0.00  0.00    +0.000 OA
BRANCH   8   9
ATOM      9  C   UNL     1       0.141  11.055  19.533  0.00  0.00    +0.000 C 
BRANCH   9  10
ATOM     10  C   UNL     1      -1.260  11.119  18.921  0.00  0.00    +0.000 A 
ATOM     11  C   UNL     1      -1.577  10.357  17.801  0.00  0.00    +0.000 A 
ATOM     12  C   UNL     1      -2.849  10.451  17.252  0.00  0.00    +0.000 A 
ATOM     13  C   UNL     1      -3.831  11.213  17.886  0.00  0.00    +0.000 A 
ATOM     14  C   UNL     1      -5.153  11.237  17.395  0.00  0.00    +0.000 A 
ATOM     15  C   UNL     1      -6.159  11.880  18.101  0.00  0.00    +0.000 A 
ATOM     16  C   UNL     1      -5.836  12.546  19.277  0.00  0.00    +0.000 A 
ATOM     17  C   UNL     1      -4.505  12.577  19.724  0.00  0.00    +0.000 A 
ATOM     18  C   UNL     1      -3.479  11.906  19.059  0.00  0.00    +0.000 A 
ATOM     19  N   UNL     1      -2.204  11.886  19.546  0.00  0.00    +0.000 NA
ENDBRANCH   9  10
ENDBRANCH   8   9
ENDBRANCH   5   8
ENDBRANCH   1   2
BRANCH   1  20
ATOM     20  C   UNL     1       5.360   5.820  17.852  0.00  0.00    +0.000 C 
BRANCH  20  21
ATOM     21  O   UNL     1       6.376   5.912  16.826  0.00  0.00    +0.000 OA
BRANCH  21  22
ATOM     22  C   UNL     1       6.760   4.601  16.377  0.00  0.00    +0.000 C 
BRANCH  22  26
ATOM     23  C   UNL     1       6.926   4.329  12.053  0.00  0.00    +0.000 A 
ATOM     24  C   UNL     1       6.024   3.546  12.773  0.00  0.00    +0.000 A 
ATOM     25  C   UNL     1       5.990   3.632  14.170  0.00  0.00    +0.000 A 
ATOM     26  C   UNL     1       6.867   4.483  14.870  0.00  0.00    +0.000 A 
ATOM     27  C   UNL     1       7.749   5.278  14.127  0.00  0.00    +0.000 A 
ATOM     28  C   UNL     1       7.781   5.198  12.730  0.00  0.00    +0.000 A 
ENDBRANCH  22  26
ENDBRANCH  21  22
ENDBRANCH  20  21
ENDBRANCH   1  20
BRANCH   1  29
ATOM     29  O   UNL     1       3.211   4.814  17.358  0.00  0.00    +0.000 OA
BRANCH  29  30
ATOM     30  C   UNL     1       3.850   3.824  18.163  0.00  0.00    +0.000 C 
BRANCH  30  31
ATOM     31  C   UNL     1       2.949   3.430  19.304  0.00  0.00    +0.000 A 
ATOM     32  C   UNL     1       3.490   2.915  20.493  0.00  0.00    +0.000 A 
ATOM     33  C   UNL     1       2.657   2.554  21.553  0.00  0.00    +0.000 A 
ATOM     34  C   UNL     1       1.277   2.702  21.435  0.00  0.00    +0.000 A 
ATOM     35  C   UNL     1       0.729   3.214  20.259  0.00  0.00    +0.000 A 
ATOM     36  C   UNL     1       1.561   3.577  19.198  0.00  0.00    +0.000 A 
ENDBRANCH  30  31
ENDBRANCH  29  30
ENDBRANCH   1  29
TORSDOF 11
ENDMDL
MODEL 5
REMARK VINA RESULT:      -8.8      1.196      5.335
REMARK  Name = 
REMARK  11 active torsions:
REMARK  status: ('A' for Active; 'I' for Inactive)
REMARK    1  A    between atoms: C_4  and  C_5
REMARK    2  A    between atoms: C_5  and  O_6
REMARK    3  A    between atoms: O_6  and  C_7
REMARK    4  A    between atoms: C_7  and  C_8
REMARK    5  A    between atoms: C_8  and  O_9
REMARK    6  A    between atoms: C_8  and  C_17
REMARK    7  A    between atoms: O_9  and  C_10
REMARK    8  A    between atoms: C_10  and  C_11
REMARK    9  A    between atoms: C_20  and  O_21
REMARK   10  A    between atoms: O_21  and  C_22
REMARK   11  A    between atoms: C_22  and  C_23
REMARK                            x       y       z     vdW  Elec       q    Type
REMARK                         _______ _______ _______ _____ _____    ______ ____
ROOT
ATOM      1  C   UNL     1       4.921   5.045  17.647  0.00  0.00    +0.000 C 
ENDROOT
BRANCH   1   2
ATOM      2  C   UNL     1       3.841   6.050  18.082  0.00  0.00    +0.000 A 
ATOM      3  C   UNL     1       3.080   5.812  19.245  0.00  0.00    +0.000 A 
ATOM      4  C   UNL     1       2.225   6.792  19.788  0.00  0.00    +0.000 A 
ATOM      5  C   UNL     1       2.085   8.030  19.166  0.00  0.00    +0.000 A 
ATOM      6  C   UNL     1       2.768   8.245  17.964  0.00  0.00    +0.000 A 
ATOM      7  C   UNL     1       3.649   7.281  17.439  0.00  0.00    +0.000 A 
BRANCH   5   8
ATOM      8  O   UNL     1       1.330   9.082  19.621  0.00  0.00    +0.000 OA
BRANCH   8   9
ATOM      9  C   UNL     1       1.142  10.211  18.744  0.00  0.00    +0.000 C 
BRANCH   9  10
ATOM     10  C   UNL     1      -0.330  10.606  18.604  0.00  0.00    +0.000 A 
ATOM     11  C   UNL     1      -1.127  10.025  17.624  0.00  0.00    +0.000 A 
ATOM     12  C   UNL     1      -2.454  10.418  17.504  0.00  0.00    +0.000 A 
ATOM     13  C   UNL     1      -3.009  11.301  18.431  0.00  0.00    +0.000 A 
ATOM     14  C   UNL     1      -4.379  11.631  18.380  0.00  0.00    +0.000 A 
ATOM     15  C   UNL     1      -4.961  12.396  19.380  0.00  0.00    +0.000 A 
ATOM     16  C   UNL     1      -4.162  12.877  20.411  0.00  0.00    +0.000 A 
ATOM     17  C   UNL     1      -2.784  12.602  20.418  0.00  0.00    +0.000 A 
ATOM     18  C   UNL     1      -2.178  11.803  19.449  0.00  0.00    +0.000 A 
ATOM     19  N   UNL     1      -0.851  11.486  19.511  0.00  0.00    +0.000 NA
ENDBRANCH   9  10
ENDBRANCH   8   9
ENDBRANCH   5   8
ENDBRANCH   1   2
BRANCH   1  20
ATOM     20  C   UNL     1       4.803   3.655  18.344  0.00  0.00    +0.000 C 
BRANCH  20  21
ATOM     21  O   UNL     1       4.266   2.631  17.475  0.00  0.00    +0.000 OA
BRANCH  21  22
ATOM     22  C   UNL     1       3.572   1.631  18.242  0.00  0.00    +0.000 C 
BRANCH  22  26
ATOM     23  C   UNL     1       1.089   3.142  21.459  0.00  0.00    +0.000 A 
ATOM     24  C   UNL     1       0.587   3.066  20.159  0.00  0.00    +0.000 A 
ATOM     25  C   UNL     1       1.404   2.590  19.126  0.00  0.00    +0.000 A 
ATOM     26  C   UNL     1       2.736   2.202  19.368  0.00  0.00    +0.000 A 
ATOM     27  C   UNL     1       3.212   2.264  20.685  0.00  0.00    +0.000 A 
ATOM     28  C   UNL     1       2.396   2.734  21.720  0.00  0.00    +0.000 A 
ENDBRANCH  22  26
ENDBRANCH  21  22
ENDBRANCH  20  21
ENDBRANCH   1  20
BRANCH   1  29
ATOM     29  O   UNL     1       4.826   4.828  16.223  0.00  0.00    +0.000 OA
BRANCH  29  30
ATOM     30  C   UNL     1       5.787   5.563  15.464  0.00  0.00    +0.000 C 
BRANCH  30  31
ATOM     31  C   UNL     1       6.081   4.843  14.174  0.00  0.00    +0.000 A 
ATOM     32  C   UNL     1       5.136   3.969  13.615  0.00  0.00    +0.000 A 
ATOM     33  C   UNL     1       5.403   3.305  12.418  0.00  0.00    +0.000 A 
ATOM     34  C   UNL     1       6.619   3.507  11.768  0.00  0.00    +0.000 A 
ATOM     35  C   UNL     1       7.566   4.374  12.313  0.00  0.00    +0.000 A 
ATOM     36  C   UNL     1       7.298   5.040  13.511  0.00  0.00    +0.000 A 
ENDBRANCH  30  31
ENDBRANCH  29  30
ENDBRANCH   1  29
TORSDOF 11
ENDMDL
MODEL 6
REMARK VINA RESULT:      -8.8      2.705      5.914
REMARK  Name = 
REMARK  11 active torsions:
REMARK  status: ('A' for Active; 'I' for Inactive)
REMARK    1  A    between atoms: C_4  and  C_5
REMARK    2  A    between atoms: C_5  and  O_6
REMARK    3  A    between atoms: O_6  and  C_7
REMARK    4  A    between atoms: C_7  and  C_8
REMARK    5  A    between atoms: C_8  and  O_9
REMARK    6  A    between atoms: C_8  and  C_17
REMARK    7  A    between atoms: O_9  and  C_10
REMARK    8  A    between atoms: C_10  and  C_11
REMARK    9  A    between atoms: C_20  and  O_21
REMARK   10  A    between atoms: O_21  and  C_22
REMARK   11  A    between atoms: C_22  and  C_23
REMARK                            x       y       z     vdW  Elec       q    Type
REMARK                         _______ _______ _______ _____ _____    ______ ____
ROOT
ATOM      1  C   UNL     1       5.544   4.798  17.887  0.00  0.00    +0.000 C 
ENDROOT
BRANCH   1   2
ATOM      2  C   UNL     1       4.397   5.812  17.732  0.00  0.00    +0.000 A 
ATOM      3  C   UNL     1       3.083   5.453  18.095  0.00  0.00    +0.000 A 
ATOM      4  C   UNL     1       2.043   6.402  18.158  0.00  0.00    +0.000 A 
ATOM      5  C   UNL     1       2.282   7.735  17.834  0.00  0.00    +0.000 A 
ATOM      6  C   UNL     1       3.562   8.085  17.389  0.00  0.00    +0.000 A 
ATOM      7  C   UNL     1       4.610   7.146  17.358  0.00  0.00    +0.000 A 
BRANCH   5   8
ATOM      8  O   UNL     1       1.374   8.760  17.907  0.00  0.00    +0.000 OA
BRANCH   8   9
ATOM      9  C   UNL     1       1.878  10.107  18.016  0.00  0.00    +0.000 C 
BRANCH   9  10
ATOM     10  C   UNL     1       1.138  10.926  19.076  0.00  0.00    +0.000 A 
ATOM     11  C   UNL     1       0.826  12.261  18.846  0.00  0.00    +0.000 A 
ATOM     12  C   UNL     1       0.173  12.988  19.835  0.00  0.00    +0.000 A 
ATOM     13  C   UNL     1      -0.263  12.352  20.997  0.00  0.00    +0.000 A 
ATOM     14  C   UNL     1      -1.014  13.054  21.963  0.00  0.00    +0.000 A 
ATOM     15  C   UNL     1      -1.566  12.392  23.050  0.00  0.00    +0.000 A 
ATOM     16  C   UNL     1      -1.327  11.031  23.201  0.00  0.00    +0.000 A 
ATOM     17  C   UNL     1      -0.521  10.352  22.272  0.00  0.00    +0.000 A 
ATOM     18  C   UNL     1       0.014  10.981  21.149  0.00  0.00    +0.000 A 
ATOM     19  N   UNL     1       0.735  10.290  20.217  0.00  0.00    +0.000 NA
ENDBRANCH   9  10
ENDBRANCH   8   9
ENDBRANCH   5   8
ENDBRANCH   1   2
BRANCH   1  20
ATOM     20  C   UNL     1       5.077   3.387  18.354  0.00  0.00    +0.000 C 
BRANCH  20  21
ATOM     21  O   UNL     1       5.342   3.138  19.754  0.00  0.00    +0.000 OA
BRANCH  21  22
ATOM     22  C   UNL     1       4.443   2.140  20.270  0.00  0.00    +0.000 C 
BRANCH  22  26
ATOM     23  C   UNL     1       0.299   3.301  19.742  0.00  0.00    +0.000 A 
ATOM     24  C   UNL     1       1.050   3.830  20.792  0.00  0.00    +0.000 A 
ATOM     25  C   UNL     1       2.383   3.436  20.961  0.00  0.00    +0.000 A 
ATOM     26  C   UNL     1       2.980   2.496  20.100  0.00  0.00    +0.000 A 
ATOM     27  C   UNL     1       2.216   1.995  19.037  0.00  0.00    +0.000 A 
ATOM     28  C   UNL     1       0.885   2.391  18.863  0.00  0.00    +0.000 A 
ENDBRANCH  22  26
ENDBRANCH  21  22
ENDBRANCH  20  21
ENDBRANCH   1  20
BRANCH   1  29
ATOM     29  O   UNL     1       6.213   4.638  16.617  0.00  0.00    +0.000 OA
BRANCH  29  30
ATOM     30  C   UNL     1       5.371   4.131  15.583  0.00  0.00    +0.000 C 
BRANCH  30  31
ATOM     31  C   UNL     1       6.078   4.218  14.256  0.00  0.00    +0.000 A 
ATOM     32  C   UNL     1       7.158   5.098  14.082  0.00  0.00    +0.000 A 
ATOM     33  C   UNL     1       7.818   5.177  12.856  0.00  0.00    +0.000 A 
ATOM     34  C   UNL     1       7.405   4.380  11.790  0.00  0.00    +0.000 A 
ATOM     35  C   UNL     1       6.334   3.501  11.952  0.00  0.00    +0.000 A 
ATOM     36  C   UNL     1       5.673   3.420  13.179  0.00  0.00    +0.000 A 
ENDBRANCH  30  31
ENDBRANCH  29  30
ENDBRANCH   1  29
TORSDOF 11
ENDMDL
MODEL 7
REMARK VINA RESULT:      -8.8      5.716      9.811
REMARK  Name = 
REMARK  11 active torsions:
REMARK  status: ('A' for Active; 'I' for Inactive)
REMARK    1  A    between atoms: C_4  and  C_5
REMARK    2  A    between atoms: C_5  and  O_6
REMARK    3  A    between atoms: O_6  and  C_7
REMARK    4  A    between atoms: C_7  and  C_8
REMARK    5  A    between atoms: C_8  and  O_9
REMARK    6  A    between atoms: C_8  and  C_17
REMARK    7  A    between atoms: O_9  and  C_10
REMARK    8  A    between atoms: C_10  and  C_11
REMARK    9  A    between atoms: C_20  and  O_21
REMARK   10  A    between atoms: O_21  and  C_22
REMARK   11  A    between atoms: C_22  and  C_23
REMARK                            x       y       z     vdW  Elec       q    Type
REMARK                         _______ _______ _______ _____ _____    ______ ____
ROOT
ATOM      1  C   UNL     1       7.170   4.779  18.065  0.00  0.00    +0.000 C 
ENDROOT
BRANCH   1   2
ATOM      2  C   UNL     1       7.414   6.296  18.144  0.00  0.00    +0.000 A 
ATOM      3  C   UNL     1       8.346   6.814  19.065  0.00  0.00    +0.000 A 
ATOM      4  C   UNL     1       8.746   8.165  19.038  0.00  0.00    +0.000 A 
ATOM      5  C   UNL     1       8.203   9.044  18.105  0.00  0.00    +0.000 A 
ATOM      6  C   UNL     1       7.212   8.560  17.243  0.00  0.00    +0.000 A 
ATOM      7  C   UNL     1       6.837   7.203  17.246  0.00  0.00    +0.000 A 
BRANCH   5   8
ATOM      8  O   UNL     1       8.546  10.362  17.941  0.00  0.00    +0.000 OA
BRANCH   8   9
ATOM      9  C   UNL     1       9.600  10.897  18.767  0.00  0.00    +0.000 C 
BRANCH   9  10
ATOM     10  C   UNL     1      10.092  12.261  18.280  0.00  0.00    +0.000 A 
ATOM     11  C   UNL     1      11.155  12.352  17.388  0.00  0.00    +0.000 A 
ATOM     12  C   UNL     1      11.596  13.604  16.979  0.00  0.00    +0.000 A 
ATOM     13  C   UNL     1      10.906  14.752  17.370  0.00  0.00    +0.000 A 
ATOM     14  C   UNL     1      11.282  16.020  16.882  0.00  0.00    +0.000 A 
ATOM     15  C   UNL     1      10.515  17.142  17.159  0.00  0.00    +0.000 A 
ATOM     16  C   UNL     1       9.393  17.007  17.968  0.00  0.00    +0.000 A 
ATOM     17  C   UNL     1       9.062  15.752  18.507  0.00  0.00    +0.000 A 
ATOM     18  C   UNL     1       9.791  14.600  18.215  0.00  0.00    +0.000 A 
ATOM     19  N   UNL     1       9.414  13.376  18.689  0.00  0.00    +0.000 NA
ENDBRANCH   9  10
ENDBRANCH   8   9
ENDBRANCH   5   8
ENDBRANCH   1   2
BRANCH   1  20
ATOM     20  C   UNL     1       5.735   4.349  18.498  0.00  0.00    +0.000 C 
BRANCH  20  21
ATOM     21  O   UNL     1       5.095   5.312  19.368  0.00  0.00    +0.000 OA
BRANCH  21  22
ATOM     22  C   UNL     1       3.796   5.665  18.860  0.00  0.00    +0.000 C 
BRANCH  22  26
ATOM     23  C   UNL     1       0.621   2.872  19.813  0.00  0.00    +0.000 A 
ATOM     24  C   UNL     1       1.192   3.656  20.816  0.00  0.00    +0.000 A 
ATOM     25  C   UNL     1       2.227   4.544  20.498  0.00  0.00    +0.000 A 
ATOM     26  C   UNL     1       2.721   4.649  19.183  0.00  0.00    +0.000 A 
ATOM     27  C   UNL     1       2.116   3.870  18.187  0.00  0.00    +0.000 A 
ATOM     28  C   UNL     1       1.078   2.985  18.501  0.00  0.00    +0.000 A 
ENDBRANCH  22  26
ENDBRANCH  21  22
ENDBRANCH  20  21
ENDBRANCH   1  20
BRANCH   1  29
ATOM     29  O   UNL     1       7.366   4.334  16.705  0.00  0.00    +0.000 OA
BRANCH  29  30
ATOM     30  C   UNL     1       6.163   4.278  15.939  0.00  0.00    +0.000 C 
BRANCH  30  31
ATOM     31  C   UNL     1       6.490   4.284  14.469  0.00  0.00    +0.000 A 
ATOM     32  C   UNL     1       7.474   5.147  13.962  0.00  0.00    +0.000 A 
ATOM     33  C   UNL     1       7.783   5.151  12.602  0.00  0.00    +0.000 A 
ATOM     34  C   UNL     1       7.110   4.294  11.734  0.00  0.00    +0.000 A 
ATOM     35  C   UNL     1       6.131   3.431  12.226  0.00  0.00    +0.000 A 
ATOM     36  C   UNL     1       5.822   3.425  13.587  0.00  0.00    +0.000 A 
ENDBRANCH  30  31
ENDBRANCH  29  30
ENDBRANCH   1  29
TORSDOF 11
ENDMDL
MODEL 8
REMARK VINA RESULT:      -8.8      1.068      5.202
REMARK  Name = 
REMARK  11 active torsions:
REMARK  status: ('A' for Active; 'I' for Inactive)
REMARK    1  A    between atoms: C_4  and  C_5
REMARK    2  A    between atoms: C_5  and  O_6
REMARK    3  A    between atoms: O_6  and  C_7
REMARK    4  A    between atoms: C_7  and  C_8
REMARK    5  A    between atoms: C_8  and  O_9
REMARK    6  A    between atoms: C_8  and  C_17
REMARK    7  A    between atoms: O_9  and  C_10
REMARK    8  A    between atoms: C_10  and  C_11
REMARK    9  A    between atoms: C_20  and  O_21
REMARK   10  A    between atoms: O_21  and  C_22
REMARK   11  A    between atoms: C_22  and  C_23
REMARK                            x       y       z     vdW  Elec       q    Type
REMARK                         _______ _______ _______ _____ _____    ______ ____
ROOT
ATOM      1  C   UNL     1       4.363   5.296  17.457  0.00  0.00    +0.000 C 
ENDROOT
BRANCH   1   2
ATOM      2  C   UNL     1       3.578   6.423  18.150  0.00  0.00    +0.000 A 
ATOM      3  C   UNL     1       3.338   7.636  17.474  0.00  0.00    +0.000 A 
ATOM      4  C   UNL     1       2.463   8.613  17.989  0.00  0.00    +0.000 A 
ATOM      5  C   UNL     1       1.823   8.416  19.209  0.00  0.00    +0.000 A 
ATOM      6  C   UNL     1       2.121   7.254  19.930  0.00  0.00    +0.000 A 
ATOM      7  C   UNL     1       2.968   6.262  19.402  0.00  0.00    +0.000 A 
BRANCH   5   8
ATOM      8  O   UNL     1       0.911   9.262  19.790  0.00  0.00    +0.000 OA
BRANCH   8   9
ATOM      9  C   UNL     1       0.688  10.546  19.173  0.00  0.00    +0.000 C 
BRANCH   9  10
ATOM     10  C   UNL     1      -0.734  10.695  18.627  0.00  0.00    +0.000 A 
ATOM     11  C   UNL     1      -1.154   9.942  17.537  0.00  0.00    +0.000 A 
ATOM     12  C   UNL     1      -2.443  10.114  17.047  0.00  0.00    +0.000 A 
ATOM     13  C   UNL     1      -3.340  10.949  17.714  0.00  0.00    +0.000 A 
ATOM     14  C   UNL     1      -4.680  11.055  17.286  0.00  0.00    +0.000 A 
ATOM     15  C   UNL     1      -5.605  11.774  18.028  0.00  0.00    +0.000 A 
ATOM     16  C   UNL     1      -5.181  12.433  19.176  0.00  0.00    +0.000 A 
ATOM     17  C   UNL     1      -3.830  12.380  19.559  0.00  0.00    +0.000 A 
ATOM     18  C   UNL     1      -2.885  11.633  18.857  0.00  0.00    +0.000 A 
ATOM     19  N   UNL     1      -1.592  11.533  19.283  0.00  0.00    +0.000 NA
ENDBRANCH   9  10
ENDBRANCH   8   9
ENDBRANCH   5   8
ENDBRANCH   1   2
BRANCH   1  20
ATOM     20  C   UNL     1       3.491   4.055  17.094  0.00  0.00    +0.000 C 
BRANCH  20  21
ATOM     21  O   UNL     1       4.238   2.815  17.111  0.00  0.00    +0.000 OA
BRANCH  21  22
ATOM     22  C   UNL     1       4.341   2.307  18.453  0.00  0.00    +0.000 C 
BRANCH  22  26
ATOM     23  C   UNL     1       0.861   3.070  20.923  0.00  0.00    +0.000 A 
ATOM     24  C   UNL     1       0.708   2.713  19.583  0.00  0.00    +0.000 A 
ATOM     25  C   UNL     1       1.840   2.484  18.792  0.00  0.00    +0.000 A 
ATOM     26  C   UNL     1       3.139   2.626  19.318  0.00  0.00    +0.000 A 
ATOM     27  C   UNL     1       3.270   2.962  20.672  0.00  0.00    +0.000 A 
ATOM     28  C   UNL     1       2.140   3.186  21.466  0.00  0.00    +0.000 A 
ENDBRANCH  22  26
ENDBRANCH  21  22
ENDBRANCH  20  21
ENDBRANCH   1  20
BRANCH   1  29
ATOM     29  O   UNL     1       4.938   5.798  16.231  0.00  0.00    +0.000 OA
BRANCH  29  30
ATOM     30  C   UNL     1       6.301   5.422  16.040  0.00  0.00    +0.000 C 
BRANCH  30  31
ATOM     31  C   UNL     1       6.504   4.925  14.633  0.00  0.00    +0.000 A 
ATOM     32  C   UNL     1       7.561   5.416  13.850  0.00  0.00    +0.000 A 
ATOM     33  C   UNL     1       7.755   4.952  12.548  0.00  0.00    +0.000 A 
ATOM     34  C   UNL     1       6.893   3.996  12.015  0.00  0.00    +0.000 A 
ATOM     35  C   UNL     1       5.840   3.500  12.784  0.00  0.00    +0.000 A 
ATOM     36  C   UNL     1       5.646   3.962  14.087  0.00  0.00    +0.000 A 
ENDBRANCH  30  31
ENDBRANCH  29  30
ENDBRANCH   1  29
TORSDOF 11
ENDMDL
MODEL 9
REMARK VINA RESULT:      -8.6      2.367      4.440
REMARK  Name = 
REMARK  11 active torsions:
REMARK  status: ('A' for Active; 'I' for Inactive)
REMARK    1  A    between atoms: C_4  and  C_5
REMARK    2  A    between atoms: C_5  and  O_6
REMARK    3  A    between atoms: O_6  and  C_7
REMARK    4  A    between atoms: C_7  and  C_8
REMARK    5  A    between atoms: C_8  and  O_9
REMARK    6  A    between atoms: C_8  and  C_17
REMARK    7  A    between atoms: O_9  and  C_10
REMARK    8  A    between atoms: C_10  and  C_11
REMARK    9  A    between atoms: C_20  and  O_21
REMARK   10  A    between atoms: O_21  and  C_22
REMARK   11  A    between atoms: C_22  and  C_23
REMARK                            x       y       z     vdW  Elec       q    Type
REMARK                         _______ _______ _______ _____ _____    ______ ____
ROOT
ATOM      1  C   UNL     1       2.798   6.852  19.402  0.00  0.00    +0.000 C 
ENDROOT
BRANCH   1   2
ATOM      2  C   UNL     1       1.858   8.070  19.429  0.00  0.00    +0.000 A 
ATOM      3  C   UNL     1       1.275   8.486  20.644  0.00  0.00    +0.000 A 
ATOM      4  C   UNL     1       0.572   9.703  20.753  0.00  0.00    +0.000 A 
ATOM      5  C   UNL     1       0.409  10.526  19.642  0.00  0.00    +0.000 A 
ATOM      6  C   UNL     1       0.908  10.081  18.413  0.00  0.00    +0.000 A 
ATOM      7  C   UNL     1       1.640   8.883  18.309  0.00  0.00    +0.000 A 
BRANCH   5   8
ATOM      8  O   UNL     1      -0.204  11.754  19.629  0.00  0.00    +0.000 OA
BRANCH   8   9
ATOM      9  C   UNL     1      -0.793  12.205  18.392  0.00  0.00    +0.000 C 
BRANCH   9  10
ATOM     10  C   UNL     1      -2.289  11.895  18.307  0.00  0.00    +0.000 A 
ATOM     11  C   UNL     1      -2.788  11.097  17.283  0.00  0.00    +0.000 A 
ATOM     12  C   UNL     1      -4.154  10.850  17.217  0.00  0.00    +0.000 A 
ATOM     13  C   UNL     1      -4.997  11.303  18.232  0.00  0.00    +0.000 A 
ATOM     14  C   UNL     1      -6.369  10.974  18.229  0.00  0.00    +0.000 A 
ATOM     15  C   UNL     1      -7.179  11.304  19.305  0.00  0.00    +0.000 A 
ATOM     16  C   UNL     1      -6.629  12.011  20.369  0.00  0.00    +0.000 A 
ATOM     17  C   UNL     1      -5.279  12.396  20.334  0.00  0.00    +0.000 A 
ATOM     18  C   UNL     1      -4.430  12.044  19.286  0.00  0.00    +0.000 A 
ATOM     19  N   UNL     1      -3.103  12.363  19.301  0.00  0.00    +0.000 NA
ENDBRANCH   9  10
ENDBRANCH   8   9
ENDBRANCH   5   8
ENDBRANCH   1   2
BRANCH   1  20
ATOM     20  C   UNL     1       2.383   5.716  20.385  0.00  0.00    +0.000 C 
BRANCH  20  21
ATOM     21  O   UNL     1       1.059   5.197  20.123  0.00  0.00    +0.000 OA
BRANCH  21  22
ATOM     22  C   UNL     1       0.975   3.811  20.505  0.00  0.00    +0.000 C 
BRANCH  22  26
ATOM     23  C   UNL     1       3.999   1.419  18.524  0.00  0.00    +0.000 A 
ATOM     24  C   UNL     1       2.778   1.668  17.897  0.00  0.00    +0.000 A 
ATOM     25  C   UNL     1       1.803   2.430  18.554  0.00  0.00    +0.000 A 
ATOM     26  C   UNL     1       2.023   2.937  19.849  0.00  0.00    +0.000 A 
ATOM     27  C   UNL     1       3.266   2.695  20.450  0.00  0.00    +0.000 A 
ATOM     28  C   UNL     1       4.243   1.938  19.794  0.00  0.00    +0.000 A 
ENDBRANCH  22  26
ENDBRANCH  21  22
ENDBRANCH  20  21
ENDBRANCH   1  20
BRANCH   1  29
ATOM     29  O   UNL     1       2.816   6.292  18.071  0.00  0.00    +0.000 OA
BRANCH  29  30
ATOM     30  C   UNL     1       3.771   5.245  17.901  0.00  0.00    +0.000 C 
BRANCH  30  31
ATOM     31  C   UNL     1       5.167   5.801  18.009  0.00  0.00    +0.000 A 
ATOM     32  C   UNL     1       6.044   5.333  19.000  0.00  0.00    +0.000 A 
ATOM     33  C   UNL     1       7.339   5.842  19.099  0.00  0.00    +0.000 A 
ATOM     34  C   UNL     1       7.770   6.826  18.211  0.00  0.00    +0.000 A 
ATOM     35  C   UNL     1       6.907   7.297  17.222  0.00  0.00    +0.000 A 
ATOM     36  C   UNL     1       5.611   6.788  17.121  0.00  0.00    +0.000 A 
ENDBRANCH  30  31
ENDBRANCH  29  30
ENDBRANCH   1  29
TORSDOF 11
ENDMDL
