MODEL 1
REMARK VINA RESULT:      -7.7      0.000      0.000
REMARK  Name = 
REMARK  4 active torsions:
REMARK  status: ('A' for Active; 'I' for Inactive)
REMARK    1  A    between atoms: S_2  and  C_4
REMARK    2  A    between atoms: S_2  and  N_14
REMARK    3  A    between atoms: N_17  and  C_18
REMARK    4  A    between atoms: C_18  and  C_19
REMARK                            x       y       z     vdW  Elec       q    Type
REMARK                         _______ _______ _______ _____ _____    ______ ____
ROOT
ATOM      1  N   UNL     1       0.212   9.680  19.913  0.00  0.00    +0.000 NA
ATOM      2  C   UNL     1       0.588   9.914  18.479  0.00  0.00    +0.000 C 
ATOM      3  C   UNL     1       1.944   9.283  18.026  0.00  0.00    +0.000 C 
ATOM      4  N   UNL     1       2.396   8.012  18.642  0.00  0.00    +0.000 NA
ATOM      5  C   UNL     1       2.119   8.100  20.093  0.00  0.00    +0.000 C 
ATOM      6  C   UNL     1       0.629   8.342  20.395  0.00  0.00    +0.000 C 
ENDROOT
BRANCH   1   8
ATOM      7  O   UNL     1       1.328  11.907  20.440  0.00  0.00    +0.000 OA
ATOM      8  S   UNL     1       0.458  10.924  21.058  0.00  0.00    +0.000 S 
ATOM      9  O   UNL     1       0.788  10.322  22.324  0.00  0.00    +0.000 OA
BRANCH   8  10
ATOM     10  C   UNL     1      -1.154  11.639  21.252  0.00  0.00    +0.000 A 
ATOM     11  C   UNL     1      -1.841  12.087  20.123  0.00  0.00    +0.000 A 
ATOM     12  C   UNL     1      -3.079  12.711  20.281  0.00  0.00    +0.000 A 
ATOM     13  C   UNL     1      -3.636  12.879  21.558  0.00  0.00    +0.000 A 
ATOM     14  C   UNL     1      -2.966  12.366  22.686  0.00  0.00    +0.000 A 
ATOM     15  C   UNL     1      -1.726  11.731  22.522  0.00  0.00    +0.000 A 
ATOM     16  C   UNL     1      -3.582  12.440  24.060  0.00  0.00    +0.000 C 
ATOM     17  C   UNL     1      -4.557  13.606  24.195  0.00  0.00    +0.000 C 
ATOM     18  C   UNL     1      -5.575  13.578  23.060  0.00  0.00    +0.000 C 
ATOM     19  C   UNL     1      -4.890  13.708  21.702  0.00  0.00    +0.000 C 
ENDBRANCH   8  10
ENDBRANCH   1   8
BRANCH   4  20
ATOM     20  C   UNL     1       1.796   6.775  18.087  0.00  0.00    +0.000 C 
BRANCH  20  21
ATOM     21  C   UNL     1       2.510   5.521  18.480  0.00  0.00    +0.000 A 
ATOM     22  N   UNL     1       3.686   5.253  17.887  0.00  0.00    +0.000 NA
ATOM     23  O   UNL     1       4.192   4.144  18.532  0.00  0.00    +0.000 OA
ATOM     24  C   UNL     1       3.323   3.749  19.496  0.00  0.00    +0.000 A 
ATOM     25  C   UNL     1       3.552   2.738  20.425  0.00  0.00    +0.000 A 
ATOM     26  C   UNL     1       2.535   2.518  21.356  0.00  0.00    +0.000 A 
ATOM     27  C   UNL     1       1.326   3.224  21.284  0.00  0.00    +0.000 A 
ATOM     28  C   UNL     1       1.124   4.223  20.318  0.00  0.00    +0.000 A 
ATOM     29  C   UNL     1       2.181   4.528  19.442  0.00  0.00    +0.000 A 
ENDBRANCH  20  21
ENDBRANCH   4  20
TORSDOF 4
ENDMDL
MODEL 2
REMARK VINA RESULT:      -7.6      4.061     10.435
REMARK  Name = 
REMARK  4 active torsions:
REMARK  status: ('A' for Active; 'I' for Inactive)
REMARK    1  A    between atoms: S_2  and  C_4
REMARK    2  A    between atoms: S_2  and  N_14
REMARK    3  A    between atoms: N_17  and  C_18
REMARK    4  A    between atoms: C_18  and  C_19
REMARK                            x       y       z     vdW  Elec       q    Type
REMARK                         _______ _______ _______ _____ _____    ______ ____
ROOT
ATOM      1  N   UNL     1       3.053   4.680  18.055  0.00  0.00    +0.000 NA
ATOM      2  C   UNL     1       2.025   4.758  19.146  0.00  0.00    +0.000 C 
ATOM      3  C   UNL     1       2.127   6.007  20.080  0.00  0.00    +0.000 C 
ATOM      4  N   UNL     1       2.620   7.291  19.526  0.00  0.00    +0.000 NA
ATOM      5  C   UNL     1       3.771   6.981  18.649  0.00  0.00    +0.000 C 
ATOM      6  C   UNL     1       3.402   6.014  17.511  0.00  0.00    +0.000 C 
ENDROOT
BRANCH   1   8
ATOM      7  O   UNL     1       3.928   2.288  18.079  0.00  0.00    +0.000 OA
ATOM      8  S   UNL     1       4.403   3.649  18.249  0.00  0.00    +0.000 S 
ATOM      9  O   UNL     1       5.120   4.051  19.432  0.00  0.00    +0.000 OA
BRANCH   8  10
ATOM     10  C   UNL     1       5.444   4.061  16.873  0.00  0.00    +0.000 A 
ATOM     11  C   UNL     1       6.538   4.905  17.073  0.00  0.00    +0.000 A 
ATOM     12  C   UNL     1       7.316   5.283  15.980  0.00  0.00    +0.000 A 
ATOM     13  C   UNL     1       7.014   4.817  14.691  0.00  0.00    +0.000 A 
ATOM     14  C   UNL     1       5.947   3.915  14.507  0.00  0.00    +0.000 A 
ATOM     15  C   UNL     1       5.173   3.529  15.611  0.00  0.00    +0.000 A 
ATOM     16  C   UNL     1       5.656   3.317  13.154  0.00  0.00    +0.000 C 
ATOM     17  C   UNL     1       6.127   4.212  12.013  0.00  0.00    +0.000 C 
ATOM     18  C   UNL     1       7.586   4.606  12.215  0.00  0.00    +0.000 C 
ATOM     19  C   UNL     1       7.771   5.385  13.514  0.00  0.00    +0.000 C 
ENDBRANCH   8  10
ENDBRANCH   1   8
BRANCH   4  20
ATOM     20  C   UNL     1       1.624   8.101  18.785  0.00  0.00    +0.000 C 
BRANCH  20  21
ATOM     21  C   UNL     1       1.215   9.357  19.487  0.00  0.00    +0.000 A 
ATOM     22  N   UNL     1       1.296  10.513  18.807  0.00  0.00    +0.000 NA
ATOM     23  O   UNL     1       0.724  11.471  19.619  0.00  0.00    +0.000 OA
ATOM     24  C   UNL     1       0.312  10.893  20.775  0.00  0.00    +0.000 A 
ATOM     25  C   UNL     1      -0.414  11.525  21.780  0.00  0.00    +0.000 A 
ATOM     26  C   UNL     1      -0.767  10.732  22.874  0.00  0.00    +0.000 A 
ATOM     27  C   UNL     1      -0.330   9.404  22.973  0.00  0.00    +0.000 A 
ATOM     28  C   UNL     1       0.420   8.806  21.946  0.00  0.00    +0.000 A 
ATOM     29  C   UNL     1       0.692   9.563  20.792  0.00  0.00    +0.000 A 
ENDBRANCH  20  21
ENDBRANCH   4  20
TORSDOF 4
ENDMDL
MODEL 3
REMARK VINA RESULT:      -7.6      4.277      7.086
REMARK  Name = 
REMARK  4 active torsions:
REMARK  status: ('A' for Active; 'I' for Inactive)
REMARK    1  A    between atoms: S_2  and  C_4
REMARK    2  A    between atoms: S_2  and  N_14
REMARK    3  A    between atoms: N_17  and  C_18
REMARK    4  A    between atoms: C_18  and  C_19
REMARK                            x       y       z     vdW  Elec       q    Type
REMARK                         _______ _______ _______ _____ _____    ______ ____
ROOT
ATOM      1  N   UNL     1       3.729   4.587  19.629  0.00  0.00    +0.000 NA
ATOM      2  C   UNL     1       4.295   3.250  19.248  0.00  0.00    +0.000 C 
ATOM      3  C   UNL     1       4.480   3.009  17.714  0.00  0.00    +0.000 C 
ATOM      4  N   UNL     1       4.807   4.155  16.833  0.00  0.00    +0.000 NA
ATOM      5  C   UNL     1       3.969   5.296  17.262  0.00  0.00    +0.000 C 
ATOM      6  C   UNL     1       4.197   5.674  18.736  0.00  0.00    +0.000 C 
ENDROOT
BRANCH   1   8
ATOM      7  O   UNL     1       1.921   4.129  21.363  0.00  0.00    +0.000 OA
ATOM      8  S   UNL     1       2.074   4.709  20.042  0.00  0.00    +0.000 S 
ATOM      9  O   UNL     1       1.289   4.250  18.925  0.00  0.00    +0.000 OA
BRANCH   8  10
ATOM     10  C   UNL     1       1.802   6.458  20.157  0.00  0.00    +0.000 A 
ATOM     11  C   UNL     1       1.405   7.007  21.379  0.00  0.00    +0.000 A 
ATOM     12  C   UNL     1       1.124   8.372  21.453  0.00  0.00    +0.000 A 
ATOM     13  C   UNL     1       1.247   9.189  20.320  0.00  0.00    +0.000 A 
ATOM     14  C   UNL     1       1.709   8.639  19.108  0.00  0.00    +0.000 A 
ATOM     15  C   UNL     1       2.000   7.269  19.039  0.00  0.00    +0.000 A 
ATOM     16  C   UNL     1       1.947   9.507  17.898  0.00  0.00    +0.000 C 
ATOM     17  C   UNL     1       1.078  10.760  17.905  0.00  0.00    +0.000 C 
ATOM     18  C   UNL     1       1.220  11.497  19.232  0.00  0.00    +0.000 C 
ATOM     19  C   UNL     1       0.770  10.621  20.399  0.00  0.00    +0.000 C 
ENDBRANCH   8  10
ENDBRANCH   1   8
BRANCH   4  20
ATOM     20  C   UNL     1       6.234   4.559  16.799  0.00  0.00    +0.000 C 
BRANCH  20  21
ATOM     21  C   UNL     1       6.750   4.860  15.428  0.00  0.00    +0.000 A 
ATOM     22  N   UNL     1       7.790   5.704  15.318  0.00  0.00    +0.000 NA
ATOM     23  O   UNL     1       8.156   5.683  13.988  0.00  0.00    +0.000 OA
ATOM     24  C   UNL     1       7.337   4.840  13.309  0.00  0.00    +0.000 A 
ATOM     25  C   UNL     1       7.480   4.478  11.974  0.00  0.00    +0.000 A 
ATOM     26  C   UNL     1       6.544   3.566  11.482  0.00  0.00    +0.000 A 
ATOM     27  C   UNL     1       5.480   3.124  12.280  0.00  0.00    +0.000 A 
ATOM     28  C   UNL     1       5.358   3.529  13.619  0.00  0.00    +0.000 A 
ATOM     29  C   UNL     1       6.353   4.363  14.157  0.00  0.00    +0.000 A 
ENDBRANCH  20  21
ENDBRANCH   4  20
TORSDOF 4
ENDMDL
MODEL 4
REMARK VINA RESULT:      -7.5      4.264      6.671
REMARK  Name = 
REMARK  4 active torsions:
REMARK  status: ('A' for Active; 'I' for Inactive)
REMARK    1  A    between atoms: S_2  and  C_4
REMARK    2  A    between atoms: S_2  and  N_14
REMARK    3  A    between atoms: N_17  and  C_18
REMARK    4  A    between atoms: C_18  and  C_19
REMARK                            x       y       z     vdW  Elec       q    Type
REMARK                         _______ _______ _______ _____ _____    ______ ____
ROOT
ATOM      1  N   UNL     1       4.052   5.689  19.289  0.00  0.00    +0.000 NA
ATOM      2  C   UNL     1       4.820   4.431  19.577  0.00  0.00    +0.000 C 
ATOM      3  C   UNL     1       5.131   3.533  18.336  0.00  0.00    +0.000 C 
ATOM      4  N   UNL     1       5.351   4.168  17.015  0.00  0.00    +0.000 NA
ATOM      5  C   UNL     1       4.339   5.237  16.864  0.00  0.00    +0.000 C 
ATOM      6  C   UNL     1       4.421   6.289  17.985  0.00  0.00    +0.000 C 
ENDROOT
BRANCH   1   8
ATOM      7  O   UNL     1       2.205   5.478  21.030  0.00  0.00    +0.000 OA
ATOM      8  S   UNL     1       2.374   5.739  19.612  0.00  0.00    +0.000 S 
ATOM      9  O   UNL     1       1.693   4.950  18.618  0.00  0.00    +0.000 OA
BRANCH   8  10
ATOM     10  C   UNL     1       1.938   7.428  19.292  0.00  0.00    +0.000 A 
ATOM     11  C   UNL     1       2.103   7.943  18.005  0.00  0.00    +0.000 A 
ATOM     12  C   UNL     1       1.825   9.289  17.768  0.00  0.00    +0.000 A 
ATOM     13  C   UNL     1       1.375  10.119  18.806  0.00  0.00    +0.000 A 
ATOM     14  C   UNL     1       1.150   9.577  20.087  0.00  0.00    +0.000 A 
ATOM     15  C   UNL     1       1.421   8.221  20.318  0.00  0.00    +0.000 A 
ATOM     16  C   UNL     1       0.573  10.416  21.198  0.00  0.00    +0.000 C 
ATOM     17  C   UNL     1       0.878  11.900  21.022  0.00  0.00    +0.000 C 
ATOM     18  C   UNL     1       0.476  12.361  19.626  0.00  0.00    +0.000 C 
ATOM     19  C   UNL     1       1.251  11.603  18.551  0.00  0.00    +0.000 C 
ENDBRANCH   8  10
ENDBRANCH   1   8
BRANCH   4  20
ATOM     20  C   UNL     1       6.708   4.720  16.780  0.00  0.00    +0.000 C 
BRANCH  20  21
ATOM     21  C   UNL     1       7.033   4.948  15.338  0.00  0.00    +0.000 A 
ATOM     22  N   UNL     1       8.042   5.785  15.045  0.00  0.00    +0.000 NA
ATOM     23  O   UNL     1       8.225   5.694  13.680  0.00  0.00    +0.000 OA
ATOM     24  C   UNL     1       7.328   4.817  13.163  0.00  0.00    +0.000 A 
ATOM     25  C   UNL     1       7.291   4.385  11.842  0.00  0.00    +0.000 A 
ATOM     26  C   UNL     1       6.303   3.448  11.529  0.00  0.00    +0.000 A 
ATOM     27  C   UNL     1       5.360   3.049  12.486  0.00  0.00    +0.000 A 
ATOM     28  C   UNL     1       5.417   3.524  13.807  0.00  0.00    +0.000 A 
ATOM     29  C   UNL     1       6.471   4.386  14.160  0.00  0.00    +0.000 A 
ENDBRANCH  20  21
ENDBRANCH   4  20
TORSDOF 4
ENDMDL
MODEL 5
REMARK VINA RESULT:      -7.5      3.535      9.359
REMARK  Name = 
REMARK  4 active torsions:
REMARK  status: ('A' for Active; 'I' for Inactive)
REMARK    1  A    between atoms: S_2  and  C_4
REMARK    2  A    between atoms: S_2  and  N_14
REMARK    3  A    between atoms: N_17  and  C_18
REMARK    4  A    between atoms: C_18  and  C_19
REMARK                            x       y       z     vdW  Elec       q    Type
REMARK                         _______ _______ _______ _____ _____    ______ ____
ROOT
ATOM      1  N   UNL     1       0.526  10.075  19.755  0.00  0.00    +0.000 NA
ATOM      2  C   UNL     1      -0.860  10.283  19.217  0.00  0.00    +0.000 C 
ATOM      3  C   UNL     1      -1.561  11.609  19.657  0.00  0.00    +0.000 C 
ATOM      4  N   UNL     1      -0.741  12.821  19.893  0.00  0.00    +0.000 NA
ATOM      5  C   UNL     1       0.472  12.398  20.627  0.00  0.00    +0.000 C 
ATOM      6  C   UNL     1       1.287  11.342  19.860  0.00  0.00    +0.000 C 
ENDROOT
BRANCH   1   8
ATOM      7  O   UNL     1      -0.555   8.663  21.578  0.00  0.00    +0.000 OA
ATOM      8  S   UNL     1       0.760   9.026  21.084  0.00  0.00    +0.000 S 
ATOM      9  O   UNL     1       1.754   9.603  21.952  0.00  0.00    +0.000 OA
BRANCH   8  10
ATOM     10  C   UNL     1       1.506   7.591  20.357  0.00  0.00    +0.000 A 
ATOM     11  C   UNL     1       2.211   7.721  19.158  0.00  0.00    +0.000 A 
ATOM     12  C   UNL     1       2.740   6.582  18.551  0.00  0.00    +0.000 A 
ATOM     13  C   UNL     1       2.577   5.319  19.139  0.00  0.00    +0.000 A 
ATOM     14  C   UNL     1       1.921   5.204  20.381  0.00  0.00    +0.000 A 
ATOM     15  C   UNL     1       1.399   6.353  20.993  0.00  0.00    +0.000 A 
ATOM     16  C   UNL     1       1.817   3.877  21.088  0.00  0.00    +0.000 C 
ATOM     17  C   UNL     1       1.864   2.699  20.119  0.00  0.00    +0.000 C 
ATOM     18  C   UNL     1       3.076   2.818  19.201  0.00  0.00    +0.000 C 
ATOM     19  C   UNL     1       3.012   4.095  18.367  0.00  0.00    +0.000 C 
ENDBRANCH   8  10
ENDBRANCH   1   8
BRANCH   4  20
ATOM     20  C   UNL     1      -0.358  13.590  18.684  0.00  0.00    +0.000 C 
BRANCH  20  21
ATOM     21  C   UNL     1       0.394  14.849  18.974  0.00  0.00    +0.000 A 
ATOM     22  N   UNL     1      -0.248  15.828  19.633  0.00  0.00    +0.000 NA
ATOM     23  O   UNL     1       0.704  16.791  19.900  0.00  0.00    +0.000 OA
ATOM     24  C   UNL     1       1.900  16.394  19.398  0.00  0.00    +0.000 A 
ATOM     25  C   UNL     1       3.111  17.054  19.580  0.00  0.00    +0.000 A 
ATOM     26  C   UNL     1       4.231  16.450  19.004  0.00  0.00    +0.000 A 
ATOM     27  C   UNL     1       4.105  15.295  18.220  0.00  0.00    +0.000 A 
ATOM     28  C   UNL     1       2.861  14.669  18.043  0.00  0.00    +0.000 A 
ATOM     29  C   UNL     1       1.743  15.207  18.704  0.00  0.00    +0.000 A 
ENDBRANCH  20  21
ENDBRANCH   4  20
TORSDOF 4
ENDMDL
MODEL 6
REMARK VINA RESULT:      -7.4      4.756      9.323
REMARK  Name = 
REMARK  4 active torsions:
REMARK  status: ('A' for Active; 'I' for Inactive)
REMARK    1  A    between atoms: S_2  and  C_4
REMARK    2  A    between atoms: S_2  and  N_14
REMARK    3  A    between atoms: N_17  and  C_18
REMARK    4  A    between atoms: C_18  and  C_19
REMARK                            x       y       z     vdW  Elec       q    Type
REMARK                         _______ _______ _______ _____ _____    ______ ____
ROOT
ATOM      1  N   UNL     1       0.798  12.219  18.962  0.00  0.00    +0.000 NA
ATOM      2  C   UNL     1      -0.284  13.161  18.523  0.00  0.00    +0.000 C 
ATOM      3  C   UNL     1      -0.218  14.597  19.139  0.00  0.00    +0.000 C 
ATOM      4  N   UNL     1       1.102  15.190  19.459  0.00  0.00    +0.000 NA
ATOM      5  C   UNL     1       1.926  14.128  20.079  0.00  0.00    +0.000 C 
ATOM      6  C   UNL     1       2.097  12.904  19.162  0.00  0.00    +0.000 C 
ENDROOT
BRANCH   1   8
ATOM      7  O   UNL     1      -0.982  10.844  20.157  0.00  0.00    +0.000 OA
ATOM      8  S   UNL     1       0.455  11.046  20.158  0.00  0.00    +0.000 S 
ATOM      9  O   UNL     1       1.162  11.401  21.362  0.00  0.00    +0.000 OA
BRANCH   8  10
ATOM     10  C   UNL     1       1.233   9.578  19.539  0.00  0.00    +0.000 A 
ATOM     11  C   UNL     1       1.743   9.572  18.238  0.00  0.00    +0.000 A 
ATOM     12  C   UNL     1       2.294   8.397  17.727  0.00  0.00    +0.000 A 
ATOM     13  C   UNL     1       2.346   7.234  18.509  0.00  0.00    +0.000 A 
ATOM     14  C   UNL     1       1.889   7.265  19.841  0.00  0.00    +0.000 A 
ATOM     15  C   UNL     1       1.345   8.451  20.355  0.00  0.00    +0.000 A 
ATOM     16  C   UNL     1       2.022   6.063  20.740  0.00  0.00    +0.000 C 
ATOM     17  C   UNL     1       2.051   4.754  19.956  0.00  0.00    +0.000 C 
ATOM     18  C   UNL     1       3.101   4.821  18.853  0.00  0.00    +0.000 C 
ATOM     19  C   UNL     1       2.790   5.942  17.863  0.00  0.00    +0.000 C 
ENDBRANCH   8  10
ENDBRANCH   1   8
BRANCH   4  20
ATOM     20  C   UNL     1       1.834  15.796  18.320  0.00  0.00    +0.000 C 
BRANCH  20  21
ATOM     21  C   UNL     1       3.145  16.410  18.694  0.00  0.00    +0.000 A 
ATOM     22  N   UNL     1       3.126  17.548  19.408  0.00  0.00    +0.000 NA
ATOM     23  O   UNL     1       4.440  17.807  19.743  0.00  0.00    +0.000 OA
ATOM     24  C   UNL     1       5.235  16.837  19.227  0.00  0.00    +0.000 A 
ATOM     25  C   UNL     1       6.601  16.704  19.458  0.00  0.00    +0.000 A 
ATOM     26  C   UNL     1       7.222  15.608  18.855  0.00  0.00    +0.000 A 
ATOM     27  C   UNL     1       6.509  14.756  18.000  0.00  0.00    +0.000 A 
ATOM     28  C   UNL     1       5.135  14.935  17.774  0.00  0.00    +0.000 A 
ATOM     29  C   UNL     1       4.476  15.972  18.458  0.00  0.00    +0.000 A 
ENDBRANCH  20  21
ENDBRANCH   4  20
TORSDOF 4
ENDMDL
MODEL 7
REMARK VINA RESULT:      -7.4      1.779      2.526
REMARK  Name = 
REMARK  4 active torsions:
REMARK  status: ('A' for Active; 'I' for Inactive)
REMARK    1  A    between atoms: S_2  and  C_4
REMARK    2  A    between atoms: S_2  and  N_14
REMARK    3  A    between atoms: N_17  and  C_18
REMARK    4  A    between atoms: C_18  and  C_19
REMARK                            x       y       z     vdW  Elec       q    Type
REMARK                         _______ _______ _______ _____ _____    ______ ____
ROOT
ATOM      1  N   UNL     1      -0.688  10.114  21.115  0.00  0.00    +0.000 NA
ATOM      2  C   UNL     1      -0.180   9.925  19.716  0.00  0.00    +0.000 C 
ATOM      3  C   UNL     1       1.259   9.326  19.597  0.00  0.00    +0.000 C 
ATOM      4  N   UNL     1       1.734   8.366  20.621  0.00  0.00    +0.000 NA
ATOM      5  C   UNL     1       1.299   8.875  21.941  0.00  0.00    +0.000 C 
ATOM      6  C   UNL     1      -0.228   9.045  22.033  0.00  0.00    +0.000 C 
ENDROOT
BRANCH   1   8
ATOM      7  O   UNL     1       0.192  12.500  20.975  0.00  0.00    +0.000 OA
ATOM      8  S   UNL     1      -0.655  11.674  21.815  0.00  0.00    +0.000 S 
ATOM      9  O   UNL     1      -0.405  11.537  23.226  0.00  0.00    +0.000 OA
BRANCH   8  10
ATOM     10  C   UNL     1      -2.329  12.237  21.658  0.00  0.00    +0.000 A 
ATOM     11  C   UNL     1      -2.831  12.541  20.390  0.00  0.00    +0.000 A 
ATOM     12  C   UNL     1      -4.125  13.049  20.273  0.00  0.00    +0.000 A 
ATOM     13  C   UNL     1      -4.921  13.245  21.411  0.00  0.00    +0.000 A 
ATOM     14  C   UNL     1      -4.431  12.875  22.679  0.00  0.00    +0.000 A 
ATOM     15  C   UNL     1      -3.134  12.356  22.792  0.00  0.00    +0.000 A 
ATOM     16  C   UNL     1      -5.296  12.979  23.910  0.00  0.00    +0.000 C 
ATOM     17  C   UNL     1      -6.374  14.050  23.771  0.00  0.00    +0.000 C 
ATOM     18  C   UNL     1      -7.158  13.848  22.479  0.00  0.00    +0.000 C 
ATOM     19  C   UNL     1      -6.246  13.955  21.259  0.00  0.00    +0.000 C 
ENDBRANCH   8  10
ENDBRANCH   1   8
BRANCH   4  20
ATOM     20  C   UNL     1       1.287   6.962  20.450  0.00  0.00    +0.000 C 
BRANCH  20  21
ATOM     21  C   UNL     1       2.357   6.036  19.965  0.00  0.00    +0.000 A 
ATOM     22  N   UNL     1       2.525   4.873  20.616  0.00  0.00    +0.000 NA
ATOM     23  O   UNL     1       3.450   4.159  19.882  0.00  0.00    +0.000 OA
ATOM     24  C   UNL     1       3.836   4.892  18.808  0.00  0.00    +0.000 A 
ATOM     25  C   UNL     1       4.667   4.449  17.784  0.00  0.00    +0.000 A 
ATOM     26  C   UNL     1       4.909   5.359  16.753  0.00  0.00    +0.000 A 
ATOM     27  C   UNL     1       4.405   6.666  16.811  0.00  0.00    +0.000 A 
ATOM     28  C   UNL     1       3.586   7.083  17.873  0.00  0.00    +0.000 A 
ATOM     29  C   UNL     1       3.249   6.144  18.864  0.00  0.00    +0.000 A 
ENDBRANCH  20  21
ENDBRANCH   4  20
TORSDOF 4
ENDMDL
MODEL 8
REMARK VINA RESULT:      -7.4      4.016     10.560
REMARK  Name = 
REMARK  4 active torsions:
REMARK  status: ('A' for Active; 'I' for Inactive)
REMARK    1  A    between atoms: S_2  and  C_4
REMARK    2  A    between atoms: S_2  and  N_14
REMARK    3  A    between atoms: N_17  and  C_18
REMARK    4  A    between atoms: C_18  and  C_19
REMARK                            x       y       z     vdW  Elec       q    Type
REMARK                         _______ _______ _______ _____ _____    ______ ____
ROOT
ATOM      1  N   UNL     1       2.955   4.507  18.121  0.00  0.00    +0.000 NA
ATOM      2  C   UNL     1       1.840   4.418  19.123  0.00  0.00    +0.000 C 
ATOM      3  C   UNL     1       1.943   5.402  20.334  0.00  0.00    +0.000 C 
ATOM      4  N   UNL     1       2.569   6.731  20.139  0.00  0.00    +0.000 NA
ATOM      5  C   UNL     1       3.770   6.536  19.297  0.00  0.00    +0.000 C 
ATOM      6  C   UNL     1       3.440   5.895  17.937  0.00  0.00    +0.000 C 
ENDROOT
BRANCH   1   8
ATOM      7  O   UNL     1       3.624   2.074  17.776  0.00  0.00    +0.000 OA
ATOM      8  S   UNL     1       4.209   3.346  18.157  0.00  0.00    +0.000 S 
ATOM      9  O   UNL     1       4.936   3.497  19.391  0.00  0.00    +0.000 OA
BRANCH   8  10
ATOM     10  C   UNL     1       5.304   3.874  16.866  0.00  0.00    +0.000 A 
ATOM     11  C   UNL     1       6.349   4.748  17.173  0.00  0.00    +0.000 A 
ATOM     12  C   UNL     1       7.169   5.217  16.147  0.00  0.00    +0.000 A 
ATOM     13  C   UNL     1       6.957   4.812  14.820  0.00  0.00    +0.000 A 
ATOM     14  C   UNL     1       5.941   3.880  14.529  0.00  0.00    +0.000 A 
ATOM     15  C   UNL     1       5.125   3.403  15.565  0.00  0.00    +0.000 A 
ATOM     16  C   UNL     1       5.749   3.348  13.131  0.00  0.00    +0.000 C 
ATOM     17  C   UNL     1       6.242   4.323  12.067  0.00  0.00    +0.000 C 
ATOM     18  C   UNL     1       7.671   4.761  12.372  0.00  0.00    +0.000 C 
ATOM     19  C   UNL     1       7.752   5.474  13.720  0.00  0.00    +0.000 C 
ENDBRANCH   8  10
ENDBRANCH   1   8
BRANCH   4  20
ATOM     20  C   UNL     1       1.700   7.775  19.544  0.00  0.00    +0.000 C 
BRANCH  20  21
ATOM     21  C   UNL     1       1.105   8.716  20.544  0.00  0.00    +0.000 A 
ATOM     22  N   UNL     1       1.558   8.661  21.807  0.00  0.00    +0.000 NA
ATOM     23  O   UNL     1       0.965   9.717  22.468  0.00  0.00    +0.000 OA
ATOM     24  C   UNL     1       0.160  10.391  21.609  0.00  0.00    +0.000 A 
ATOM     25  C   UNL     1      -0.506  11.579  21.891  0.00  0.00    +0.000 A 
ATOM     26  C   UNL     1      -1.257  12.125  20.847  0.00  0.00    +0.000 A 
ATOM     27  C   UNL     1      -1.387  11.452  19.624  0.00  0.00    +0.000 A 
ATOM     28  C   UNL     1      -0.714  10.242  19.385  0.00  0.00    +0.000 A 
ATOM     29  C   UNL     1       0.128   9.737  20.390  0.00  0.00    +0.000 A 
ENDBRANCH  20  21
ENDBRANCH   4  20
TORSDOF 4
ENDMDL
MODEL 9
REMARK VINA RESULT:      -7.4      1.626      2.498
REMARK  Name = 
REMARK  4 active torsions:
REMARK  status: ('A' for Active; 'I' for Inactive)
REMARK    1  A    between atoms: S_2  and  C_4
REMARK    2  A    between atoms: S_2  and  N_14
REMARK    3  A    between atoms: N_17  and  C_18
REMARK    4  A    between atoms: C_18  and  C_19
REMARK                            x       y       z     vdW  Elec       q    Type
REMARK                         _______ _______ _______ _____ _____    ______ ____
ROOT
ATOM      1  N   UNL     1       0.137   9.459  20.580  0.00  0.00    +0.000 NA
ATOM      2  C   UNL     1       0.594   9.655  19.164  0.00  0.00    +0.000 C 
ATOM      3  C   UNL     1       1.952   8.975  18.794  0.00  0.00    +0.000 C 
ATOM      4  N   UNL     1       2.333   7.704  19.455  0.00  0.00    +0.000 NA
ATOM      5  C   UNL     1       1.984   7.828  20.887  0.00  0.00    +0.000 C 
ATOM      6  C   UNL     1       0.488   8.119  21.107  0.00  0.00    +0.000 C 
ENDROOT
BRANCH   1   8
ATOM      7  O   UNL     1       1.376  11.603  21.174  0.00  0.00    +0.000 OA
ATOM      8  S   UNL     1       0.362  10.718  21.715  0.00  0.00    +0.000 S 
ATOM      9  O   UNL     1       0.497  10.134  23.025  0.00  0.00    +0.000 OA
BRANCH   8  10
ATOM     10  C   UNL     1      -1.194  11.569  21.708  0.00  0.00    +0.000 A 
ATOM     11  C   UNL     1      -1.672  12.107  20.512  0.00  0.00    +0.000 A 
ATOM     12  C   UNL     1      -2.862  12.835  20.519  0.00  0.00    +0.000 A 
ATOM     13  C   UNL     1      -3.580  13.019  21.710  0.00  0.00    +0.000 A 
ATOM     14  C   UNL     1      -3.125  12.417  22.900  0.00  0.00    +0.000 A 
ATOM     15  C   UNL     1      -1.933  11.678  22.887  0.00  0.00    +0.000 A 
ATOM     16  C   UNL     1      -3.923  12.511  24.175  0.00  0.00    +0.000 C 
ATOM     17  C   UNL     1      -4.804  13.755  24.217  0.00  0.00    +0.000 C 
ATOM     18  C   UNL     1      -5.648  13.850  22.951  0.00  0.00    +0.000 C 
ATOM     19  C   UNL     1      -4.766  13.954  21.708  0.00  0.00    +0.000 C 
ENDBRANCH   8  10
ENDBRANCH   1   8
BRANCH   4  20
ATOM     20  C   UNL     1       1.725   6.474  18.891  0.00  0.00    +0.000 C 
BRANCH  20  21
ATOM     21  C   UNL     1       2.720   5.472  18.400  0.00  0.00    +0.000 A 
ATOM     22  N   UNL     1       2.595   4.202  18.821  0.00  0.00    +0.000 NA
ATOM     23  O   UNL     1       3.526   3.474  18.109  0.00  0.00    +0.000 OA
ATOM     24  C   UNL     1       4.205   4.302  17.276  0.00  0.00    +0.000 A 
ATOM     25  C   UNL     1       5.137   3.903  16.323  0.00  0.00    +0.000 A 
ATOM     26  C   UNL     1       5.693   4.921  15.545  0.00  0.00    +0.000 A 
ATOM     27  C   UNL     1       5.382   6.266  15.787  0.00  0.00    +0.000 A 
ATOM     28  C   UNL     1       4.451   6.631  16.774  0.00  0.00    +0.000 A 
ATOM     29  C   UNL     1       3.805   5.609  17.492  0.00  0.00    +0.000 A 
ENDBRANCH  20  21
ENDBRANCH   4  20
TORSDOF 4
ENDMDL
