MODEL 1
REMARK VINA RESULT:      -8.0      0.000      0.000
REMARK  Name = 
REMARK  3 active torsions:
REMARK  status: ('A' for Active; 'I' for Inactive)
REMARK    1  A    between atoms: N_16  and  C_17
REMARK    2  A    between atoms: C_17  and  C_18
REMARK    3  A    between atoms: C_18  and  C_19
REMARK                            x       y       z     vdW  Elec       q    Type
REMARK                         _______ _______ _______ _____ _____    ______ ____
ROOT
ATOM      1  O   UNL     1       1.494   7.320  20.488  0.00  0.00    +0.000 OA
ATOM      2  C   UNL     1       2.239   6.788  19.668  0.00  0.00    +0.000 A 
ATOM      3  C   UNL     1       2.582   5.356  19.837  0.00  0.00    +0.000 A 
ATOM      4  C   UNL     1       2.047   4.659  20.931  0.00  0.00    +0.000 A 
ATOM      5  C   UNL     1       2.354   3.319  21.100  0.00  0.00    +0.000 A 
ATOM      6  F   UNL     1       1.851   2.648  22.141  0.00  0.00    +0.000 F 
ATOM      7  C   UNL     1       3.181   2.668  20.198  0.00  0.00    +0.000 A 
ATOM      8  C   UNL     1       3.718   3.367  19.109  0.00  0.00    +0.000 A 
ATOM      9  C   UNL     1       3.428   4.724  18.912  0.00  0.00    +0.000 A 
ATOM     10  N   UNL     1       3.939   5.504  17.854  0.00  0.00    +0.000 N 
ATOM     11  C   UNL     1       4.776   5.219  16.789  0.00  0.00    +0.000 A 
ATOM     12  S   UNL     1       5.532   3.845  16.255  0.00  0.00    +0.000 S 
ATOM     13  N   UNL     1       4.932   6.423  16.106  0.00  0.00    +0.000 N 
ATOM     14  N   UNL     1       4.223   7.409  16.710  0.00  0.00    +0.000 NA
ATOM     15  C   UNL     1       3.648   6.820  17.717  0.00  0.00    +0.000 A 
ATOM     16  N   UNL     1       2.801   7.449  18.582  0.00  0.00    +0.000 N 
ATOM     17  H   UNL     1       5.459   6.577  15.255  0.00  0.00    +0.000 HD
ENDROOT
BRANCH  16  18
ATOM     18  C   UNL     1       2.515   8.880  18.409  0.00  0.00    +0.000 C 
BRANCH  18  19
ATOM     19  C   UNL     1       1.085   9.166  17.915  0.00  0.00    +0.000 C 
BRANCH  19  20
ATOM     20  C   UNL     1       0.248  10.145  18.720  0.00  0.00    +0.000 A 
ATOM     21  C   UNL     1       0.731  10.764  19.886  0.00  0.00    +0.000 A 
ATOM     22  C   UNL     1      -0.077  11.631  20.629  0.00  0.00    +0.000 A 
ATOM     23  C   UNL     1      -1.377  11.905  20.217  0.00  0.00    +0.000 A 
ATOM     24  C   UNL     1      -1.868  11.324  19.052  0.00  0.00    +0.000 A 
ATOM     25  C   UNL     1      -1.065  10.452  18.309  0.00  0.00    +0.000 A 
ATOM     26 CL   UNL     1      -1.753   9.777  16.871  0.00  0.00    +0.000 Cl
ENDBRANCH  19  20
ENDBRANCH  18  19
ENDBRANCH  16  18
TORSDOF 3
ENDMDL
MODEL 2
REMARK VINA RESULT:      -7.5      1.212      1.414
REMARK  Name = 
REMARK  3 active torsions:
REMARK  status: ('A' for Active; 'I' for Inactive)
REMARK    1  A    between atoms: N_16  and  C_17
REMARK    2  A    between atoms: C_17  and  C_18
REMARK    3  A    between atoms: C_18  and  C_19
REMARK                            x       y       z     vdW  Elec       q    Type
REMARK                         _______ _______ _______ _____ _____    ______ ____
ROOT
ATOM      1  O   UNL     1       1.261   7.085  20.822  0.00  0.00    +0.000 OA
ATOM      2  C   UNL     1       2.003   6.622  19.959  0.00  0.00    +0.000 A 
ATOM      3  C   UNL     1       2.307   5.172  19.980  0.00  0.00    +0.000 A 
ATOM      4  C   UNL     1       1.739   4.379  20.989  0.00  0.00    +0.000 A 
ATOM      5  C   UNL     1       2.009   3.020  21.019  0.00  0.00    +0.000 A 
ATOM      6  F   UNL     1       1.474   2.258  21.977  0.00  0.00    +0.000 F 
ATOM      7  C   UNL     1       2.833   2.446  20.063  0.00  0.00    +0.000 A 
ATOM      8  C   UNL     1       3.402   3.240  19.060  0.00  0.00    +0.000 A 
ATOM      9  C   UNL     1       3.150   4.618  19.003  0.00  0.00    +0.000 A 
ATOM     10  N   UNL     1       3.696   5.491  18.040  0.00  0.00    +0.000 N 
ATOM     11  C   UNL     1       4.540   5.297  16.960  0.00  0.00    +0.000 A 
ATOM     12  S   UNL     1       5.269   3.967  16.294  0.00  0.00    +0.000 S 
ATOM     13  N   UNL     1       4.737   6.561  16.410  0.00  0.00    +0.000 N 
ATOM     14  N   UNL     1       4.044   7.498  17.106  0.00  0.00    +0.000 NA
ATOM     15  C   UNL     1       3.441   6.822  18.038  0.00  0.00    +0.000 A 
ATOM     16  N   UNL     1       2.597   7.379  18.955  0.00  0.00    +0.000 N 
ATOM     17  H   UNL     1       5.280   6.790  15.586  0.00  0.00    +0.000 HD
ENDROOT
BRANCH  16  18
ATOM     18  C   UNL     1       2.351   8.827  18.930  0.00  0.00    +0.000 C 
BRANCH  18  19
ATOM     19  C   UNL     1       1.196   9.238  17.999  0.00  0.00    +0.000 C 
BRANCH  19  20
ATOM     20  C   UNL     1       0.312  10.390  18.445  0.00  0.00    +0.000 A 
ATOM     21  C   UNL     1      -1.034  10.207  18.807  0.00  0.00    +0.000 A 
ATOM     22  C   UNL     1      -1.834  11.293  19.176  0.00  0.00    +0.000 A 
ATOM     23  C   UNL     1      -1.306  12.579  19.200  0.00  0.00    +0.000 A 
ATOM     24  C   UNL     1       0.030  12.782  18.869  0.00  0.00    +0.000 A 
ATOM     25  C   UNL     1       0.833  11.699  18.496  0.00  0.00    +0.000 A 
ATOM     26 CL   UNL     1       2.485  12.040  18.104  0.00  0.00    +0.000 Cl
ENDBRANCH  19  20
ENDBRANCH  18  19
ENDBRANCH  16  18
TORSDOF 3
ENDMDL
MODEL 3
REMARK VINA RESULT:      -7.5      2.927      4.044
REMARK  Name = 
REMARK  3 active torsions:
REMARK  status: ('A' for Active; 'I' for Inactive)
REMARK    1  A    between atoms: N_16  and  C_17
REMARK    2  A    between atoms: C_17  and  C_18
REMARK    3  A    between atoms: C_18  and  C_19
REMARK                            x       y       z     vdW  Elec       q    Type
REMARK                         _______ _______ _______ _____ _____    ______ ____
ROOT
ATOM      1  O   UNL     1       2.509   7.971  18.067  0.00  0.00    +0.000 OA
ATOM      2  C   UNL     1       2.774   6.873  18.551  0.00  0.00    +0.000 A 
ATOM      3  C   UNL     1       3.787   6.022  17.883  0.00  0.00    +0.000 A 
ATOM      4  C   UNL     1       4.405   6.499  16.717  0.00  0.00    +0.000 A 
ATOM      5  C   UNL     1       5.358   5.719  16.084  0.00  0.00    +0.000 A 
ATOM      6  F   UNL     1       5.950   6.165  14.972  0.00  0.00    +0.000 F 
ATOM      7  C   UNL     1       5.701   4.476  16.594  0.00  0.00    +0.000 A 
ATOM      8  C   UNL     1       5.079   4.000  17.755  0.00  0.00    +0.000 A 
ATOM      9  C   UNL     1       4.110   4.765  18.418  0.00  0.00    +0.000 A 
ATOM     10  N   UNL     1       3.425   4.353  19.580  0.00  0.00    +0.000 N 
ATOM     11  C   UNL     1       3.487   3.210  20.358  0.00  0.00    +0.000 A 
ATOM     12  S   UNL     1       4.400   1.829  20.303  0.00  0.00    +0.000 S 
ATOM     13  N   UNL     1       2.535   3.389  21.359  0.00  0.00    +0.000 N 
ATOM     14  N   UNL     1       1.913   4.587  21.217  0.00  0.00    +0.000 NA
ATOM     15  C   UNL     1       2.478   5.119  20.174  0.00  0.00    +0.000 A 
ATOM     16  N   UNL     1       2.171   6.359  19.694  0.00  0.00    +0.000 N 
ATOM     17  H   UNL     1       2.330   2.758  22.125  0.00  0.00    +0.000 HD
ENDROOT
BRANCH  16  18
ATOM     18  C   UNL     1       1.132   7.158  20.357  0.00  0.00    +0.000 C 
BRANCH  18  19
ATOM     19  C   UNL     1       1.692   8.328  21.187  0.00  0.00    +0.000 C 
BRANCH  19  20
ATOM     20  C   UNL     1       0.713   9.398  21.640  0.00  0.00    +0.000 A 
ATOM     21  C   UNL     1       0.062   9.341  22.885  0.00  0.00    +0.000 A 
ATOM     22  C   UNL     1      -0.863  10.320  23.259  0.00  0.00    +0.000 A 
ATOM     23  C   UNL     1      -1.149  11.380  22.404  0.00  0.00    +0.000 A 
ATOM     24  C   UNL     1      -0.499  11.471  21.178  0.00  0.00    +0.000 A 
ATOM     25  C   UNL     1       0.424  10.491  20.798  0.00  0.00    +0.000 A 
ATOM     26 CL   UNL     1       1.191  10.684  19.257  0.00  0.00    +0.000 Cl
ENDBRANCH  19  20
ENDBRANCH  18  19
ENDBRANCH  16  18
TORSDOF 3
ENDMDL
MODEL 4
REMARK VINA RESULT:      -7.4      2.679      3.721
REMARK  Name = 
REMARK  3 active torsions:
REMARK  status: ('A' for Active; 'I' for Inactive)
REMARK    1  A    between atoms: N_16  and  C_17
REMARK    2  A    between atoms: C_17  and  C_18
REMARK    3  A    between atoms: C_18  and  C_19
REMARK                            x       y       z     vdW  Elec       q    Type
REMARK                         _______ _______ _______ _____ _____    ______ ____
ROOT
ATOM      1  O   UNL     1       3.358   8.619  17.217  0.00  0.00    +0.000 OA
ATOM      2  C   UNL     1       3.279   7.565  17.844  0.00  0.00    +0.000 A 
ATOM      3  C   UNL     1       4.019   6.381  17.348  0.00  0.00    +0.000 A 
ATOM      4  C   UNL     1       4.781   6.504  16.176  0.00  0.00    +0.000 A 
ATOM      5  C   UNL     1       5.483   5.407  15.703  0.00  0.00    +0.000 A 
ATOM      6  F   UNL     1       6.210   5.515  14.586  0.00  0.00    +0.000 F 
ATOM      7  C   UNL     1       5.436   4.197  16.377  0.00  0.00    +0.000 A 
ATOM      8  C   UNL     1       4.671   4.076  17.544  0.00  0.00    +0.000 A 
ATOM      9  C   UNL     1       3.948   5.166  18.048  0.00  0.00    +0.000 A 
ATOM     10  N   UNL     1       3.141   5.123  19.204  0.00  0.00    +0.000 N 
ATOM     11  C   UNL     1       2.847   4.123  20.114  0.00  0.00    +0.000 A 
ATOM     12  S   UNL     1       3.320   2.545  20.283  0.00  0.00    +0.000 S 
ATOM     13  N   UNL     1       1.961   4.697  21.023  0.00  0.00    +0.000 N 
ATOM     14  N   UNL     1       1.718   5.992  20.701  0.00  0.00    +0.000 NA
ATOM     15  C   UNL     1       2.441   6.199  19.640  0.00  0.00    +0.000 A 
ATOM     16  N   UNL     1       2.521   7.400  18.998  0.00  0.00    +0.000 N 
ATOM     17  H   UNL     1       1.560   4.257  21.844  0.00  0.00    +0.000 HD
ENDROOT
BRANCH  16  18
ATOM     18  C   UNL     1       1.742   8.542  19.493  0.00  0.00    +0.000 C 
BRANCH  18  19
ATOM     19  C   UNL     1       0.692   9.053  18.488  0.00  0.00    +0.000 C 
BRANCH  19  20
ATOM     20  C   UNL     1       0.380  10.539  18.496  0.00  0.00    +0.000 A 
ATOM     21  C   UNL     1       1.360  11.512  18.762  0.00  0.00    +0.000 A 
ATOM     22  C   UNL     1       1.034  12.871  18.800  0.00  0.00    +0.000 A 
ATOM     23  C   UNL     1      -0.272  13.288  18.563  0.00  0.00    +0.000 A 
ATOM     24  C   UNL     1      -1.254  12.346  18.273  0.00  0.00    +0.000 A 
ATOM     25  C   UNL     1      -0.933  10.984  18.239  0.00  0.00    +0.000 A 
ATOM     26 CL   UNL     1      -2.214   9.881  17.865  0.00  0.00    +0.000 Cl
ENDBRANCH  19  20
ENDBRANCH  18  19
ENDBRANCH  16  18
TORSDOF 3
ENDMDL
MODEL 5
REMARK VINA RESULT:      -7.3      3.893      7.374
REMARK  Name = 
REMARK  3 active torsions:
REMARK  status: ('A' for Active; 'I' for Inactive)
REMARK    1  A    between atoms: N_16  and  C_17
REMARK    2  A    between atoms: C_17  and  C_18
REMARK    3  A    between atoms: C_18  and  C_19
REMARK                            x       y       z     vdW  Elec       q    Type
REMARK                         _______ _______ _______ _____ _____    ______ ____
ROOT
ATOM      1  O   UNL     1       4.430   6.979  17.060  0.00  0.00    +0.000 OA
ATOM      2  C   UNL     1       4.032   6.143  17.868  0.00  0.00    +0.000 A 
ATOM      3  C   UNL     1       3.031   6.548  18.882  0.00  0.00    +0.000 A 
ATOM      4  C   UNL     1       2.575   7.875  18.888  0.00  0.00    +0.000 A 
ATOM      5  C   UNL     1       1.635   8.269  19.826  0.00  0.00    +0.000 A 
ATOM      6  F   UNL     1       1.197   9.532  19.839  0.00  0.00    +0.000 F 
ATOM      7  C   UNL     1       1.146   7.363  20.754  0.00  0.00    +0.000 A 
ATOM      8  C   UNL     1       1.606   6.040  20.750  0.00  0.00    +0.000 A 
ATOM      9  C   UNL     1       2.558   5.611  19.814  0.00  0.00    +0.000 A 
ATOM     10  N   UNL     1       3.085   4.305  19.753  0.00  0.00    +0.000 N 
ATOM     11  C   UNL     1       2.854   3.157  20.492  0.00  0.00    +0.000 A 
ATOM     12  S   UNL     1       1.848   2.784  21.754  0.00  0.00    +0.000 S 
ATOM     13  N   UNL     1       3.709   2.195  19.961  0.00  0.00    +0.000 N 
ATOM     14  N   UNL     1       4.433   2.712  18.937  0.00  0.00    +0.000 NA
ATOM     15  C   UNL     1       4.022   3.942  18.844  0.00  0.00    +0.000 A 
ATOM     16  N   UNL     1       4.473   4.825  17.906  0.00  0.00    +0.000 N 
ATOM     17  H   UNL     1       3.785   1.224  20.243  0.00  0.00    +0.000 HD
ENDROOT
BRANCH  16  18
ATOM     18  C   UNL     1       5.496   4.401  16.941  0.00  0.00    +0.000 C 
BRANCH  18  19
ATOM     19  C   UNL     1       4.917   3.945  15.589  0.00  0.00    +0.000 C 
BRANCH  19  20
ATOM     20  C   UNL     1       5.788   4.122  14.358  0.00  0.00    +0.000 A 
ATOM     21  C   UNL     1       5.508   3.475  13.141  0.00  0.00    +0.000 A 
ATOM     22  C   UNL     1       6.350   3.626  12.035  0.00  0.00    +0.000 A 
ATOM     23  C   UNL     1       7.480   4.433  12.117  0.00  0.00    +0.000 A 
ATOM     24  C   UNL     1       7.763   5.104  13.302  0.00  0.00    +0.000 A 
ATOM     25  C   UNL     1       6.926   4.951  14.413  0.00  0.00    +0.000 A 
ATOM     26 CL   UNL     1       7.350   5.825  15.846  0.00  0.00    +0.000 Cl
ENDBRANCH  19  20
ENDBRANCH  18  19
ENDBRANCH  16  18
TORSDOF 3
ENDMDL
MODEL 6
REMARK VINA RESULT:      -7.3      2.777      3.916
REMARK  Name = 
REMARK  3 active torsions:
REMARK  status: ('A' for Active; 'I' for Inactive)
REMARK    1  A    between atoms: N_16  and  C_17
REMARK    2  A    between atoms: C_17  and  C_18
REMARK    3  A    between atoms: C_18  and  C_19
REMARK                            x       y       z     vdW  Elec       q    Type
REMARK                         _______ _______ _______ _____ _____    ______ ____
ROOT
ATOM      1  O   UNL     1       3.348   8.543  17.115  0.00  0.00    +0.000 OA
ATOM      2  C   UNL     1       3.283   7.507  17.773  0.00  0.00    +0.000 A 
ATOM      3  C   UNL     1       4.069   6.330  17.335  0.00  0.00    +0.000 A 
ATOM      4  C   UNL     1       4.858   6.439  16.180  0.00  0.00    +0.000 A 
ATOM      5  C   UNL     1       5.604   5.349  15.760  0.00  0.00    +0.000 A 
ATOM      6  F   UNL     1       6.357   5.444  14.659  0.00  0.00    +0.000 F 
ATOM      7  C   UNL     1       5.574   4.160  16.472  0.00  0.00    +0.000 A 
ATOM      8  C   UNL     1       4.782   4.053  17.622  0.00  0.00    +0.000 A 
ATOM      9  C   UNL     1       4.014   5.136  18.072  0.00  0.00    +0.000 A 
ATOM     10  N   UNL     1       3.179   5.106  19.207  0.00  0.00    +0.000 N 
ATOM     11  C   UNL     1       2.889   4.127  20.141  0.00  0.00    +0.000 A 
ATOM     12  S   UNL     1       3.403   2.569  20.372  0.00  0.00    +0.000 S 
ATOM     13  N   UNL     1       1.963   4.702  21.008  0.00  0.00    +0.000 N 
ATOM     14  N   UNL     1       1.692   5.979  20.638  0.00  0.00    +0.000 NA
ATOM     15  C   UNL     1       2.437   6.174  19.590  0.00  0.00    +0.000 A 
ATOM     16  N   UNL     1       2.500   7.356  18.912  0.00  0.00    +0.000 N 
ATOM     17  H   UNL     1       1.553   4.277  21.832  0.00  0.00    +0.000 HD
ENDROOT
BRANCH  16  18
ATOM     18  C   UNL     1       1.674   8.489  19.350  0.00  0.00    +0.000 C 
BRANCH  18  19
ATOM     19  C   UNL     1       1.240   9.416  18.199  0.00  0.00    +0.000 C 
BRANCH  19  20
ATOM     20  C   UNL     1      -0.098  10.121  18.334  0.00  0.00    +0.000 A 
ATOM     21  C   UNL     1      -1.234   9.721  17.608  0.00  0.00    +0.000 A 
ATOM     22  C   UNL     1      -2.443  10.414  17.723  0.00  0.00    +0.000 A 
ATOM     23  C   UNL     1      -2.546  11.513  18.570  0.00  0.00    +0.000 A 
ATOM     24  C   UNL     1      -1.442  11.912  19.317  0.00  0.00    +0.000 A 
ATOM     25  C   UNL     1      -0.229  11.224  19.201  0.00  0.00    +0.000 A 
ATOM     26 CL   UNL     1       1.091  11.785  20.170  0.00  0.00    +0.000 Cl
ENDBRANCH  19  20
ENDBRANCH  18  19
ENDBRANCH  16  18
TORSDOF 3
ENDMDL
MODEL 7
REMARK VINA RESULT:      -7.3      1.536      1.691
REMARK  Name = 
REMARK  3 active torsions:
REMARK  status: ('A' for Active; 'I' for Inactive)
REMARK    1  A    between atoms: N_16  and  C_17
REMARK    2  A    between atoms: C_17  and  C_18
REMARK    3  A    between atoms: C_18  and  C_19
REMARK                            x       y       z     vdW  Elec       q    Type
REMARK                         _______ _______ _______ _____ _____    ______ ____
ROOT
ATOM      1  O   UNL     1       1.823   6.684  19.833  0.00  0.00    +0.000 OA
ATOM      2  C   UNL     1       2.582   6.269  18.960  0.00  0.00    +0.000 A 
ATOM      3  C   UNL     1       2.781   4.808  18.820  0.00  0.00    +0.000 A 
ATOM      4  C   UNL     1       2.099   3.948  19.694  0.00  0.00    +0.000 A 
ATOM      5  C   UNL     1       2.270   2.578  19.574  0.00  0.00    +0.000 A 
ATOM      6  F   UNL     1       1.626   1.752  20.404  0.00  0.00    +0.000 F 
ATOM      7  C   UNL     1       3.108   2.058  18.599  0.00  0.00    +0.000 A 
ATOM      8  C   UNL     1       3.791   2.918  17.731  0.00  0.00    +0.000 A 
ATOM      9  C   UNL     1       3.640   4.309  17.828  0.00  0.00    +0.000 A 
ATOM     10  N   UNL     1       4.303   5.243  17.007  0.00  0.00    +0.000 N 
ATOM     11  C   UNL     1       5.196   5.113  15.957  0.00  0.00    +0.000 A 
ATOM     12  S   UNL     1       5.869   3.818  15.173  0.00  0.00    +0.000 S 
ATOM     13  N   UNL     1       5.514   6.414  15.575  0.00  0.00    +0.000 N 
ATOM     14  N   UNL     1       4.848   7.313  16.343  0.00  0.00    +0.000 NA
ATOM     15  C   UNL     1       4.143   6.581  17.154  0.00  0.00    +0.000 A 
ATOM     16  N   UNL     1       3.287   7.090  18.087  0.00  0.00    +0.000 N 
ATOM     17  H   UNL     1       6.121   6.695  14.814  0.00  0.00    +0.000 HD
ENDROOT
BRANCH  16  18
ATOM     18  C   UNL     1       3.145   8.546  18.225  0.00  0.00    +0.000 C 
BRANCH  18  19
ATOM     19  C   UNL     1       1.767   9.074  17.786  0.00  0.00    +0.000 C 
BRANCH  19  20
ATOM     20  C   UNL     1       1.048  10.024  18.728  0.00  0.00    +0.000 A 
ATOM     21  C   UNL     1       0.003   9.601  19.568  0.00  0.00    +0.000 A 
ATOM     22  C   UNL     1      -0.668  10.507  20.395  0.00  0.00    +0.000 A 
ATOM     23  C   UNL     1      -0.302  11.849  20.410  0.00  0.00    +0.000 A 
ATOM     24  C   UNL     1       0.745  12.286  19.606  0.00  0.00    +0.000 A 
ATOM     25  C   UNL     1       1.415  11.384  18.772  0.00  0.00    +0.000 A 
ATOM     26 CL   UNL     1       2.710  12.012  17.809  0.00  0.00    +0.000 Cl
ENDBRANCH  19  20
ENDBRANCH  18  19
ENDBRANCH  16  18
TORSDOF 3
ENDMDL
MODEL 8
REMARK VINA RESULT:      -7.2      3.694      6.505
REMARK  Name = 
REMARK  3 active torsions:
REMARK  status: ('A' for Active; 'I' for Inactive)
REMARK    1  A    between atoms: N_16  and  C_17
REMARK    2  A    between atoms: C_17  and  C_18
REMARK    3  A    between atoms: C_18  and  C_19
REMARK                            x       y       z     vdW  Elec       q    Type
REMARK                         _______ _______ _______ _____ _____    ______ ____
ROOT
ATOM      1  O   UNL     1       3.841   6.694  16.729  0.00  0.00    +0.000 OA
ATOM      2  C   UNL     1       3.477   5.877  17.572  0.00  0.00    +0.000 A 
ATOM      3  C   UNL     1       2.712   6.355  18.747  0.00  0.00    +0.000 A 
ATOM      4  C   UNL     1       2.433   7.726  18.859  0.00  0.00    +0.000 A 
ATOM      5  C   UNL     1       1.714   8.188  19.949  0.00  0.00    +0.000 A 
ATOM      6  F   UNL     1       1.447   9.493  20.064  0.00  0.00    +0.000 F 
ATOM      7  C   UNL     1       1.271   7.308  20.924  0.00  0.00    +0.000 A 
ATOM      8  C   UNL     1       1.554   5.940  20.813  0.00  0.00    +0.000 A 
ATOM      9  C   UNL     1       2.281   5.441  19.723  0.00  0.00    +0.000 A 
ATOM     10  N   UNL     1       2.623   4.085  19.545  0.00  0.00    +0.000 N 
ATOM     11  C   UNL     1       2.372   2.942  20.284  0.00  0.00    +0.000 A 
ATOM     12  S   UNL     1       1.543   2.638  21.686  0.00  0.00    +0.000 S 
ATOM     13  N   UNL     1       3.001   1.908  19.596  0.00  0.00    +0.000 N 
ATOM     14  N   UNL     1       3.610   2.379  18.479  0.00  0.00    +0.000 NA
ATOM     15  C   UNL     1       3.348   3.653  18.484  0.00  0.00    +0.000 A 
ATOM     16  N   UNL     1       3.748   4.515  17.505  0.00  0.00    +0.000 N 
ATOM     17  H   UNL     1       2.999   0.924  19.839  0.00  0.00    +0.000 HD
ENDROOT
BRANCH  16  18
ATOM     18  C   UNL     1       4.540   4.013  16.375  0.00  0.00    +0.000 C 
BRANCH  18  19
ATOM     19  C   UNL     1       6.027   3.797  16.713  0.00  0.00    +0.000 C 
BRANCH  19  20
ATOM     20  C   UNL     1       6.773   4.950  17.363  0.00  0.00    +0.000 A 
ATOM     21  C   UNL     1       7.195   4.910  18.703  0.00  0.00    +0.000 A 
ATOM     22  C   UNL     1       7.846   6.002  19.286  0.00  0.00    +0.000 A 
ATOM     23  C   UNL     1       8.097   7.150  18.541  0.00  0.00    +0.000 A 
ATOM     24  C   UNL     1       7.711   7.203  17.206  0.00  0.00    +0.000 A 
ATOM     25  C   UNL     1       7.055   6.114  16.620  0.00  0.00    +0.000 A 
ATOM     26 CL   UNL     1       6.614   6.263  14.953  0.00  0.00    +0.000 Cl
ENDBRANCH  19  20
ENDBRANCH  18  19
ENDBRANCH  16  18
TORSDOF 3
ENDMDL
MODEL 9
REMARK VINA RESULT:      -7.2      4.127      7.553
REMARK  Name = 
REMARK  3 active torsions:
REMARK  status: ('A' for Active; 'I' for Inactive)
REMARK    1  A    between atoms: N_16  and  C_17
REMARK    2  A    between atoms: C_17  and  C_18
REMARK    3  A    between atoms: C_18  and  C_19
REMARK                            x       y       z     vdW  Elec       q    Type
REMARK                         _______ _______ _______ _____ _____    ______ ____
ROOT
ATOM      1  O   UNL     1       4.911   6.718  16.231  0.00  0.00    +0.000 OA
ATOM      2  C   UNL     1       4.460   6.051  17.159  0.00  0.00    +0.000 A 
ATOM      3  C   UNL     1       3.461   6.667  18.064  0.00  0.00    +0.000 A 
ATOM      4  C   UNL     1       3.069   7.994  17.831  0.00  0.00    +0.000 A 
ATOM      5  C   UNL     1       2.132   8.583  18.665  0.00  0.00    +0.000 A 
ATOM      6  F   UNL     1       1.754   9.848  18.451  0.00  0.00    +0.000 F 
ATOM      7  C   UNL     1       1.585   7.871  19.721  0.00  0.00    +0.000 A 
ATOM      8  C   UNL     1       1.981   6.549  19.954  0.00  0.00    +0.000 A 
ATOM      9  C   UNL     1       2.928   5.925  19.129  0.00  0.00    +0.000 A 
ATOM     10  N   UNL     1       3.394   4.606  19.305  0.00  0.00    +0.000 N 
ATOM     11  C   UNL     1       3.097   3.613  20.222  0.00  0.00    +0.000 A 
ATOM     12  S   UNL     1       2.052   3.505  21.503  0.00  0.00    +0.000 S 
ATOM     13  N   UNL     1       3.914   2.537  19.884  0.00  0.00    +0.000 N 
ATOM     14  N   UNL     1       4.680   2.839  18.806  0.00  0.00    +0.000 NA
ATOM     15  C   UNL     1       4.329   4.053  18.495  0.00  0.00    +0.000 A 
ATOM     16  N   UNL     1       4.837   4.741  17.431  0.00  0.00    +0.000 N 
ATOM     17  H   UNL     1       3.939   1.627  20.329  0.00  0.00    +0.000 HD
ENDROOT
BRANCH  16  18
ATOM     18  C   UNL     1       5.856   4.113  16.580  0.00  0.00    +0.000 C 
BRANCH  18  19
ATOM     19  C   UNL     1       5.391   3.887  15.129  0.00  0.00    +0.000 C 
BRANCH  19  20
ATOM     20  C   UNL     1       6.322   4.335  14.016  0.00  0.00    +0.000 A 
ATOM     21  C   UNL     1       7.396   5.212  14.243  0.00  0.00    +0.000 A 
ATOM     22  C   UNL     1       8.213   5.638  13.191  0.00  0.00    +0.000 A 
ATOM     23  C   UNL     1       7.981   5.189  11.895  0.00  0.00    +0.000 A 
ATOM     24  C   UNL     1       6.940   4.300  11.650  0.00  0.00    +0.000 A 
ATOM     25  C   UNL     1       6.117   3.876  12.699  0.00  0.00    +0.000 A 
ATOM     26 CL   UNL     1       4.847   2.766  12.306  0.00  0.00    +0.000 Cl
ENDBRANCH  19  20
ENDBRANCH  18  19
ENDBRANCH  16  18
TORSDOF 3
ENDMDL
