MODEL 1
REMARK VINA RESULT:      -7.5      0.000      0.000
REMARK  Name = 
REMARK  7 active torsions:
REMARK  status: ('A' for Active; 'I' for Inactive)
REMARK    1  A    between atoms: C_1  and  C_2
REMARK    2  A    between atoms: C_4  and  N_5
REMARK    3  A    between atoms: N_5  and  C_6
REMARK    4  A    between atoms: N_5  and  C_7
REMARK    5  A    between atoms: C_10  and  S_11
REMARK    6  A    between atoms: S_11  and  C_12
REMARK    7  A    between atoms: C_12  and  C_13
REMARK                            x       y       z     vdW  Elec       q    Type
REMARK                         _______ _______ _______ _____ _____    ______ ____
ROOT
ATOM      1  C   UNL     1       1.584   2.761  21.806  0.00  0.00    +0.000 C 
ATOM      2  C   UNL     1       2.119   3.542  20.630  0.00  0.00    +0.000 A 
ATOM      3  C   UNL     1       1.863   5.012  20.626  0.00  0.00    +0.000 A 
ATOM      4  C   UNL     1       2.349   5.741  19.601  0.00  0.00    +0.000 A 
ATOM      5  N   UNL     1       3.050   5.025  18.584  0.00  0.00    +0.000 N 
ATOM      6  N   UNL     1       3.605   5.475  17.428  0.00  0.00    +0.000 NA
ATOM      7  C   UNL     1       4.118   4.369  16.897  0.00  0.00    +0.000 A 
ATOM      8  N   UNL     1       3.910   3.224  17.598  0.00  0.00    +0.000 NA
ATOM      9  C   UNL     1       3.237   3.632  18.659  0.00  0.00    +0.000 A 
ATOM     10  N   UNL     1       2.764   2.893  19.707  0.00  0.00    +0.000 NA
ENDROOT
BRANCH   4  11
ATOM     11  N   UNL     1       2.179   7.144  19.528  0.00  0.00    +0.000 N 
ATOM     12  C   UNL     1       1.632   7.949  20.624  0.00  0.00    +0.000 C 
ATOM     13  C   UNL     1       2.448   7.931  18.319  0.00  0.00    +0.000 C 
ENDBRANCH   4  11
BRANCH   7  14
ATOM     14  S   UNL     1       5.062   4.488  15.438  0.00  0.00    +0.000 S 
BRANCH  14  15
ATOM     15  C   UNL     1       6.728   4.081  16.022  0.00  0.00    +0.000 C 
BRANCH  15  16
ATOM     16  C   UNL     1       7.234   5.148  16.974  0.00  0.00    +0.000 A 
ATOM     17  C   UNL     1       7.668   4.805  18.263  0.00  0.00    +0.000 A 
ATOM     18  C   UNL     1       8.086   5.790  19.163  0.00  0.00    +0.000 A 
ATOM     19  C   UNL     1       8.071   7.131  18.787  0.00  0.00    +0.000 A 
ATOM     20  C   UNL     1       7.639   7.487  17.510  0.00  0.00    +0.000 A 
ATOM     21  C   UNL     1       7.221   6.504  16.610  0.00  0.00    +0.000 A 
ENDBRANCH  15  16
ENDBRANCH  14  15
ENDBRANCH   7  14
TORSDOF 4
ENDMDL
MODEL 2
REMARK VINA RESULT:      -7.5      0.115      1.300
REMARK  Name = 
REMARK  7 active torsions:
REMARK  status: ('A' for Active; 'I' for Inactive)
REMARK    1  A    between atoms: C_1  and  C_2
REMARK    2  A    between atoms: C_4  and  N_5
REMARK    3  A    between atoms: N_5  and  C_6
REMARK    4  A    between atoms: N_5  and  C_7
REMARK    5  A    between atoms: C_10  and  S_11
REMARK    6  A    between atoms: S_11  and  C_12
REMARK    7  A    between atoms: C_12  and  C_13
REMARK                            x       y       z     vdW  Elec       q    Type
REMARK                         _______ _______ _______ _____ _____    ______ ____
ROOT
ATOM      1  C   UNL     1       1.492   2.605  21.694  0.00  0.00    +0.000 C 
ATOM      2  C   UNL     1       2.057   3.405  20.545  0.00  0.00    +0.000 A 
ATOM      3  C   UNL     1       1.815   4.877  20.566  0.00  0.00    +0.000 A 
ATOM      4  C   UNL     1       2.327   5.621  19.565  0.00  0.00    +0.000 A 
ATOM      5  N   UNL     1       3.042   4.919  18.548  0.00  0.00    +0.000 N 
ATOM      6  N   UNL     1       3.624   5.387  17.413  0.00  0.00    +0.000 NA
ATOM      7  C   UNL     1       4.138   4.287  16.870  0.00  0.00    +0.000 A 
ATOM      8  N   UNL     1       3.907   3.130  17.544  0.00  0.00    +0.000 NA
ATOM      9  C   UNL     1       3.216   3.523  18.599  0.00  0.00    +0.000 A 
ATOM     10  N   UNL     1       2.716   2.768  19.622  0.00  0.00    +0.000 NA
ENDROOT
BRANCH   4  11
ATOM     11  N   UNL     1       2.170   7.027  19.516  0.00  0.00    +0.000 N 
ATOM     12  C   UNL     1       2.511   7.836  18.342  0.00  0.00    +0.000 C 
ATOM     13  C   UNL     1       1.734   7.834  20.661  0.00  0.00    +0.000 C 
ENDBRANCH   4  11
BRANCH   7  14
ATOM     14  S   UNL     1       5.113   4.426  15.433  0.00  0.00    +0.000 S 
BRANCH  14  15
ATOM     15  C   UNL     1       6.778   4.088  16.061  0.00  0.00    +0.000 C 
BRANCH  15  16
ATOM     16  C   UNL     1       7.209   5.169  17.034  0.00  0.00    +0.000 A 
ATOM     17  C   UNL     1       7.226   6.516  16.641  0.00  0.00    +0.000 A 
ATOM     18  C   UNL     1       7.673   7.511  17.516  0.00  0.00    +0.000 A 
ATOM     19  C   UNL     1       8.112   7.171  18.794  0.00  0.00    +0.000 A 
ATOM     20  C   UNL     1       8.103   5.837  19.197  0.00  0.00    +0.000 A 
ATOM     21  C   UNL     1       7.658   4.841  18.323  0.00  0.00    +0.000 A 
ENDBRANCH  15  16
ENDBRANCH  14  15
ENDBRANCH   7  14
TORSDOF 4
ENDMDL
MODEL 3
REMARK VINA RESULT:      -7.2      3.508      5.685
REMARK  Name = 
REMARK  7 active torsions:
REMARK  status: ('A' for Active; 'I' for Inactive)
REMARK    1  A    between atoms: C_1  and  C_2
REMARK    2  A    between atoms: C_4  and  N_5
REMARK    3  A    between atoms: N_5  and  C_6
REMARK    4  A    between atoms: N_5  and  C_7
REMARK    5  A    between atoms: C_10  and  S_11
REMARK    6  A    between atoms: S_11  and  C_12
REMARK    7  A    between atoms: C_12  and  C_13
REMARK                            x       y       z     vdW  Elec       q    Type
REMARK                         _______ _______ _______ _____ _____    ______ ____
ROOT
ATOM      1  C   UNL     1       5.460   3.776  13.373  0.00  0.00    +0.000 C 
ATOM      2  C   UNL     1       5.680   4.437  14.713  0.00  0.00    +0.000 A 
ATOM      3  C   UNL     1       4.729   4.078  15.805  0.00  0.00    +0.000 A 
ATOM      4  C   UNL     1       4.914   4.634  17.019  0.00  0.00    +0.000 A 
ATOM      5  N   UNL     1       6.002   5.550  17.144  0.00  0.00    +0.000 N 
ATOM      6  N   UNL     1       6.402   6.286  18.213  0.00  0.00    +0.000 NA
ATOM      7  C   UNL     1       7.461   6.938  17.744  0.00  0.00    +0.000 A 
ATOM      8  N   UNL     1       7.764   6.714  16.438  0.00  0.00    +0.000 NA
ATOM      9  C   UNL     1       6.848   5.842  16.057  0.00  0.00    +0.000 A 
ATOM     10  N   UNL     1       6.676   5.265  14.830  0.00  0.00    +0.000 NA
ENDROOT
BRANCH   4  11
ATOM     11  N   UNL     1       4.079   4.332  18.121  0.00  0.00    +0.000 N 
ATOM     12  C   UNL     1       2.901   5.127  18.483  0.00  0.00    +0.000 C 
ATOM     13  C   UNL     1       4.349   3.246  19.069  0.00  0.00    +0.000 C 
ENDBRANCH   4  11
BRANCH   7  14
ATOM     14  S   UNL     1       8.400   7.927  18.828  0.00  0.00    +0.000 S 
BRANCH  14  15
ATOM     15  C   UNL     1       8.296   9.559  18.050  0.00  0.00    +0.000 C 
BRANCH  15  16
ATOM     16  C   UNL     1       9.343  10.493  18.627  0.00  0.00    +0.000 A 
ATOM     17  C   UNL     1      10.325  11.061  17.802  0.00  0.00    +0.000 A 
ATOM     18  C   UNL     1      11.323  11.879  18.338  0.00  0.00    +0.000 A 
ATOM     19  C   UNL     1      11.356  12.138  19.706  0.00  0.00    +0.000 A 
ATOM     20  C   UNL     1      10.388  11.578  20.539  0.00  0.00    +0.000 A 
ATOM     21  C   UNL     1       9.390  10.758  20.006  0.00  0.00    +0.000 A 
ENDBRANCH  15  16
ENDBRANCH  14  15
ENDBRANCH   7  14
TORSDOF 4
ENDMDL
MODEL 4
REMARK VINA RESULT:      -7.1      1.728      2.730
REMARK  Name = 
REMARK  7 active torsions:
REMARK  status: ('A' for Active; 'I' for Inactive)
REMARK    1  A    between atoms: C_1  and  C_2
REMARK    2  A    between atoms: C_4  and  N_5
REMARK    3  A    between atoms: N_5  and  C_6
REMARK    4  A    between atoms: N_5  and  C_7
REMARK    5  A    between atoms: C_10  and  S_11
REMARK    6  A    between atoms: S_11  and  C_12
REMARK    7  A    between atoms: C_12  and  C_13
REMARK                            x       y       z     vdW  Elec       q    Type
REMARK                         _______ _______ _______ _____ _____    ______ ____
ROOT
ATOM      1  C   UNL     1       0.942   2.238  19.778  0.00  0.00    +0.000 C 
ATOM      2  C   UNL     1       1.999   3.312  19.683  0.00  0.00    +0.000 A 
ATOM      3  C   UNL     1       1.528   4.727  19.740  0.00  0.00    +0.000 A 
ATOM      4  C   UNL     1       2.451   5.708  19.681  0.00  0.00    +0.000 A 
ATOM      5  N   UNL     1       3.811   5.299  19.540  0.00  0.00    +0.000 N 
ATOM      6  N   UNL     1       4.937   6.049  19.413  0.00  0.00    +0.000 NA
ATOM      7  C   UNL     1       5.895   5.131  19.326  0.00  0.00    +0.000 A 
ATOM      8  N   UNL     1       5.479   3.837  19.350  0.00  0.00    +0.000 NA
ATOM      9  C   UNL     1       4.169   3.938  19.483  0.00  0.00    +0.000 A 
ATOM     10  N   UNL     1       3.239   2.941  19.563  0.00  0.00    +0.000 NA
ENDROOT
BRANCH   4  11
ATOM     11  N   UNL     1       2.100   7.077  19.755  0.00  0.00    +0.000 N 
ATOM     12  C   UNL     1       1.494   7.692  20.940  0.00  0.00    +0.000 C 
ATOM     13  C   UNL     1       2.223   8.008  18.628  0.00  0.00    +0.000 C 
ENDBRANCH   4  11
BRANCH   7  14
ATOM     14  S   UNL     1       7.560   5.642  19.280  0.00  0.00    +0.000 S 
BRANCH  14  15
ATOM     15  C   UNL     1       7.621   6.619  17.756  0.00  0.00    +0.000 C 
BRANCH  15  16
ATOM     16  C   UNL     1       6.913   5.893  16.629  0.00  0.00    +0.000 A 
ATOM     17  C   UNL     1       5.785   6.458  16.015  0.00  0.00    +0.000 A 
ATOM     18  C   UNL     1       5.097   5.768  15.012  0.00  0.00    +0.000 A 
ATOM     19  C   UNL     1       5.526   4.505  14.611  0.00  0.00    +0.000 A 
ATOM     20  C   UNL     1       6.643   3.930  15.214  0.00  0.00    +0.000 A 
ATOM     21  C   UNL     1       7.332   4.617  16.218  0.00  0.00    +0.000 A 
ENDBRANCH  15  16
ENDBRANCH  14  15
ENDBRANCH   7  14
TORSDOF 4
ENDMDL
MODEL 5
REMARK VINA RESULT:      -7.1      1.782      2.585
REMARK  Name = 
REMARK  7 active torsions:
REMARK  status: ('A' for Active; 'I' for Inactive)
REMARK    1  A    between atoms: C_1  and  C_2
REMARK    2  A    between atoms: C_4  and  N_5
REMARK    3  A    between atoms: N_5  and  C_6
REMARK    4  A    between atoms: N_5  and  C_7
REMARK    5  A    between atoms: C_10  and  S_11
REMARK    6  A    between atoms: S_11  and  C_12
REMARK    7  A    between atoms: C_12  and  C_13
REMARK                            x       y       z     vdW  Elec       q    Type
REMARK                         _______ _______ _______ _____ _____    ______ ____
ROOT
ATOM      1  C   UNL     1       0.883   2.200  19.135  0.00  0.00    +0.000 C 
ATOM      2  C   UNL     1       1.949   3.265  19.231  0.00  0.00    +0.000 A 
ATOM      3  C   UNL     1       1.481   4.672  19.399  0.00  0.00    +0.000 A 
ATOM      4  C   UNL     1       2.410   5.643  19.510  0.00  0.00    +0.000 A 
ATOM      5  N   UNL     1       3.775   5.234  19.430  0.00  0.00    +0.000 N 
ATOM      6  N   UNL     1       4.911   5.979  19.466  0.00  0.00    +0.000 NA
ATOM      7  C   UNL     1       5.869   5.063  19.356  0.00  0.00    +0.000 A 
ATOM      8  N   UNL     1       5.447   3.779  19.215  0.00  0.00    +0.000 NA
ATOM      9  C   UNL     1       4.131   3.882  19.260  0.00  0.00    +0.000 A 
ATOM     10  N   UNL     1       3.192   2.893  19.166  0.00  0.00    +0.000 NA
ENDROOT
BRANCH   4  11
ATOM     11  N   UNL     1       2.060   7.001  19.699  0.00  0.00    +0.000 N 
ATOM     12  C   UNL     1       1.494   7.523  20.946  0.00  0.00    +0.000 C 
ATOM     13  C   UNL     1       2.144   8.015  18.641  0.00  0.00    +0.000 C 
ENDBRANCH   4  11
BRANCH   7  14
ATOM     14  S   UNL     1       7.534   5.557  19.488  0.00  0.00    +0.000 S 
BRANCH  14  15
ATOM     15  C   UNL     1       7.773   6.519  17.973  0.00  0.00    +0.000 C 
BRANCH  15  16
ATOM     16  C   UNL     1       6.986   5.912  16.827  0.00  0.00    +0.000 A 
ATOM     17  C   UNL     1       7.388   4.697  16.251  0.00  0.00    +0.000 A 
ATOM     18  C   UNL     1       6.698   4.160  15.161  0.00  0.00    +0.000 A 
ATOM     19  C   UNL     1       5.599   4.831  14.630  0.00  0.00    +0.000 A 
ATOM     20  C   UNL     1       5.190   6.039  15.190  0.00  0.00    +0.000 A 
ATOM     21  C   UNL     1       5.879   6.579  16.279  0.00  0.00    +0.000 A 
ENDBRANCH  15  16
ENDBRANCH  14  15
ENDBRANCH   7  14
TORSDOF 4
ENDMDL
MODEL 6
REMARK VINA RESULT:      -7.1      1.982      5.610
REMARK  Name = 
REMARK  7 active torsions:
REMARK  status: ('A' for Active; 'I' for Inactive)
REMARK    1  A    between atoms: C_1  and  C_2
REMARK    2  A    between atoms: C_4  and  N_5
REMARK    3  A    between atoms: N_5  and  C_6
REMARK    4  A    between atoms: N_5  and  C_7
REMARK    5  A    between atoms: C_10  and  S_11
REMARK    6  A    between atoms: S_11  and  C_12
REMARK    7  A    between atoms: C_12  and  C_13
REMARK                            x       y       z     vdW  Elec       q    Type
REMARK                         _______ _______ _______ _____ _____    ______ ____
ROOT
ATOM      1  C   UNL     1       6.644   4.212  13.512  0.00  0.00    +0.000 C 
ATOM      2  C   UNL     1       6.307   4.284  14.982  0.00  0.00    +0.000 A 
ATOM      3  C   UNL     1       7.106   5.235  15.809  0.00  0.00    +0.000 A 
ATOM      4  C   UNL     1       6.814   5.340  17.121  0.00  0.00    +0.000 A 
ATOM      5  N   UNL     1       5.770   4.499  17.612  0.00  0.00    +0.000 N 
ATOM      6  N   UNL     1       5.291   4.354  18.875  0.00  0.00    +0.000 NA
ATOM      7  C   UNL     1       4.329   3.449  18.724  0.00  0.00    +0.000 A 
ATOM      8  N   UNL     1       4.166   2.962  17.466  0.00  0.00    +0.000 NA
ATOM      9  C   UNL     1       5.072   3.619  16.764  0.00  0.00    +0.000 A 
ATOM     10  N   UNL     1       5.352   3.526  15.429  0.00  0.00    +0.000 NA
ENDROOT
BRANCH   4  11
ATOM     11  N   UNL     1       7.500   6.234  17.977  0.00  0.00    +0.000 N 
ATOM     12  C   UNL     1       8.019   5.854  19.294  0.00  0.00    +0.000 C 
ATOM     13  C   UNL     1       7.690   7.658  17.677  0.00  0.00    +0.000 C 
ENDBRANCH   4  11
BRANCH   7  14
ATOM     14  S   UNL     1       3.328   3.037  20.089  0.00  0.00    +0.000 S 
BRANCH  14  15
ATOM     15  C   UNL     1       1.747   3.808  19.655  0.00  0.00    +0.000 C 
BRANCH  15  16
ATOM     16  C   UNL     1       1.914   5.307  19.486  0.00  0.00    +0.000 A 
ATOM     17  C   UNL     1       1.732   6.171  20.576  0.00  0.00    +0.000 A 
ATOM     18  C   UNL     1       1.833   7.556  20.414  0.00  0.00    +0.000 A 
ATOM     19  C   UNL     1       2.114   8.095  19.161  0.00  0.00    +0.000 A 
ATOM     20  C   UNL     1       2.294   7.248  18.069  0.00  0.00    +0.000 A 
ATOM     21  C   UNL     1       2.193   5.863  18.227  0.00  0.00    +0.000 A 
ENDBRANCH  15  16
ENDBRANCH  14  15
ENDBRANCH   7  14
TORSDOF 4
ENDMDL
MODEL 7
REMARK VINA RESULT:      -7.1      0.906      3.017
REMARK  Name = 
REMARK  7 active torsions:
REMARK  status: ('A' for Active; 'I' for Inactive)
REMARK    1  A    between atoms: C_1  and  C_2
REMARK    2  A    between atoms: C_4  and  N_5
REMARK    3  A    between atoms: N_5  and  C_6
REMARK    4  A    between atoms: N_5  and  C_7
REMARK    5  A    between atoms: C_10  and  S_11
REMARK    6  A    between atoms: S_11  and  C_12
REMARK    7  A    between atoms: C_12  and  C_13
REMARK                            x       y       z     vdW  Elec       q    Type
REMARK                         _______ _______ _______ _____ _____    ______ ____
ROOT
ATOM      1  C   UNL     1       1.410   8.003  20.871  0.00  0.00    +0.000 C 
ATOM      2  C   UNL     1       2.064   6.930  20.034  0.00  0.00    +0.000 A 
ATOM      3  C   UNL     1       1.918   5.523  20.510  0.00  0.00    +0.000 A 
ATOM      4  C   UNL     1       2.472   4.541  19.771  0.00  0.00    +0.000 A 
ATOM      5  N   UNL     1       3.181   4.944  18.599  0.00  0.00    +0.000 N 
ATOM      6  N   UNL     1       3.867   4.196  17.697  0.00  0.00    +0.000 NA
ATOM      7  C   UNL     1       4.302   5.105  16.829  0.00  0.00    +0.000 A 
ATOM      8  N   UNL     1       3.984   6.395  17.114  0.00  0.00    +0.000 NA
ATOM      9  C   UNL     1       3.279   6.298  18.227  0.00  0.00    +0.000 A 
ATOM     10  N   UNL     1       2.702   7.295  18.963  0.00  0.00    +0.000 NA
ENDROOT
BRANCH   4  11
ATOM     11  N   UNL     1       2.362   3.176  20.129  0.00  0.00    +0.000 N 
ATOM     12  C   UNL     1       1.190   2.352  19.820  0.00  0.00    +0.000 C 
ATOM     13  C   UNL     1       3.368   2.462  20.924  0.00  0.00    +0.000 C 
ENDBRANCH   4  11
BRANCH   7  14
ATOM     14  S   UNL     1       5.142   4.578  15.396  0.00  0.00    +0.000 S 
BRANCH  14  15
ATOM     15  C   UNL     1       6.798   4.214  16.031  0.00  0.00    +0.000 C 
BRANCH  15  16
ATOM     16  C   UNL     1       7.235   5.278  17.020  0.00  0.00    +0.000 A 
ATOM     17  C   UNL     1       7.311   6.624  16.631  0.00  0.00    +0.000 A 
ATOM     18  C   UNL     1       7.764   7.601  17.524  0.00  0.00    +0.000 A 
ATOM     19  C   UNL     1       8.149   7.245  18.814  0.00  0.00    +0.000 A 
ATOM     20  C   UNL     1       8.081   5.911  19.213  0.00  0.00    +0.000 A 
ATOM     21  C   UNL     1       7.630   4.933  18.323  0.00  0.00    +0.000 A 
ENDBRANCH  15  16
ENDBRANCH  14  15
ENDBRANCH   7  14
TORSDOF 4
ENDMDL
MODEL 8
REMARK VINA RESULT:      -7.0      1.964      3.113
REMARK  Name = 
REMARK  7 active torsions:
REMARK  status: ('A' for Active; 'I' for Inactive)
REMARK    1  A    between atoms: C_1  and  C_2
REMARK    2  A    between atoms: C_4  and  N_5
REMARK    3  A    between atoms: N_5  and  C_6
REMARK    4  A    between atoms: N_5  and  C_7
REMARK    5  A    between atoms: C_10  and  S_11
REMARK    6  A    between atoms: S_11  and  C_12
REMARK    7  A    between atoms: C_12  and  C_13
REMARK                            x       y       z     vdW  Elec       q    Type
REMARK                         _______ _______ _______ _____ _____    ______ ____
ROOT
ATOM      1  C   UNL     1       1.803   2.919  21.470  0.00  0.00    +0.000 C 
ATOM      2  C   UNL     1       2.373   4.009  20.594  0.00  0.00    +0.000 A 
ATOM      3  C   UNL     1       1.789   5.373  20.750  0.00  0.00    +0.000 A 
ATOM      4  C   UNL     1       2.293   6.372  19.998  0.00  0.00    +0.000 A 
ATOM      5  N   UNL     1       3.337   6.023  19.089  0.00  0.00    +0.000 N 
ATOM      6  N   UNL     1       3.999   6.794  18.187  0.00  0.00    +0.000 NA
ATOM      7  C   UNL     1       4.855   5.938  17.638  0.00  0.00    +0.000 A 
ATOM      8  N   UNL     1       4.778   4.656  18.085  0.00  0.00    +0.000 NA
ATOM      9  C   UNL     1       3.824   4.706  18.996  0.00  0.00    +0.000 A 
ATOM     10  N   UNL     1       3.329   3.695  19.771  0.00  0.00    +0.000 NA
ENDROOT
BRANCH   4  11
ATOM     11  N   UNL     1       1.820   7.702  20.099  0.00  0.00    +0.000 N 
ATOM     12  C   UNL     1       1.384   8.311  21.359  0.00  0.00    +0.000 C 
ATOM     13  C   UNL     1       1.632   8.585  18.942  0.00  0.00    +0.000 C 
ENDBRANCH   4  11
BRANCH   7  14
ATOM     14  S   UNL     1       6.027   6.526  16.491  0.00  0.00    +0.000 S 
BRANCH  14  15
ATOM     15  C   UNL     1       6.983   5.033  16.117  0.00  0.00    +0.000 C 
BRANCH  15  16
ATOM     16  C   UNL     1       6.886   4.695  14.642  0.00  0.00    +0.000 A 
ATOM     17  C   UNL     1       5.946   3.759  14.185  0.00  0.00    +0.000 A 
ATOM     18  C   UNL     1       5.889   3.404  12.834  0.00  0.00    +0.000 A 
ATOM     19  C   UNL     1       6.772   3.979  11.922  0.00  0.00    +0.000 A 
ATOM     20  C   UNL     1       7.712   4.909  12.362  0.00  0.00    +0.000 A 
ATOM     21  C   UNL     1       7.773   5.264  13.712  0.00  0.00    +0.000 A 
ENDBRANCH  15  16
ENDBRANCH  14  15
ENDBRANCH   7  14
TORSDOF 4
ENDMDL
MODEL 9
REMARK VINA RESULT:      -6.9      3.152      6.687
REMARK  Name = 
REMARK  7 active torsions:
REMARK  status: ('A' for Active; 'I' for Inactive)
REMARK    1  A    between atoms: C_1  and  C_2
REMARK    2  A    between atoms: C_4  and  N_5
REMARK    3  A    between atoms: N_5  and  C_6
REMARK    4  A    between atoms: N_5  and  C_7
REMARK    5  A    between atoms: C_10  and  S_11
REMARK    6  A    between atoms: S_11  and  C_12
REMARK    7  A    between atoms: C_12  and  C_13
REMARK                            x       y       z     vdW  Elec       q    Type
REMARK                         _______ _______ _______ _____ _____    ______ ____
ROOT
ATOM      1  C   UNL     1       2.299   2.759  21.642  0.00  0.00    +0.000 C 
ATOM      2  C   UNL     1       2.613   3.872  20.671  0.00  0.00    +0.000 A 
ATOM      3  C   UNL     1       3.699   3.615  19.681  0.00  0.00    +0.000 A 
ATOM      4  C   UNL     1       3.987   4.582  18.786  0.00  0.00    +0.000 A 
ATOM      5  N   UNL     1       3.234   5.791  18.886  0.00  0.00    +0.000 N 
ATOM      6  N   UNL     1       3.327   6.937  18.163  0.00  0.00    +0.000 NA
ATOM      7  C   UNL     1       2.378   7.700  18.695  0.00  0.00    +0.000 A 
ATOM      8  N   UNL     1       1.694   7.156  19.736  0.00  0.00    +0.000 NA
ATOM      9  C   UNL     1       2.230   5.955  19.860  0.00  0.00    +0.000 A 
ATOM     10  N   UNL     1       1.922   4.970  20.756  0.00  0.00    +0.000 NA
ENDROOT
BRANCH   4  11
ATOM     11  N   UNL     1       4.982   4.417  17.794  0.00  0.00    +0.000 N 
ATOM     12  C   UNL     1       6.401   4.708  18.017  0.00  0.00    +0.000 C 
ATOM     13  C   UNL     1       4.691   4.020  16.411  0.00  0.00    +0.000 C 
ENDBRANCH   4  11
BRANCH   7  14
ATOM     14  S   UNL     1       2.037   9.253  17.982  0.00  0.00    +0.000 S 
BRANCH  14  15
ATOM     15  C   UNL     1       1.103  10.083  19.293  0.00  0.00    +0.000 C 
BRANCH  15  16
ATOM     16  C   UNL     1      -0.302  10.408  18.821  0.00  0.00    +0.000 A 
ATOM     17  C   UNL     1      -0.829   9.794  17.675  0.00  0.00    +0.000 A 
ATOM     18  C   UNL     1      -2.103  10.129  17.206  0.00  0.00    +0.000 A 
ATOM     19  C   UNL     1      -2.864  11.085  17.874  0.00  0.00    +0.000 A 
ATOM     20  C   UNL     1      -2.352  11.706  19.012  0.00  0.00    +0.000 A 
ATOM     21  C   UNL     1      -1.079  11.373  19.483  0.00  0.00    +0.000 A 
ENDBRANCH  15  16
ENDBRANCH  14  15
ENDBRANCH   7  14
TORSDOF 4
ENDMDL
