MODEL 1
REMARK VINA RESULT:      -7.4      0.000      0.000
REMARK  Name = 
REMARK  10 active torsions:
REMARK  status: ('A' for Active; 'I' for Inactive)
REMARK    1  A    between atoms: C_1  and  O_2
REMARK    2  A    between atoms: O_2  and  C_3
REMARK    3  A    between atoms: C_3  and  C_5
REMARK    4  A    between atoms: C_11  and  C_12
REMARK    5  A    between atoms: C_14  and  N_15
REMARK    6  A    between atoms: C_16  and  C_18
REMARK    7  A    between atoms: C_18  and  N_19
REMARK    8  A    between atoms: N_22  and  C_23
REMARK    9  A    between atoms: C_28  and  O_29
REMARK   10  A    between atoms: O_29  and  C_30
REMARK                            x       y       z     vdW  Elec       q    Type
REMARK                         _______ _______ _______ _____ _____    ______ ____
ROOT
ATOM      1  N   UNL     1       3.272   5.711  20.071  0.00  0.00    +0.000 N 
ATOM      2  C   UNL     1       1.891   5.843  20.062  0.00  0.00    +0.000 C 
ATOM      3  O   UNL     1       1.144   5.289  19.255  0.00  0.00    +0.000 OA
ATOM      4  H   UNL     1       3.766   6.523  20.434  0.00  0.00    +0.000 HD
ENDROOT
BRANCH   1  14
ATOM      5  C   UNL     1       4.210   3.577  19.321  0.00  0.00    +0.000 A 
ATOM      6  N   UNL     1       4.994   3.153  18.276  0.00  0.00    +0.000 N 
ATOM      7  C   UNL     1       5.199   4.151  17.365  0.00  0.00    +0.000 A 
ATOM      8  C   UNL     1       5.911   4.093  16.159  0.00  0.00    +0.000 A 
ATOM      9  C   UNL     1       5.945   5.236  15.372  0.00  0.00    +0.000 A 
ATOM     10  C   UNL     1       5.253   6.373  15.765  0.00  0.00    +0.000 A 
ATOM     11  C   UNL     1       4.506   6.425  16.971  0.00  0.00    +0.000 A 
ATOM     12  C   UNL     1       3.695   7.663  17.224  0.00  0.00    +0.000 C 
ATOM     13  C   UNL     1       4.532   5.289  17.836  0.00  0.00    +0.000 A 
ATOM     14  C   UNL     1       3.968   4.932  19.130  0.00  0.00    +0.000 A 
ATOM     15  H   UNL     1       5.352   2.210  18.188  0.00  0.00    +0.000 HD
BRANCH   5  16
ATOM     16  C   UNL     1       3.883   2.643  20.361  0.00  0.00    +0.000 C 
ATOM     17  O   UNL     1       4.710   2.065  21.060  0.00  0.00    +0.000 OA
BRANCH  16  19
ATOM     18  C   UNL     1       2.036   2.691  21.787  0.00  0.00    +0.000 C 
ATOM     19  O   UNL     1       2.535   2.472  20.467  0.00  0.00    +0.000 OA
ENDBRANCH  16  19
ENDBRANCH   5  16
ENDBRANCH   1  14
BRANCH   2  20
ATOM     20  C   UNL     1       1.292   6.886  21.046  0.00  0.00    +0.000 C 
BRANCH  20  21
ATOM     21  N   UNL     1       1.918   8.227  21.008  0.00  0.00    +0.000 NA
ATOM     22  C   UNL     1       1.295   9.095  19.952  0.00  0.00    +0.000 C 
ATOM     23  C   UNL     1      -0.070   9.783  20.277  0.00  0.00    +0.000 C 
ATOM     24  N   UNL     1      -0.019  10.442  21.599  0.00  0.00    +0.000 N 
ATOM     25  C   UNL     1       0.398   9.500  22.658  0.00  0.00    +0.000 C 
ATOM     26  C   UNL     1       1.805   8.943  22.302  0.00  0.00    +0.000 C 
BRANCH  24  27
ATOM     27  C   UNL     1      -1.033  11.348  21.961  0.00  0.00    +0.000 A 
ATOM     28  C   UNL     1      -1.811  11.156  23.122  0.00  0.00    +0.000 A 
ATOM     29  C   UNL     1      -2.836  12.039  23.494  0.00  0.00    +0.000 A 
ATOM     30  C   UNL     1      -3.124  13.149  22.713  0.00  0.00    +0.000 A 
ATOM     31  C   UNL     1      -2.372  13.379  21.568  0.00  0.00    +0.000 A 
ATOM     32  C   UNL     1      -1.344  12.497  21.186  0.00  0.00    +0.000 A 
BRANCH  32  33
ATOM     33  O   UNL     1      -0.699  12.914  20.045  0.00  0.00    +0.000 OA
ATOM     34  C   UNL     1      -0.881  14.280  19.700  0.00  0.00    +0.000 C 
ENDBRANCH  32  33
ENDBRANCH  24  27
ENDBRANCH  20  21
ENDBRANCH   2  20
TORSDOF 7
ENDMDL
MODEL 2
REMARK VINA RESULT:      -7.4      2.657      4.240
REMARK  Name = 
REMARK  10 active torsions:
REMARK  status: ('A' for Active; 'I' for Inactive)
REMARK    1  A    between atoms: C_1  and  O_2
REMARK    2  A    between atoms: O_2  and  C_3
REMARK    3  A    between atoms: C_3  and  C_5
REMARK    4  A    between atoms: C_11  and  C_12
REMARK    5  A    between atoms: C_14  and  N_15
REMARK    6  A    between atoms: C_16  and  C_18
REMARK    7  A    between atoms: C_18  and  N_19
REMARK    8  A    between atoms: N_22  and  C_23
REMARK    9  A    between atoms: C_28  and  O_29
REMARK   10  A    between atoms: O_29  and  C_30
REMARK                            x       y       z     vdW  Elec       q    Type
REMARK                         _______ _______ _______ _____ _____    ______ ____
ROOT
ATOM      1  N   UNL     1       3.258   7.810  18.253  0.00  0.00    +0.000 N 
ATOM      2  C   UNL     1       2.039   8.373  17.903  0.00  0.00    +0.000 C 
ATOM      3  O   UNL     1       1.074   7.737  17.478  0.00  0.00    +0.000 OA
ATOM      4  H   UNL     1       4.054   8.431  18.130  0.00  0.00    +0.000 HD
ENDROOT
BRANCH   1  14
ATOM      5  C   UNL     1       4.476   5.933  17.259  0.00  0.00    +0.000 A 
ATOM      6  N   UNL     1       4.403   4.562  17.318  0.00  0.00    +0.000 N 
ATOM      7  C   UNL     1       3.504   4.148  18.261  0.00  0.00    +0.000 A 
ATOM      8  C   UNL     1       3.181   2.837  18.635  0.00  0.00    +0.000 A 
ATOM      9  C   UNL     1       2.259   2.663  19.658  0.00  0.00    +0.000 A 
ATOM     10  C   UNL     1       1.722   3.768  20.306  0.00  0.00    +0.000 A 
ATOM     11  C   UNL     1       2.071   5.097  19.950  0.00  0.00    +0.000 A 
ATOM     12  C   UNL     1       1.525   6.203  20.806  0.00  0.00    +0.000 C 
ATOM     13  C   UNL     1       2.949   5.296  18.841  0.00  0.00    +0.000 A 
ATOM     14  C   UNL     1       3.521   6.434  18.136  0.00  0.00    +0.000 A 
ATOM     15  H   UNL     1       4.965   3.944  16.748  0.00  0.00    +0.000 HD
BRANCH   5  16
ATOM     16  C   UNL     1       5.388   6.535  16.329  0.00  0.00    +0.000 C 
ATOM     17  O   UNL     1       5.376   6.337  15.118  0.00  0.00    +0.000 OA
BRANCH  16  19
ATOM     18  C   UNL     1       7.407   6.653  17.494  0.00  0.00    +0.000 C 
ATOM     19  O   UNL     1       6.278   7.349  16.964  0.00  0.00    +0.000 OA
ENDBRANCH  16  19
ENDBRANCH   5  16
ENDBRANCH   1  14
BRANCH   2  20
ATOM     20  C   UNL     1       1.970   9.925  17.910  0.00  0.00    +0.000 C 
BRANCH  20  21
ATOM     21  N   UNL     1       1.649  10.540  19.218  0.00  0.00    +0.000 NA
ATOM     22  C   UNL     1       1.263  11.984  19.067  0.00  0.00    +0.000 C 
ATOM     23  C   UNL     1      -0.192  12.312  18.598  0.00  0.00    +0.000 C 
ATOM     24  N   UNL     1      -1.178  11.538  19.381  0.00  0.00    +0.000 N 
ATOM     25  C   UNL     1      -0.889  10.090  19.336  0.00  0.00    +0.000 C 
ATOM     26  C   UNL     1       0.535   9.848  19.912  0.00  0.00    +0.000 C 
BRANCH  24  27
ATOM     27  C   UNL     1      -2.539  11.885  19.317  0.00  0.00    +0.000 A 
ATOM     28  C   UNL     1      -3.356  11.465  18.245  0.00  0.00    +0.000 A 
ATOM     29  C   UNL     1      -4.713  11.812  18.154  0.00  0.00    +0.000 A 
ATOM     30  C   UNL     1      -5.304  12.597  19.132  0.00  0.00    +0.000 A 
ATOM     31  C   UNL     1      -4.536  13.020  20.210  0.00  0.00    +0.000 A 
ATOM     32  C   UNL     1      -3.173  12.680  20.308  0.00  0.00    +0.000 A 
BRANCH  32  33
ATOM     33  O   UNL     1      -2.599  13.167  21.458  0.00  0.00    +0.000 OA
ATOM     34  C   UNL     1      -2.760  12.361  22.616  0.00  0.00    +0.000 C 
ENDBRANCH  32  33
ENDBRANCH  24  27
ENDBRANCH  20  21
ENDBRANCH   2  20
TORSDOF 7
ENDMDL
MODEL 3
REMARK VINA RESULT:      -7.3      2.400      4.093
REMARK  Name = 
REMARK  10 active torsions:
REMARK  status: ('A' for Active; 'I' for Inactive)
REMARK    1  A    between atoms: C_1  and  O_2
REMARK    2  A    between atoms: O_2  and  C_3
REMARK    3  A    between atoms: C_3  and  C_5
REMARK    4  A    between atoms: C_11  and  C_12
REMARK    5  A    between atoms: C_14  and  N_15
REMARK    6  A    between atoms: C_16  and  C_18
REMARK    7  A    between atoms: C_18  and  N_19
REMARK    8  A    between atoms: N_22  and  C_23
REMARK    9  A    between atoms: C_28  and  O_29
REMARK   10  A    between atoms: O_29  and  C_30
REMARK                            x       y       z     vdW  Elec       q    Type
REMARK                         _______ _______ _______ _____ _____    ______ ____
ROOT
ATOM      1  N   UNL     1       3.383   7.007  18.421  0.00  0.00    +0.000 N 
ATOM      2  C   UNL     1       2.340   7.868  18.110  0.00  0.00    +0.000 C 
ATOM      3  O   UNL     1       1.340   7.545  17.468  0.00  0.00    +0.000 OA
ATOM      4  H   UNL     1       4.287   7.465  18.514  0.00  0.00    +0.000 HD
ENDROOT
BRANCH   1  14
ATOM      5  C   UNL     1       4.274   5.206  17.022  0.00  0.00    +0.000 A 
ATOM      6  N   UNL     1       3.968   3.887  16.792  0.00  0.00    +0.000 N 
ATOM      7  C   UNL     1       3.000   3.440  17.649  0.00  0.00    +0.000 A 
ATOM      8  C   UNL     1       2.454   2.153  17.745  0.00  0.00    +0.000 A 
ATOM      9  C   UNL     1       1.504   1.925  18.731  0.00  0.00    +0.000 A 
ATOM     10  C   UNL     1       1.156   2.942  19.611  0.00  0.00    +0.000 A 
ATOM     11  C   UNL     1       1.731   4.237  19.535  0.00  0.00    +0.000 A 
ATOM     12  C   UNL     1       1.372   5.212  20.619  0.00  0.00    +0.000 C 
ATOM     13  C   UNL     1       2.643   4.515  18.472  0.00  0.00    +0.000 A 
ATOM     14  C   UNL     1       3.409   5.664  18.009  0.00  0.00    +0.000 A 
ATOM     15  H   UNL     1       4.422   3.318  16.090  0.00  0.00    +0.000 HD
BRANCH   5  16
ATOM     16  C   UNL     1       5.287   5.829  16.218  0.00  0.00    +0.000 C 
ATOM     17  O   UNL     1       5.178   6.936  15.700  0.00  0.00    +0.000 OA
BRANCH  16  19
ATOM     18  C   UNL     1       6.819   4.866  14.744  0.00  0.00    +0.000 C 
ATOM     19  O   UNL     1       6.383   5.028  16.094  0.00  0.00    +0.000 OA
ENDBRANCH  16  19
ENDBRANCH   5  16
ENDBRANCH   1  14
BRANCH   2  20
ATOM     20  C   UNL     1       2.549   9.364  18.473  0.00  0.00    +0.000 C 
BRANCH  20  21
ATOM     21  N   UNL     1       1.597  10.308  17.846  0.00  0.00    +0.000 NA
ATOM     22  C   UNL     1       0.176   9.856  18.026  0.00  0.00    +0.000 C 
ATOM     23  C   UNL     1      -0.515  10.130  19.401  0.00  0.00    +0.000 C 
ATOM     24  N   UNL     1      -0.307  11.533  19.817  0.00  0.00    +0.000 N 
ATOM     25  C   UNL     1       1.128  11.886  19.832  0.00  0.00    +0.000 C 
ATOM     26  C   UNL     1       1.706  11.678  18.404  0.00  0.00    +0.000 C 
BRANCH  24  27
ATOM     27  C   UNL     1      -1.071  12.063  20.873  0.00  0.00    +0.000 A 
ATOM     28  C   UNL     1      -2.143  12.948  20.634  0.00  0.00    +0.000 A 
ATOM     29  C   UNL     1      -2.908  13.500  21.673  0.00  0.00    +0.000 A 
ATOM     30  C   UNL     1      -2.626  13.188  22.994  0.00  0.00    +0.000 A 
ATOM     31  C   UNL     1      -1.585  12.310  23.271  0.00  0.00    +0.000 A 
ATOM     32  C   UNL     1      -0.810  11.755  22.235  0.00  0.00    +0.000 A 
BRANCH  32  33
ATOM     33  O   UNL     1       0.147  10.889  22.710  0.00  0.00    +0.000 OA
ATOM     34  C   UNL     1      -0.327   9.621  23.139  0.00  0.00    +0.000 C 
ENDBRANCH  32  33
ENDBRANCH  24  27
ENDBRANCH  20  21
ENDBRANCH   2  20
TORSDOF 7
ENDMDL
MODEL 4
REMARK VINA RESULT:      -7.2      2.797      4.254
REMARK  Name = 
REMARK  10 active torsions:
REMARK  status: ('A' for Active; 'I' for Inactive)
REMARK    1  A    between atoms: C_1  and  O_2
REMARK    2  A    between atoms: O_2  and  C_3
REMARK    3  A    between atoms: C_3  and  C_5
REMARK    4  A    between atoms: C_11  and  C_12
REMARK    5  A    between atoms: C_14  and  N_15
REMARK    6  A    between atoms: C_16  and  C_18
REMARK    7  A    between atoms: C_18  and  N_19
REMARK    8  A    between atoms: N_22  and  C_23
REMARK    9  A    between atoms: C_28  and  O_29
REMARK   10  A    between atoms: O_29  and  C_30
REMARK                            x       y       z     vdW  Elec       q    Type
REMARK                         _______ _______ _______ _____ _____    ______ ____
ROOT
ATOM      1  N   UNL     1       3.267   7.618  18.227  0.00  0.00    +0.000 N 
ATOM      2  C   UNL     1       2.057   8.188  17.855  0.00  0.00    +0.000 C 
ATOM      3  O   UNL     1       1.084   7.551  17.450  0.00  0.00    +0.000 OA
ATOM      4  H   UNL     1       4.072   8.223  18.085  0.00  0.00    +0.000 HD
ENDROOT
BRANCH   1  14
ATOM      5  C   UNL     1       4.469   5.693  17.310  0.00  0.00    +0.000 A 
ATOM      6  N   UNL     1       4.374   4.326  17.411  0.00  0.00    +0.000 N 
ATOM      7  C   UNL     1       3.455   3.955  18.353  0.00  0.00    +0.000 A 
ATOM      8  C   UNL     1       3.107   2.662  18.763  0.00  0.00    +0.000 A 
ATOM      9  C   UNL     1       2.168   2.535  19.778  0.00  0.00    +0.000 A 
ATOM     10  C   UNL     1       1.639   3.668  20.383  0.00  0.00    +0.000 A 
ATOM     11  C   UNL     1       2.014   4.979  19.990  0.00  0.00    +0.000 A 
ATOM     12  C   UNL     1       1.474   6.120  20.803  0.00  0.00    +0.000 C 
ATOM     13  C   UNL     1       2.910   5.129  18.889  0.00  0.00    +0.000 A 
ATOM     14  C   UNL     1       3.510   6.236  18.156  0.00  0.00    +0.000 A 
ATOM     15  H   UNL     1       4.933   3.681  16.868  0.00  0.00    +0.000 HD
BRANCH   5  16
ATOM     16  C   UNL     1       5.403   6.251  16.374  0.00  0.00    +0.000 C 
ATOM     17  O   UNL     1       5.097   6.996  15.448  0.00  0.00    +0.000 OA
BRANCH  16  19
ATOM     18  C   UNL     1       7.347   6.656  17.602  0.00  0.00    +0.000 C 
ATOM     19  O   UNL     1       6.676   5.841  16.640  0.00  0.00    +0.000 OA
ENDBRANCH  16  19
ENDBRANCH   5  16
ENDBRANCH   1  14
BRANCH   2  20
ATOM     20  C   UNL     1       2.011   9.740  17.810  0.00  0.00    +0.000 C 
BRANCH  20  21
ATOM     21  N   UNL     1       1.763  10.405  19.109  0.00  0.00    +0.000 NA
ATOM     22  C   UNL     1       1.397  11.850  18.925  0.00  0.00    +0.000 C 
ATOM     23  C   UNL     1      -0.072  12.191  18.514  0.00  0.00    +0.000 C 
ATOM     24  N   UNL     1      -1.034  11.464  19.369  0.00  0.00    +0.000 N 
ATOM     25  C   UNL     1      -0.773  10.010  19.361  0.00  0.00    +0.000 C 
ATOM     26  C   UNL     1       0.671   9.760  19.878  0.00  0.00    +0.000 C 
BRANCH  24  27
ATOM     27  C   UNL     1      -2.390  11.835  19.356  0.00  0.00    +0.000 A 
ATOM     28  C   UNL     1      -2.988  12.477  20.461  0.00  0.00    +0.000 A 
ATOM     29  C   UNL     1      -4.343  12.842  20.476  0.00  0.00    +0.000 A 
ATOM     30  C   UNL     1      -5.153  12.576  19.382  0.00  0.00    +0.000 A 
ATOM     31  C   UNL     1      -4.599  11.956  18.269  0.00  0.00    +0.000 A 
ATOM     32  C   UNL     1      -3.241  11.582  18.248  0.00  0.00    +0.000 A 
BRANCH  32  33
ATOM     33  O   UNL     1      -2.879  11.013  17.050  0.00  0.00    +0.000 OA
ATOM     34  C   UNL     1      -3.354   9.694  16.825  0.00  0.00    +0.000 C 
ENDBRANCH  32  33
ENDBRANCH  24  27
ENDBRANCH  20  21
ENDBRANCH   2  20
TORSDOF 7
ENDMDL
MODEL 5
REMARK VINA RESULT:      -7.1      2.681      9.867
REMARK  Name = 
REMARK  10 active torsions:
REMARK  status: ('A' for Active; 'I' for Inactive)
REMARK    1  A    between atoms: C_1  and  O_2
REMARK    2  A    between atoms: O_2  and  C_3
REMARK    3  A    between atoms: C_3  and  C_5
REMARK    4  A    between atoms: C_11  and  C_12
REMARK    5  A    between atoms: C_14  and  N_15
REMARK    6  A    between atoms: C_16  and  C_18
REMARK    7  A    between atoms: C_18  and  N_19
REMARK    8  A    between atoms: N_22  and  C_23
REMARK    9  A    between atoms: C_28  and  O_29
REMARK   10  A    between atoms: O_29  and  C_30
REMARK                            x       y       z     vdW  Elec       q    Type
REMARK                         _______ _______ _______ _____ _____    ______ ____
ROOT
ATOM      1  N   UNL     1      -1.621  10.580  19.019  0.00  0.00    +0.000 N 
ATOM      2  C   UNL     1      -0.329  10.913  18.637  0.00  0.00    +0.000 C 
ATOM      3  O   UNL     1       0.119  12.060  18.627  0.00  0.00    +0.000 OA
ATOM      4  H   UNL     1      -1.990   9.751  18.560  0.00  0.00    +0.000 HD
ENDROOT
BRANCH   1  14
ATOM      5  C   UNL     1      -3.640  11.903  18.614  0.00  0.00    +0.000 A 
ATOM      6  N   UNL     1      -4.299  12.927  19.253  0.00  0.00    +0.000 N 
ATOM      7  C   UNL     1      -3.754  13.185  20.480  0.00  0.00    +0.000 A 
ATOM      8  C   UNL     1      -4.170  14.124  21.433  0.00  0.00    +0.000 A 
ATOM      9  C   UNL     1      -3.479  14.175  22.636  0.00  0.00    +0.000 A 
ATOM     10  C   UNL     1      -2.443  13.283  22.882  0.00  0.00    +0.000 A 
ATOM     11  C   UNL     1      -2.041  12.309  21.930  0.00  0.00    +0.000 A 
ATOM     12  C   UNL     1      -0.998  11.319  22.360  0.00  0.00    +0.000 C 
ATOM     13  C   UNL     1      -2.681  12.302  20.654  0.00  0.00    +0.000 A 
ATOM     14  C   UNL     1      -2.567  11.539  19.419  0.00  0.00    +0.000 A 
ATOM     15  H   UNL     1      -5.100  13.408  18.866  0.00  0.00    +0.000 HD
BRANCH   5  16
ATOM     16  C   UNL     1      -4.098  11.493  17.317  0.00  0.00    +0.000 C 
ATOM     17  O   UNL     1      -5.274  11.292  17.027  0.00  0.00    +0.000 OA
BRANCH  16  19
ATOM     18  C   UNL     1      -3.318  10.407  15.404  0.00  0.00    +0.000 C 
ATOM     19  O   UNL     1      -3.057  11.345  16.449  0.00  0.00    +0.000 OA
ENDBRANCH  16  19
ENDBRANCH   5  16
ENDBRANCH   1  14
BRANCH   2  20
ATOM     20  C   UNL     1       0.532   9.765  18.043  0.00  0.00    +0.000 C 
BRANCH  20  21
ATOM     21  N   UNL     1       1.858   9.574  18.674  0.00  0.00    +0.000 NA
ATOM     22  C   UNL     1       1.727   9.156  20.110  0.00  0.00    +0.000 C 
ATOM     23  C   UNL     1       1.409   7.656  20.414  0.00  0.00    +0.000 C 
ATOM     24  N   UNL     1       2.302   6.767  19.641  0.00  0.00    +0.000 N 
ATOM     25  C   UNL     1       2.247   7.069  18.196  0.00  0.00    +0.000 C 
ATOM     26  C   UNL     1       2.674   8.548  17.980  0.00  0.00    +0.000 C 
BRANCH  24  27
ATOM     27  C   UNL     1       2.375   5.402  19.971  0.00  0.00    +0.000 A 
ATOM     28  C   UNL     1       1.288   4.729  20.567  0.00  0.00    +0.000 A 
ATOM     29  C   UNL     1       1.345   3.371  20.918  0.00  0.00    +0.000 A 
ATOM     30  C   UNL     1       2.497   2.635  20.687  0.00  0.00    +0.000 A 
ATOM     31  C   UNL     1       3.586   3.258  20.090  0.00  0.00    +0.000 A 
ATOM     32  C   UNL     1       3.539   4.621  19.739  0.00  0.00    +0.000 A 
BRANCH  32  33
ATOM     33  O   UNL     1       4.700   5.041  19.134  0.00  0.00    +0.000 OA
ATOM     34  C   UNL     1       5.497   4.020  18.552  0.00  0.00    +0.000 C 
ENDBRANCH  32  33
ENDBRANCH  24  27
ENDBRANCH  20  21
ENDBRANCH   2  20
TORSDOF 7
ENDMDL
MODEL 6
REMARK VINA RESULT:      -7.1      1.081      1.551
REMARK  Name = 
REMARK  10 active torsions:
REMARK  status: ('A' for Active; 'I' for Inactive)
REMARK    1  A    between atoms: C_1  and  O_2
REMARK    2  A    between atoms: O_2  and  C_3
REMARK    3  A    between atoms: C_3  and  C_5
REMARK    4  A    between atoms: C_11  and  C_12
REMARK    5  A    between atoms: C_14  and  N_15
REMARK    6  A    between atoms: C_16  and  C_18
REMARK    7  A    between atoms: C_18  and  N_19
REMARK    8  A    between atoms: N_22  and  C_23
REMARK    9  A    between atoms: C_28  and  O_29
REMARK   10  A    between atoms: O_29  and  C_30
REMARK                            x       y       z     vdW  Elec       q    Type
REMARK                         _______ _______ _______ _____ _____    ______ ____
ROOT
ATOM      1  N   UNL     1       3.346   5.582  19.923  0.00  0.00    +0.000 N 
ATOM      2  C   UNL     1       1.962   5.678  19.909  0.00  0.00    +0.000 C 
ATOM      3  O   UNL     1       1.235   5.136  19.075  0.00  0.00    +0.000 OA
ATOM      4  H   UNL     1       3.815   6.392  20.321  0.00  0.00    +0.000 HD
ENDROOT
BRANCH   1  14
ATOM      5  C   UNL     1       4.368   3.512  19.108  0.00  0.00    +0.000 A 
ATOM      6  N   UNL     1       5.163   3.150  18.048  0.00  0.00    +0.000 N 
ATOM      7  C   UNL     1       5.321   4.182  17.165  0.00  0.00    +0.000 A 
ATOM      8  C   UNL     1       6.027   4.188  15.955  0.00  0.00    +0.000 A 
ATOM      9  C   UNL     1       6.010   5.353  15.200  0.00  0.00    +0.000 A 
ATOM     10  C   UNL     1       5.273   6.449  15.629  0.00  0.00    +0.000 A 
ATOM     11  C   UNL     1       4.531   6.434  16.839  0.00  0.00    +0.000 A 
ATOM     12  C   UNL     1       3.671   7.630  17.131  0.00  0.00    +0.000 C 
ATOM     13  C   UNL     1       4.609   5.277  17.671  0.00  0.00    +0.000 A 
ATOM     14  C   UNL     1       4.068   4.860  18.957  0.00  0.00    +0.000 A 
ATOM     15  H   UNL     1       5.559   2.227  17.931  0.00  0.00    +0.000 HD
BRANCH   5  16
ATOM     16  C   UNL     1       4.086   2.536  20.123  0.00  0.00    +0.000 C 
ATOM     17  O   UNL     1       4.941   1.883  20.713  0.00  0.00    +0.000 OA
BRANCH  16  19
ATOM     18  C   UNL     1       2.372   2.603  21.706  0.00  0.00    +0.000 C 
ATOM     19  O   UNL     1       2.745   2.420  20.340  0.00  0.00    +0.000 OA
ENDBRANCH  16  19
ENDBRANCH   5  16
ENDBRANCH   1  14
BRANCH   2  20
ATOM     20  C   UNL     1       1.328   6.664  20.929  0.00  0.00    +0.000 C 
BRANCH  20  21
ATOM     21  N   UNL     1       1.930   8.017  20.961  0.00  0.00    +0.000 NA
ATOM     22  C   UNL     1       1.809   8.703  19.630  0.00  0.00    +0.000 C 
ATOM     23  C   UNL     1       0.439   9.362  19.264  0.00  0.00    +0.000 C 
ATOM     24  N   UNL     1      -0.053  10.195  20.382  0.00  0.00    +0.000 N 
ATOM     25  C   UNL     1      -0.122   9.425  21.641  0.00  0.00    +0.000 C 
ATOM     26  C   UNL     1       1.300   8.894  21.977  0.00  0.00    +0.000 C 
BRANCH  24  27
ATOM     27  C   UNL     1      -1.115  11.091  20.163  0.00  0.00    +0.000 A 
ATOM     28  C   UNL     1      -2.012  10.920  19.087  0.00  0.00    +0.000 A 
ATOM     29  C   UNL     1      -3.069  11.810  18.842  0.00  0.00    +0.000 A 
ATOM     30  C   UNL     1      -3.267  12.909  19.664  0.00  0.00    +0.000 A 
ATOM     31  C   UNL     1      -2.412  13.105  20.742  0.00  0.00    +0.000 A 
ATOM     32  C   UNL     1      -1.346  12.219  20.993  0.00  0.00    +0.000 A 
BRANCH  32  33
ATOM     33  O   UNL     1      -0.638  12.567  22.119  0.00  0.00    +0.000 OA
ATOM     34  C   UNL     1      -1.415  12.979  23.234  0.00  0.00    +0.000 C 
ENDBRANCH  32  33
ENDBRANCH  24  27
ENDBRANCH  20  21
ENDBRANCH   2  20
TORSDOF 7
ENDMDL
MODEL 7
REMARK VINA RESULT:      -7.1      2.605      4.488
REMARK  Name = 
REMARK  10 active torsions:
REMARK  status: ('A' for Active; 'I' for Inactive)
REMARK    1  A    between atoms: C_1  and  O_2
REMARK    2  A    between atoms: O_2  and  C_3
REMARK    3  A    between atoms: C_3  and  C_5
REMARK    4  A    between atoms: C_11  and  C_12
REMARK    5  A    between atoms: C_14  and  N_15
REMARK    6  A    between atoms: C_16  and  C_18
REMARK    7  A    between atoms: C_18  and  N_19
REMARK    8  A    between atoms: N_22  and  C_23
REMARK    9  A    between atoms: C_28  and  O_29
REMARK   10  A    between atoms: O_29  and  C_30
REMARK                            x       y       z     vdW  Elec       q    Type
REMARK                         _______ _______ _______ _____ _____    ______ ____
ROOT
ATOM      1  N   UNL     1       3.431   6.333  19.913  0.00  0.00    +0.000 N 
ATOM      2  C   UNL     1       2.517   7.081  19.184  0.00  0.00    +0.000 C 
ATOM      3  O   UNL     1       1.996   6.709  18.132  0.00  0.00    +0.000 OA
ATOM      4  H   UNL     1       4.096   6.891  20.443  0.00  0.00    +0.000 HD
ENDROOT
BRANCH   1  14
ATOM      5  C   UNL     1       5.205   4.805  19.198  0.00  0.00    +0.000 A 
ATOM      6  N   UNL     1       5.273   3.512  18.737  0.00  0.00    +0.000 N 
ATOM      7  C   UNL     1       4.058   2.888  18.814  0.00  0.00    +0.000 A 
ATOM      8  C   UNL     1       3.740   1.567  18.474  0.00  0.00    +0.000 A 
ATOM      9  C   UNL     1       2.434   1.143  18.680  0.00  0.00    +0.000 A 
ATOM     10  C   UNL     1       1.504   2.003  19.249  0.00  0.00    +0.000 A 
ATOM     11  C   UNL     1       1.833   3.332  19.623  0.00  0.00    +0.000 A 
ATOM     12  C   UNL     1       0.781   4.123  20.345  0.00  0.00    +0.000 C 
ATOM     13  C   UNL     1       3.146   3.814  19.336  0.00  0.00    +0.000 A 
ATOM     14  C   UNL     1       3.874   5.064  19.503  0.00  0.00    +0.000 A 
ATOM     15  H   UNL     1       6.124   3.077  18.406  0.00  0.00    +0.000 HD
BRANCH   5  16
ATOM     16  C   UNL     1       6.401   5.599  19.202  0.00  0.00    +0.000 C 
ATOM     17  O   UNL     1       7.325   5.457  19.998  0.00  0.00    +0.000 OA
BRANCH  16  19
ATOM     18  C   UNL     1       6.903   6.072  16.972  0.00  0.00    +0.000 C 
ATOM     19  O   UNL     1       6.376   6.538  18.215  0.00  0.00    +0.000 OA
ENDBRANCH  16  19
ENDBRANCH   5  16
ENDBRANCH   1  14
BRANCH   2  20
ATOM     20  C   UNL     1       2.275   8.537  19.668  0.00  0.00    +0.000 C 
BRANCH  20  21
ATOM     21  N   UNL     1       1.081   9.204  19.101  0.00  0.00    +0.000 NA
ATOM     22  C   UNL     1       0.490  10.189  20.069  0.00  0.00    +0.000 C 
ATOM     23  C   UNL     1       1.167  11.592  20.196  0.00  0.00    +0.000 C 
ATOM     24  N   UNL     1       1.405  12.179  18.861  0.00  0.00    +0.000 N 
ATOM     25  C   UNL     1       2.177  11.262  17.997  0.00  0.00    +0.000 C 
ATOM     26  C   UNL     1       1.383   9.934  17.845  0.00  0.00    +0.000 C 
BRANCH  24  27
ATOM     27  C   UNL     1       1.743  13.540  18.752  0.00  0.00    +0.000 A 
ATOM     28  C   UNL     1       3.023  13.948  18.321  0.00  0.00    +0.000 A 
ATOM     29  C   UNL     1       3.386  15.300  18.220  0.00  0.00    +0.000 A 
ATOM     30  C   UNL     1       2.480  16.297  18.550  0.00  0.00    +0.000 A 
ATOM     31  C   UNL     1       1.205  15.935  18.968  0.00  0.00    +0.000 A 
ATOM     32  C   UNL     1       0.834  14.581  19.076  0.00  0.00    +0.000 A 
BRANCH  32  33
ATOM     33  O   UNL     1      -0.474  14.433  19.474  0.00  0.00    +0.000 OA
ATOM     34  C   UNL     1      -1.097  15.599  19.993  0.00  0.00    +0.000 C 
ENDBRANCH  32  33
ENDBRANCH  24  27
ENDBRANCH  20  21
ENDBRANCH   2  20
TORSDOF 7
ENDMDL
MODEL 8
REMARK VINA RESULT:      -7.0      2.564      4.175
REMARK  Name = 
REMARK  10 active torsions:
REMARK  status: ('A' for Active; 'I' for Inactive)
REMARK    1  A    between atoms: C_1  and  O_2
REMARK    2  A    between atoms: O_2  and  C_3
REMARK    3  A    between atoms: C_3  and  C_5
REMARK    4  A    between atoms: C_11  and  C_12
REMARK    5  A    between atoms: C_14  and  N_15
REMARK    6  A    between atoms: C_16  and  C_18
REMARK    7  A    between atoms: C_18  and  N_19
REMARK    8  A    between atoms: N_22  and  C_23
REMARK    9  A    between atoms: C_28  and  O_29
REMARK   10  A    between atoms: O_29  and  C_30
REMARK                            x       y       z     vdW  Elec       q    Type
REMARK                         _______ _______ _______ _____ _____    ______ ____
ROOT
ATOM      1  N   UNL     1       3.435   6.338  19.860  0.00  0.00    +0.000 N 
ATOM      2  C   UNL     1       2.553   7.083  19.089  0.00  0.00    +0.000 C 
ATOM      3  O   UNL     1       2.069   6.704  18.022  0.00  0.00    +0.000 OA
ATOM      4  H   UNL     1       4.083   6.897  20.408  0.00  0.00    +0.000 HD
ENDROOT
BRANCH   1  14
ATOM      5  C   UNL     1       5.217   4.800  19.191  0.00  0.00    +0.000 A 
ATOM      6  N   UNL     1       5.292   3.498  18.757  0.00  0.00    +0.000 N 
ATOM      7  C   UNL     1       4.078   2.872  18.836  0.00  0.00    +0.000 A 
ATOM      8  C   UNL     1       3.765   1.544  18.521  0.00  0.00    +0.000 A 
ATOM      9  C   UNL     1       2.459   1.121  18.725  0.00  0.00    +0.000 A 
ATOM     10  C   UNL     1       1.522   1.991  19.268  0.00  0.00    +0.000 A 
ATOM     11  C   UNL     1       1.845   3.328  19.618  0.00  0.00    +0.000 A 
ATOM     12  C   UNL     1       0.785   4.130  20.314  0.00  0.00    +0.000 C 
ATOM     13  C   UNL     1       3.159   3.807  19.332  0.00  0.00    +0.000 A 
ATOM     14  C   UNL     1       3.884   5.061  19.480  0.00  0.00    +0.000 A 
ATOM     15  H   UNL     1       6.147   3.058  18.442  0.00  0.00    +0.000 HD
BRANCH   5  16
ATOM     16  C   UNL     1       6.412   5.596  19.189  0.00  0.00    +0.000 C 
ATOM     17  O   UNL     1       7.335   5.463  19.986  0.00  0.00    +0.000 OA
BRANCH  16  19
ATOM     18  C   UNL     1       6.887   6.041  16.947  0.00  0.00    +0.000 C 
ATOM     19  O   UNL     1       6.385   6.526  18.193  0.00  0.00    +0.000 OA
ENDBRANCH  16  19
ENDBRANCH   5  16
ENDBRANCH   1  14
BRANCH   2  20
ATOM     20  C   UNL     1       2.303   8.546  19.549  0.00  0.00    +0.000 C 
BRANCH  20  21
ATOM     21  N   UNL     1       0.942   9.069  19.291  0.00  0.00    +0.000 NA
ATOM     22  C   UNL     1       0.349   9.687  20.525  0.00  0.00    +0.000 C 
ATOM     23  C   UNL     1       0.792  11.137  20.907  0.00  0.00    +0.000 C 
ATOM     24  N   UNL     1       0.721  12.030  19.732  0.00  0.00    +0.000 N 
ATOM     25  C   UNL     1       1.495  11.490  18.595  0.00  0.00    +0.000 C 
ATOM     26  C   UNL     1       0.922  10.095  18.220  0.00  0.00    +0.000 C 
BRANCH  24  27
ATOM     27  C   UNL     1       0.805  13.422  19.914  0.00  0.00    +0.000 A 
ATOM     28  C   UNL     1      -0.161  14.295  19.370  0.00  0.00    +0.000 A 
ATOM     29  C   UNL     1      -0.088  15.688  19.526  0.00  0.00    +0.000 A 
ATOM     30  C   UNL     1       0.959  16.261  20.233  0.00  0.00    +0.000 A 
ATOM     31  C   UNL     1       1.924  15.434  20.794  0.00  0.00    +0.000 A 
ATOM     32  C   UNL     1       1.861  14.036  20.639  0.00  0.00    +0.000 A 
BRANCH  32  33
ATOM     33  O   UNL     1       2.887  13.395  21.292  0.00  0.00    +0.000 OA
ATOM     34  C   UNL     1       4.021  14.195  21.593  0.00  0.00    +0.000 C 
ENDBRANCH  32  33
ENDBRANCH  24  27
ENDBRANCH  20  21
ENDBRANCH   2  20
TORSDOF 7
ENDMDL
MODEL 9
REMARK VINA RESULT:      -6.9      2.443      3.946
REMARK  Name = 
REMARK  10 active torsions:
REMARK  status: ('A' for Active; 'I' for Inactive)
REMARK    1  A    between atoms: C_1  and  O_2
REMARK    2  A    between atoms: O_2  and  C_3
REMARK    3  A    between atoms: C_3  and  C_5
REMARK    4  A    between atoms: C_11  and  C_12
REMARK    5  A    between atoms: C_14  and  N_15
REMARK    6  A    between atoms: C_16  and  C_18
REMARK    7  A    between atoms: C_18  and  N_19
REMARK    8  A    between atoms: N_22  and  C_23
REMARK    9  A    between atoms: C_28  and  O_29
REMARK   10  A    between atoms: O_29  and  C_30
REMARK                            x       y       z     vdW  Elec       q    Type
REMARK                         _______ _______ _______ _____ _____    ______ ____
ROOT
ATOM      1  N   UNL     1       3.402   7.045  18.424  0.00  0.00    +0.000 N 
ATOM      2  C   UNL     1       2.331   7.886  18.158  0.00  0.00    +0.000 C 
ATOM      3  O   UNL     1       1.311   7.545  17.558  0.00  0.00    +0.000 OA
ATOM      4  H   UNL     1       4.300   7.519  18.479  0.00  0.00    +0.000 HD
ENDROOT
BRANCH   1  14
ATOM      5  C   UNL     1       4.314   5.248  17.033  0.00  0.00    +0.000 A 
ATOM      6  N   UNL     1       4.013   3.929  16.797  0.00  0.00    +0.000 N 
ATOM      7  C   UNL     1       3.035   3.478  17.640  0.00  0.00    +0.000 A 
ATOM      8  C   UNL     1       2.490   2.190  17.727  0.00  0.00    +0.000 A 
ATOM      9  C   UNL     1       1.529   1.959  18.701  0.00  0.00    +0.000 A 
ATOM     10  C   UNL     1       1.168   2.973  19.578  0.00  0.00    +0.000 A 
ATOM     11  C   UNL     1       1.742   4.270  19.512  0.00  0.00    +0.000 A 
ATOM     12  C   UNL     1       1.368   5.242  20.593  0.00  0.00    +0.000 C 
ATOM     13  C   UNL     1       2.666   4.551  18.461  0.00  0.00    +0.000 A 
ATOM     14  C   UNL     1       3.436   5.702  18.009  0.00  0.00    +0.000 A 
ATOM     15  H   UNL     1       4.477   3.362  16.099  0.00  0.00    +0.000 HD
BRANCH   5  16
ATOM     16  C   UNL     1       5.335   5.874  16.242  0.00  0.00    +0.000 C 
ATOM     17  O   UNL     1       5.180   6.911  15.603  0.00  0.00    +0.000 OA
BRANCH  16  19
ATOM     18  C   UNL     1       6.951   4.741  14.996  0.00  0.00    +0.000 C 
ATOM     19  O   UNL     1       6.498   5.164  16.283  0.00  0.00    +0.000 OA
ENDBRANCH  16  19
ENDBRANCH   5  16
ENDBRANCH   1  14
BRANCH   2  20
ATOM     20  C   UNL     1       2.528   9.386  18.513  0.00  0.00    +0.000 C 
BRANCH  20  21
ATOM     21  N   UNL     1       1.580  10.321  17.865  0.00  0.00    +0.000 NA
ATOM     22  C   UNL     1       0.158   9.874  18.046  0.00  0.00    +0.000 C 
ATOM     23  C   UNL     1      -0.540  10.172  19.412  0.00  0.00    +0.000 C 
ATOM     24  N   UNL     1      -0.332  11.581  19.806  0.00  0.00    +0.000 N 
ATOM     25  C   UNL     1       1.103  11.933  19.822  0.00  0.00    +0.000 C 
ATOM     26  C   UNL     1       1.688  11.700  18.401  0.00  0.00    +0.000 C 
BRANCH  24  27
ATOM     27  C   UNL     1      -1.100  12.130  20.849  0.00  0.00    +0.000 A 
ATOM     28  C   UNL     1      -0.550  12.357  22.128  0.00  0.00    +0.000 A 
ATOM     29  C   UNL     1      -1.302  12.889  23.186  0.00  0.00    +0.000 A 
ATOM     30  C   UNL     1      -2.638  13.214  23.004  0.00  0.00    +0.000 A 
ATOM     31  C   UNL     1      -3.214  13.016  21.755  0.00  0.00    +0.000 A 
ATOM     32  C   UNL     1      -2.468  12.479  20.689  0.00  0.00    +0.000 A 
BRANCH  32  33
ATOM     33  O   UNL     1      -3.206  12.391  19.532  0.00  0.00    +0.000 OA
ATOM     34  C   UNL     1      -4.615  12.468  19.692  0.00  0.00    +0.000 C 
ENDBRANCH  32  33
ENDBRANCH  24  27
ENDBRANCH  20  21
ENDBRANCH   2  20
TORSDOF 7
ENDMDL
