MODEL 1
REMARK VINA RESULT:      -7.7      0.000      0.000
REMARK  Name = 
REMARK  3 active torsions:
REMARK  status: ('A' for Active; 'I' for Inactive)
REMARK    1  A    between atoms: C_1  and  C_2
REMARK    2  A    between atoms: C_5  and  C_6
REMARK    3  A    between atoms: C_10  and  C_11
REMARK                            x       y       z     vdW  Elec       q    Type
REMARK                         _______ _______ _______ _____ _____    ______ ____
ROOT
ATOM      1  C   UNL     1       6.661   5.011  17.515  0.00  0.00    +0.000 A 
ATOM      2  O   UNL     1       7.972   4.927  17.911  0.00  0.00    +0.000 OA
ATOM      3  C   UNL     1       7.945   5.230  19.233  0.00  0.00    +0.000 A 
ATOM      4  N   UNL     1       6.757   5.500  19.723  0.00  0.00    +0.000 NA
ATOM      5  C   UNL     1       5.910   5.370  18.629  0.00  0.00    +0.000 A 
ENDROOT
BRANCH   5   6
ATOM      6  C   UNL     1       4.447   5.464  18.679  0.00  0.00    +0.000 C 
ATOM      7  O   UNL     1       3.881   6.498  18.322  0.00  0.00    +0.000 OA
ATOM      8  N   UNL     1       3.696   4.381  19.131  0.00  0.00    +0.000 N 
ATOM      9  C   UNL     1       4.187   3.070  19.567  0.00  0.00    +0.000 C 
ATOM     10  C   UNL     1       3.711   1.996  18.582  0.00  0.00    +0.000 C 
ATOM     11  O   UNL     1       2.276   2.020  18.452  0.00  0.00    +0.000 OA
ATOM     12  C   UNL     1       1.817   3.307  17.999  0.00  0.00    +0.000 C 
ATOM     13  C   UNL     1       2.244   4.414  18.969  0.00  0.00    +0.000 C 
ENDBRANCH   5   6
BRANCH   1  18
ATOM     14  C   UNL     1       5.796   3.323  12.064  0.00  0.00    +0.000 C 
ATOM     15  C   UNL     1       5.979   3.867  13.449  0.00  0.00    +0.000 A 
ATOM     16  C   UNL     1       7.090   4.645  13.788  0.00  0.00    +0.000 A 
ATOM     17  C   UNL     1       7.289   5.063  15.109  0.00  0.00    +0.000 A 
ATOM     18  C   UNL     1       6.385   4.702  16.117  0.00  0.00    +0.000 A 
ATOM     19  C   UNL     1       5.240   3.981  15.756  0.00  0.00    +0.000 A 
ATOM     20  C   UNL     1       5.044   3.557  14.440  0.00  0.00    +0.000 A 
ENDBRANCH   1  18
TORSDOF 2
ENDMDL
MODEL 2
REMARK VINA RESULT:      -7.5      2.641      5.166
REMARK  Name = 
REMARK  3 active torsions:
REMARK  status: ('A' for Active; 'I' for Inactive)
REMARK    1  A    between atoms: C_1  and  C_2
REMARK    2  A    between atoms: C_5  and  C_6
REMARK    3  A    between atoms: C_10  and  C_11
REMARK                            x       y       z     vdW  Elec       q    Type
REMARK                         _______ _______ _______ _____ _____    ______ ____
ROOT
ATOM      1  C   UNL     1       4.248   6.170  17.351  0.00  0.00    +0.000 A 
ATOM      2  O   UNL     1       4.614   6.756  16.165  0.00  0.00    +0.000 OA
ATOM      3  C   UNL     1       5.510   5.891  15.625  0.00  0.00    +0.000 A 
ATOM      4  N   UNL     1       5.756   4.819  16.340  0.00  0.00    +0.000 NA
ATOM      5  C   UNL     1       4.955   4.978  17.465  0.00  0.00    +0.000 A 
ENDROOT
BRANCH   5   6
ATOM      6  C   UNL     1       4.786   3.982  18.528  0.00  0.00    +0.000 C 
ATOM      7  O   UNL     1       5.591   3.928  19.459  0.00  0.00    +0.000 OA
ATOM      8  N   UNL     1       3.712   3.095  18.486  0.00  0.00    +0.000 N 
ATOM      9  C   UNL     1       2.646   3.027  17.481  0.00  0.00    +0.000 C 
ATOM     10  C   UNL     1       1.310   3.402  18.133  0.00  0.00    +0.000 C 
ATOM     11  O   UNL     1       1.037   2.556  19.268  0.00  0.00    +0.000 OA
ATOM     12  C   UNL     1       2.082   2.658  20.253  0.00  0.00    +0.000 C 
ATOM     13  C   UNL     1       3.438   2.264  19.656  0.00  0.00    +0.000 C 
ENDBRANCH   5   6
BRANCH   1  18
ATOM     14  C   UNL     1       0.707   9.283  20.680  0.00  0.00    +0.000 C 
ATOM     15  C   UNL     1       1.534   8.406  19.789  0.00  0.00    +0.000 A 
ATOM     16  C   UNL     1       2.042   7.181  20.235  0.00  0.00    +0.000 A 
ATOM     17  C   UNL     1       2.891   6.424  19.419  0.00  0.00    +0.000 A 
ATOM     18  C   UNL     1       3.255   6.882  18.146  0.00  0.00    +0.000 A 
ATOM     19  C   UNL     1       2.688   8.075  17.682  0.00  0.00    +0.000 A 
ATOM     20  C   UNL     1       1.847   8.835  18.497  0.00  0.00    +0.000 A 
ENDBRANCH   1  18
TORSDOF 2
ENDMDL
MODEL 3
REMARK VINA RESULT:      -7.5      1.310      2.018
REMARK  Name = 
REMARK  3 active torsions:
REMARK  status: ('A' for Active; 'I' for Inactive)
REMARK    1  A    between atoms: C_1  and  C_2
REMARK    2  A    between atoms: C_5  and  C_6
REMARK    3  A    between atoms: C_10  and  C_11
REMARK                            x       y       z     vdW  Elec       q    Type
REMARK                         _______ _______ _______ _____ _____    ______ ____
ROOT
ATOM      1  C   UNL     1       6.699   5.124  17.595  0.00  0.00    +0.000 A 
ATOM      2  O   UNL     1       7.834   5.864  17.810  0.00  0.00    +0.000 OA
ATOM      3  C   UNL     1       7.891   6.010  19.158  0.00  0.00    +0.000 A 
ATOM      4  N   UNL     1       6.913   5.444  19.825  0.00  0.00    +0.000 NA
ATOM      5  C   UNL     1       6.125   4.868  18.836  0.00  0.00    +0.000 A 
ENDROOT
BRANCH   5   6
ATOM      6  C   UNL     1       4.956   4.016  19.078  0.00  0.00    +0.000 C 
ATOM      7  O   UNL     1       5.105   2.829  19.372  0.00  0.00    +0.000 OA
ATOM      8  N   UNL     1       3.673   4.550  18.976  0.00  0.00    +0.000 N 
ATOM      9  C   UNL     1       3.302   5.935  18.666  0.00  0.00    +0.000 C 
ATOM     10  C   UNL     1       2.629   6.566  19.891  0.00  0.00    +0.000 C 
ATOM     11  O   UNL     1       1.495   5.784  20.312  0.00  0.00    +0.000 OA
ATOM     12  C   UNL     1       1.885   4.437  20.636  0.00  0.00    +0.000 C 
ATOM     13  C   UNL     1       2.538   3.751  19.431  0.00  0.00    +0.000 C 
ENDBRANCH   5   6
BRANCH   1  18
ATOM     14  C   UNL     1       5.717   3.314  12.203  0.00  0.00    +0.000 C 
ATOM     15  C   UNL     1       5.934   3.891  13.570  0.00  0.00    +0.000 A 
ATOM     16  C   UNL     1       7.081   4.630  13.878  0.00  0.00    +0.000 A 
ATOM     17  C   UNL     1       7.309   5.077  15.185  0.00  0.00    +0.000 A 
ATOM     18  C   UNL     1       6.398   4.786  16.210  0.00  0.00    +0.000 A 
ATOM     19  C   UNL     1       5.221   4.104  15.878  0.00  0.00    +0.000 A 
ATOM     20  C   UNL     1       4.996   3.650  14.577  0.00  0.00    +0.000 A 
ENDBRANCH   1  18
TORSDOF 2
ENDMDL
MODEL 4
REMARK VINA RESULT:      -7.4      2.747      5.869
REMARK  Name = 
REMARK  3 active torsions:
REMARK  status: ('A' for Active; 'I' for Inactive)
REMARK    1  A    between atoms: C_1  and  C_2
REMARK    2  A    between atoms: C_5  and  C_6
REMARK    3  A    between atoms: C_10  and  C_11
REMARK                            x       y       z     vdW  Elec       q    Type
REMARK                         _______ _______ _______ _____ _____    ______ ____
ROOT
ATOM      1  C   UNL     1       2.406   4.891  19.978  0.00  0.00    +0.000 A 
ATOM      2  O   UNL     1       2.178   4.548  21.287  0.00  0.00    +0.000 OA
ATOM      3  C   UNL     1       2.426   3.214  21.333  0.00  0.00    +0.000 A 
ATOM      4  N   UNL     1       2.785   2.671  20.194  0.00  0.00    +0.000 NA
ATOM      5  C   UNL     1       2.775   3.735  19.300  0.00  0.00    +0.000 A 
ENDROOT
BRANCH   5   6
ATOM      6  C   UNL     1       3.215   3.666  17.903  0.00  0.00    +0.000 C 
ATOM      7  O   UNL     1       2.415   3.364  17.015  0.00  0.00    +0.000 OA
ATOM      8  N   UNL     1       4.541   3.944  17.576  0.00  0.00    +0.000 N 
ATOM      9  C   UNL     1       5.622   4.344  18.484  0.00  0.00    +0.000 C 
ATOM     10  C   UNL     1       6.052   5.779  18.159  0.00  0.00    +0.000 C 
ATOM     11  O   UNL     1       6.437   5.898  16.775  0.00  0.00    +0.000 OA
ATOM     12  C   UNL     1       5.355   5.526  15.902  0.00  0.00    +0.000 C 
ATOM     13  C   UNL     1       4.907   4.084  16.168  0.00  0.00    +0.000 C 
ENDBRANCH   5   6
BRANCH   1  18
ATOM     14  C   UNL     1       1.245  10.353  18.515  0.00  0.00    +0.000 C 
ATOM     15  C   UNL     1       1.660   8.966  18.908  0.00  0.00    +0.000 A 
ATOM     16  C   UNL     1       2.240   8.088  17.987  0.00  0.00    +0.000 A 
ATOM     17  C   UNL     1       2.531   6.768  18.350  0.00  0.00    +0.000 A 
ATOM     18  C   UNL     1       2.239   6.299  19.638  0.00  0.00    +0.000 A 
ATOM     19  C   UNL     1       1.721   7.204  20.573  0.00  0.00    +0.000 A 
ATOM     20  C   UNL     1       1.423   8.519  20.210  0.00  0.00    +0.000 A 
ENDBRANCH   1  18
TORSDOF 2
ENDMDL
MODEL 5
REMARK VINA RESULT:      -7.4      2.598      4.975
REMARK  Name = 
REMARK  3 active torsions:
REMARK  status: ('A' for Active; 'I' for Inactive)
REMARK    1  A    between atoms: C_1  and  C_2
REMARK    2  A    between atoms: C_5  and  C_6
REMARK    3  A    between atoms: C_10  and  C_11
REMARK                            x       y       z     vdW  Elec       q    Type
REMARK                         _______ _______ _______ _____ _____    ______ ____
ROOT
ATOM      1  C   UNL     1       4.424   6.033  17.211  0.00  0.00    +0.000 A 
ATOM      2  O   UNL     1       4.786   6.515  15.978  0.00  0.00    +0.000 OA
ATOM      3  C   UNL     1       5.557   5.532  15.446  0.00  0.00    +0.000 A 
ATOM      4  N   UNL     1       5.727   4.478  16.208  0.00  0.00    +0.000 NA
ATOM      5  C   UNL     1       5.007   4.779  17.359  0.00  0.00    +0.000 A 
ENDROOT
BRANCH   5   6
ATOM      6  C   UNL     1       4.792   3.863  18.483  0.00  0.00    +0.000 C 
ATOM      7  O   UNL     1       5.607   3.812  19.405  0.00  0.00    +0.000 OA
ATOM      8  N   UNL     1       3.661   3.049  18.510  0.00  0.00    +0.000 N 
ATOM      9  C   UNL     1       2.576   2.992  17.525  0.00  0.00    +0.000 C 
ATOM     10  C   UNL     1       1.278   3.493  18.170  0.00  0.00    +0.000 C 
ATOM     11  O   UNL     1       0.971   2.738  19.358  0.00  0.00    +0.000 OA
ATOM     12  C   UNL     1       2.037   2.829  20.321  0.00  0.00    +0.000 C 
ATOM     13  C   UNL     1       3.353   2.310  19.732  0.00  0.00    +0.000 C 
ENDBRANCH   5   6
BRANCH   1  18
ATOM     14  C   UNL     1       0.571   9.140  20.180  0.00  0.00    +0.000 C 
ATOM     15  C   UNL     1       1.655   8.407  19.448  0.00  0.00    +0.000 A 
ATOM     16  C   UNL     1       2.139   8.858  18.216  0.00  0.00    +0.000 A 
ATOM     17  C   UNL     1       3.083   8.107  17.505  0.00  0.00    +0.000 A 
ATOM     18  C   UNL     1       3.553   6.887  18.010  0.00  0.00    +0.000 A 
ATOM     19  C   UNL     1       3.114   6.478  19.275  0.00  0.00    +0.000 A 
ATOM     20  C   UNL     1       2.167   7.221  19.981  0.00  0.00    +0.000 A 
ENDBRANCH   1  18
TORSDOF 2
ENDMDL
MODEL 6
REMARK VINA RESULT:      -7.4      2.925      5.948
REMARK  Name = 
REMARK  3 active torsions:
REMARK  status: ('A' for Active; 'I' for Inactive)
REMARK    1  A    between atoms: C_1  and  C_2
REMARK    2  A    between atoms: C_5  and  C_6
REMARK    3  A    between atoms: C_10  and  C_11
REMARK                            x       y       z     vdW  Elec       q    Type
REMARK                         _______ _______ _______ _____ _____    ______ ____
ROOT
ATOM      1  C   UNL     1       2.865   5.366  19.564  0.00  0.00    +0.000 A 
ATOM      2  O   UNL     1       1.929   4.499  20.070  0.00  0.00    +0.000 OA
ATOM      3  C   UNL     1       2.585   3.315  20.169  0.00  0.00    +0.000 A 
ATOM      4  N   UNL     1       3.838   3.333  19.778  0.00  0.00    +0.000 NA
ATOM      5  C   UNL     1       4.042   4.649  19.377  0.00  0.00    +0.000 A 
ENDROOT
BRANCH   5   6
ATOM      6  C   UNL     1       5.328   5.212  18.956  0.00  0.00    +0.000 C 
ATOM      7  O   UNL     1       6.172   5.527  19.796  0.00  0.00    +0.000 OA
ATOM      8  N   UNL     1       5.598   5.390  17.600  0.00  0.00    +0.000 N 
ATOM      9  C   UNL     1       4.736   5.052  16.463  0.00  0.00    +0.000 C 
ATOM     10  C   UNL     1       5.387   3.926  15.651  0.00  0.00    +0.000 C 
ATOM     11  O   UNL     1       6.714   4.297  15.231  0.00  0.00    +0.000 OA
ATOM     12  C   UNL     1       7.551   4.600  16.362  0.00  0.00    +0.000 C 
ATOM     13  C   UNL     1       6.957   5.743  17.192  0.00  0.00    +0.000 C 
ENDBRANCH   5   6
BRANCH   1  18
ATOM     14  C   UNL     1       0.683  10.644  18.728  0.00  0.00    +0.000 C 
ATOM     15  C   UNL     1       1.357   9.323  18.953  0.00  0.00    +0.000 A 
ATOM     16  C   UNL     1       1.989   8.638  17.910  0.00  0.00    +0.000 A 
ATOM     17  C   UNL     1       2.528   7.363  18.121  0.00  0.00    +0.000 A 
ATOM     18  C   UNL     1       2.436   6.746  19.376  0.00  0.00    +0.000 A 
ATOM     19  C   UNL     1       1.862   7.467  20.430  0.00  0.00    +0.000 A 
ATOM     20  C   UNL     1       1.317   8.735  20.220  0.00  0.00    +0.000 A 
ENDBRANCH   1  18
TORSDOF 2
ENDMDL
MODEL 7
REMARK VINA RESULT:      -7.3      0.223      1.094
REMARK  Name = 
REMARK  3 active torsions:
REMARK  status: ('A' for Active; 'I' for Inactive)
REMARK    1  A    between atoms: C_1  and  C_2
REMARK    2  A    between atoms: C_5  and  C_6
REMARK    3  A    between atoms: C_10  and  C_11
REMARK                            x       y       z     vdW  Elec       q    Type
REMARK                         _______ _______ _______ _____ _____    ______ ____
ROOT
ATOM      1  C   UNL     1       6.798   4.864  17.654  0.00  0.00    +0.000 A 
ATOM      2  O   UNL     1       8.088   4.785  18.115  0.00  0.00    +0.000 OA
ATOM      3  C   UNL     1       8.008   5.185  19.409  0.00  0.00    +0.000 A 
ATOM      4  N   UNL     1       6.806   5.512  19.822  0.00  0.00    +0.000 NA
ATOM      5  C   UNL     1       6.006   5.318  18.702  0.00  0.00    +0.000 A 
ENDROOT
BRANCH   5   6
ATOM      6  C   UNL     1       4.545   5.443  18.678  0.00  0.00    +0.000 C 
ATOM      7  O   UNL     1       4.018   6.471  18.250  0.00  0.00    +0.000 OA
ATOM      8  N   UNL     1       3.750   4.396  19.140  0.00  0.00    +0.000 N 
ATOM      9  C   UNL     1       4.192   3.096  19.656  0.00  0.00    +0.000 C 
ATOM     10  C   UNL     1       3.739   1.989  18.697  0.00  0.00    +0.000 C 
ATOM     11  O   UNL     1       2.313   2.034  18.497  0.00  0.00    +0.000 OA
ATOM     12  C   UNL     1       1.904   3.308  17.966  0.00  0.00    +0.000 C 
ATOM     13  C   UNL     1       2.308   4.449  18.907  0.00  0.00    +0.000 C 
ENDBRANCH   5   6
BRANCH   1  18
ATOM     14  C   UNL     1       5.636   3.691  12.123  0.00  0.00    +0.000 C 
ATOM     15  C   UNL     1       5.991   3.890  13.566  0.00  0.00    +0.000 A 
ATOM     16  C   UNL     1       5.228   3.324  14.592  0.00  0.00    +0.000 A 
ATOM     17  C   UNL     1       5.521   3.602  15.932  0.00  0.00    +0.000 A 
ATOM     18  C   UNL     1       6.578   4.458  16.271  0.00  0.00    +0.000 A 
ATOM     19  C   UNL     1       7.378   4.965  15.240  0.00  0.00    +0.000 A 
ATOM     20  C   UNL     1       7.082   4.696  13.902  0.00  0.00    +0.000 A 
ENDBRANCH   1  18
TORSDOF 2
ENDMDL
MODEL 8
REMARK VINA RESULT:      -7.3      2.635      6.218
REMARK  Name = 
REMARK  3 active torsions:
REMARK  status: ('A' for Active; 'I' for Inactive)
REMARK    1  A    between atoms: C_1  and  C_2
REMARK    2  A    between atoms: C_5  and  C_6
REMARK    3  A    between atoms: C_10  and  C_11
REMARK                            x       y       z     vdW  Elec       q    Type
REMARK                         _______ _______ _______ _____ _____    ______ ____
ROOT
ATOM      1  C   UNL     1       2.520   4.619  18.646  0.00  0.00    +0.000 A 
ATOM      2  O   UNL     1       1.427   3.809  18.464  0.00  0.00    +0.000 OA
ATOM      3  C   UNL     1       1.949   2.629  18.044  0.00  0.00    +0.000 A 
ATOM      4  N   UNL     1       3.256   2.600  17.936  0.00  0.00    +0.000 NA
ATOM      5  C   UNL     1       3.650   3.878  18.315  0.00  0.00    +0.000 A 
ENDROOT
BRANCH   5   6
ATOM      6  C   UNL     1       5.039   4.322  18.469  0.00  0.00    +0.000 C 
ATOM      7  O   UNL     1       5.700   3.961  19.444  0.00  0.00    +0.000 OA
ATOM      8  N   UNL     1       5.613   5.154  17.510  0.00  0.00    +0.000 N 
ATOM      9  C   UNL     1       4.997   5.660  16.279  0.00  0.00    +0.000 C 
ATOM     10  C   UNL     1       5.716   5.058  15.066  0.00  0.00    +0.000 C 
ATOM     11  O   UNL     1       7.129   5.337  15.118  0.00  0.00    +0.000 OA
ATOM     12  C   UNL     1       7.719   4.809  16.320  0.00  0.00    +0.000 C 
ATOM     13  C   UNL     1       7.052   5.405  17.565  0.00  0.00    +0.000 C 
ENDBRANCH   5   6
BRANCH   1  18
ATOM     14  C   UNL     1       0.963   9.877  20.445  0.00  0.00    +0.000 C 
ATOM     15  C   UNL     1       1.480   8.543  19.997  0.00  0.00    +0.000 A 
ATOM     16  C   UNL     1       1.986   8.350  18.708  0.00  0.00    +0.000 A 
ATOM     17  C   UNL     1       2.374   7.074  18.280  0.00  0.00    +0.000 A 
ATOM     18  C   UNL     1       2.254   5.967  19.131  0.00  0.00    +0.000 A 
ATOM     19  C   UNL     1       1.811   6.182  20.442  0.00  0.00    +0.000 A 
ATOM     20  C   UNL     1       1.416   7.452  20.868  0.00  0.00    +0.000 A 
ENDBRANCH   1  18
TORSDOF 2
ENDMDL
MODEL 9
REMARK VINA RESULT:      -7.3      1.346      2.305
REMARK  Name = 
REMARK  3 active torsions:
REMARK  status: ('A' for Active; 'I' for Inactive)
REMARK    1  A    between atoms: C_1  and  C_2
REMARK    2  A    between atoms: C_5  and  C_6
REMARK    3  A    between atoms: C_10  and  C_11
REMARK                            x       y       z     vdW  Elec       q    Type
REMARK                         _______ _______ _______ _____ _____    ______ ____
ROOT
ATOM      1  C   UNL     1       6.731   5.051  17.617  0.00  0.00    +0.000 A 
ATOM      2  O   UNL     1       7.843   5.840  17.768  0.00  0.00    +0.000 OA
ATOM      3  C   UNL     1       7.887   6.109  19.098  0.00  0.00    +0.000 A 
ATOM      4  N   UNL     1       6.922   5.578  19.810  0.00  0.00    +0.000 NA
ATOM      5  C   UNL     1       6.157   4.892  18.874  0.00  0.00    +0.000 A 
ENDROOT
BRANCH   5   6
ATOM      6  C   UNL     1       5.012   4.031  19.188  0.00  0.00    +0.000 C 
ATOM      7  O   UNL     1       5.193   2.873  19.567  0.00  0.00    +0.000 OA
ATOM      8  N   UNL     1       3.715   4.525  19.058  0.00  0.00    +0.000 N 
ATOM      9  C   UNL     1       3.307   5.874  18.651  0.00  0.00    +0.000 C 
ATOM     10  C   UNL     1       2.627   6.576  19.832  0.00  0.00    +0.000 C 
ATOM     11  O   UNL     1       1.516   5.800  20.320  0.00  0.00    +0.000 OA
ATOM     12  C   UNL     1       1.942   4.490  20.738  0.00  0.00    +0.000 C 
ATOM     13  C   UNL     1       2.604   3.734  19.581  0.00  0.00    +0.000 C 
ENDBRANCH   5   6
BRANCH   1  18
ATOM     14  C   UNL     1       5.394   3.655  12.179  0.00  0.00    +0.000 C 
ATOM     15  C   UNL     1       5.778   3.906  13.607  0.00  0.00    +0.000 A 
ATOM     16  C   UNL     1       4.938   3.544  14.664  0.00  0.00    +0.000 A 
ATOM     17  C   UNL     1       5.273   3.873  15.983  0.00  0.00    +0.000 A 
ATOM     18  C   UNL     1       6.449   4.580  16.267  0.00  0.00    +0.000 A 
ATOM     19  C   UNL     1       7.316   4.878  15.209  0.00  0.00    +0.000 A 
ATOM     20  C   UNL     1       6.980   4.557  13.892  0.00  0.00    +0.000 A 
ENDBRANCH   1  18
TORSDOF 2
ENDMDL
