MODEL 1
REMARK VINA RESULT:      -6.5      0.000      0.000
REMARK  Name = 
REMARK  5 active torsions:
REMARK  status: ('A' for Active; 'I' for Inactive)
REMARK    1  A    between atoms: C_1  and  C_2
REMARK    2  A    between atoms: C_2  and  S_3
REMARK    3  A    between atoms: S_3  and  C_4
REMARK    4  A    between atoms: C_7  and  C_8
REMARK    5  A    between atoms: C_15  and  C_16
REMARK                            x       y       z     vdW  Elec       q    Type
REMARK                         _______ _______ _______ _____ _____    ______ ____
ROOT
ATOM      1  C   UNL     1       2.047   8.815  18.313  0.00  0.00    +0.000 C 
ATOM      2  O   UNL     1       2.021   9.528  17.311  0.00  0.00    +0.000 OA
ATOM      3  N   UNL     1       1.570   9.247  19.550  0.00  0.00    +0.000 N 
ATOM      4  C   UNL     1       1.716   8.580  20.847  0.00  0.00    +0.000 C 
ATOM      5  C   UNL     1       0.357   8.078  21.336  0.00  0.00    +0.000 C 
ATOM      6  C   UNL     1      -0.672   9.205  21.357  0.00  0.00    +0.000 C 
ATOM      7  C   UNL     1      -0.718   9.947  20.017  0.00  0.00    +0.000 C 
ATOM      8  C   UNL     1       0.672  10.429  19.563  0.00  0.00    +0.000 C 
ENDROOT
BRANCH   8   9
ATOM      9  C   UNL     1       1.178  11.646  20.402  0.00  0.00    +0.000 C 
ATOM     10  O   UNL     1       1.005  11.733  21.622  0.00  0.00    +0.000 OA
ATOM     11  N   UNL     1       1.774  12.685  19.709  0.00  0.00    +0.000 N 
ATOM     12  C   UNL     1       2.244  13.875  20.393  0.00  0.00    +0.000 C 
ATOM     13  C   UNL     1       2.396  14.881  19.269  0.00  0.00    +0.000 C 
ATOM     14  C   UNL     1       2.862  14.032  18.089  0.00  0.00    +0.000 C 
ATOM     15  C   UNL     1       2.292  12.641  18.352  0.00  0.00    +0.000 C 
ENDBRANCH   8   9
BRANCH   1  19
ATOM     16  C   UNL     1       3.625   4.931  17.601  0.00  0.00    +0.000 A 
ATOM     17  C   UNL     1       2.325   5.023  18.063  0.00  0.00    +0.000 A 
ATOM     18  C   UNL     1       1.790   6.283  18.285  0.00  0.00    +0.000 A 
ATOM     19  C   UNL     1       2.563   7.428  18.117  0.00  0.00    +0.000 A 
ATOM     20  C   UNL     1       3.842   7.239  17.612  0.00  0.00    +0.000 A 
ATOM     21  N   UNL     1       4.391   6.018  17.358  0.00  0.00    +0.000 NA
BRANCH  16  22
ATOM     22  S   UNL     1       4.255   3.306  17.255  0.00  0.00    +0.000 S 
BRANCH  22  24
ATOM     23  C   UNL     1       4.202   2.320  19.777  0.00  0.00    +0.000 C 
ATOM     24  C   UNL     1       3.364   2.354  18.512  0.00  0.00    +0.000 C 
ENDBRANCH  22  24
ENDBRANCH  16  22
ENDBRANCH   1  19
TORSDOF 4
ENDMDL
MODEL 2
REMARK VINA RESULT:      -6.5      3.580      7.778
REMARK  Name = 
REMARK  5 active torsions:
REMARK  status: ('A' for Active; 'I' for Inactive)
REMARK    1  A    between atoms: C_1  and  C_2
REMARK    2  A    between atoms: C_2  and  S_3
REMARK    3  A    between atoms: S_3  and  C_4
REMARK    4  A    between atoms: C_7  and  C_8
REMARK    5  A    between atoms: C_15  and  C_16
REMARK                            x       y       z     vdW  Elec       q    Type
REMARK                         _______ _______ _______ _____ _____    ______ ____
ROOT
ATOM      1  C   UNL     1       3.214   6.219  19.325  0.00  0.00    +0.000 C 
ATOM      2  O   UNL     1       4.403   6.524  19.411  0.00  0.00    +0.000 OA
ATOM      3  N   UNL     1       2.795   4.938  18.965  0.00  0.00    +0.000 N 
ATOM      4  C   UNL     1       1.434   4.501  18.643  0.00  0.00    +0.000 C 
ATOM      5  C   UNL     1       0.916   3.556  19.728  0.00  0.00    +0.000 C 
ATOM      6  C   UNL     1       1.879   2.393  19.952  0.00  0.00    +0.000 C 
ATOM      7  C   UNL     1       3.312   2.888  20.178  0.00  0.00    +0.000 C 
ATOM      8  C   UNL     1       3.788   3.839  19.065  0.00  0.00    +0.000 C 
ENDROOT
BRANCH   8   9
ATOM      9  C   UNL     1       4.089   3.085  17.730  0.00  0.00    +0.000 C 
ATOM     10  O   UNL     1       3.738   1.917  17.532  0.00  0.00    +0.000 OA
ATOM     11  N   UNL     1       4.846   3.753  16.785  0.00  0.00    +0.000 N 
ATOM     12  C   UNL     1       5.209   3.125  15.529  0.00  0.00    +0.000 C 
ATOM     13  C   UNL     1       6.349   3.990  15.028  0.00  0.00    +0.000 C 
ATOM     14  C   UNL     1       5.961   5.394  15.486  0.00  0.00    +0.000 C 
ATOM     15  C   UNL     1       5.106   5.182  16.732  0.00  0.00    +0.000 C 
ENDBRANCH   8   9
BRANCH   1  19
ATOM     16  C   UNL     1       0.538   9.384  20.274  0.00  0.00    +0.000 A 
ATOM     17  C   UNL     1       0.735   8.401  21.226  0.00  0.00    +0.000 A 
ATOM     18  C   UNL     1       1.617   7.370  20.939  0.00  0.00    +0.000 A 
ATOM     19  C   UNL     1       2.237   7.284  19.696  0.00  0.00    +0.000 A 
ATOM     20  C   UNL     1       2.009   8.337  18.820  0.00  0.00    +0.000 A 
ATOM     21  N   UNL     1       1.169   9.379  19.079  0.00  0.00    +0.000 NA
BRANCH  16  22
ATOM     22  S   UNL     1      -0.540  10.730  20.702  0.00  0.00    +0.000 S 
BRANCH  22  24
ATOM     23  C   UNL     1      -1.577  11.529  23.073  0.00  0.00    +0.000 C 
ATOM     24  C   UNL     1      -0.612  10.509  22.499  0.00  0.00    +0.000 C 
ENDBRANCH  22  24
ENDBRANCH  16  22
ENDBRANCH   1  19
TORSDOF 4
ENDMDL
MODEL 3
REMARK VINA RESULT:      -6.4      1.012      1.415
REMARK  Name = 
REMARK  5 active torsions:
REMARK  status: ('A' for Active; 'I' for Inactive)
REMARK    1  A    between atoms: C_1  and  C_2
REMARK    2  A    between atoms: C_2  and  S_3
REMARK    3  A    between atoms: S_3  and  C_4
REMARK    4  A    between atoms: C_7  and  C_8
REMARK    5  A    between atoms: C_15  and  C_16
REMARK                            x       y       z     vdW  Elec       q    Type
REMARK                         _______ _______ _______ _____ _____    ______ ____
ROOT
ATOM      1  C   UNL     1       2.049   8.897  18.293  0.00  0.00    +0.000 C 
ATOM      2  O   UNL     1       1.937   9.627  17.309  0.00  0.00    +0.000 OA
ATOM      3  N   UNL     1       1.589   9.269  19.556  0.00  0.00    +0.000 N 
ATOM      4  C   UNL     1       1.828   8.588  20.831  0.00  0.00    +0.000 C 
ATOM      5  C   UNL     1       0.525   7.982  21.355  0.00  0.00    +0.000 C 
ATOM      6  C   UNL     1      -0.577   9.035  21.439  0.00  0.00    +0.000 C 
ATOM      7  C   UNL     1      -0.723   9.800  20.119  0.00  0.00    +0.000 C 
ATOM      8  C   UNL     1       0.614  10.386  19.628  0.00  0.00    +0.000 C 
ENDROOT
BRANCH   8   9
ATOM      9  C   UNL     1       1.067  11.618  20.476  0.00  0.00    +0.000 C 
ATOM     10  O   UNL     1       0.866  11.699  21.692  0.00  0.00    +0.000 OA
ATOM     11  N   UNL     1       1.644  12.674  19.795  0.00  0.00    +0.000 N 
ATOM     12  C   UNL     1       2.065  13.877  20.487  0.00  0.00    +0.000 C 
ATOM     13  C   UNL     1       2.209  14.888  19.366  0.00  0.00    +0.000 C 
ATOM     14  C   UNL     1       2.724  14.053  18.196  0.00  0.00    +0.000 C 
ATOM     15  C   UNL     1       2.191  12.646  18.449  0.00  0.00    +0.000 C 
ENDBRANCH   8   9
BRANCH   1  19
ATOM     16  C   UNL     1       3.857   5.145  17.434  0.00  0.00    +0.000 A 
ATOM     17  C   UNL     1       2.582   5.138  17.968  0.00  0.00    +0.000 A 
ATOM     18  C   UNL     1       1.971   6.354  18.240  0.00  0.00    +0.000 A 
ATOM     19  C   UNL     1       2.650   7.553  18.047  0.00  0.00    +0.000 A 
ATOM     20  C   UNL     1       3.909   7.462  17.469  0.00  0.00    +0.000 A 
ATOM     21  N   UNL     1       4.528   6.287  17.166  0.00  0.00    +0.000 NA
BRANCH  16  22
ATOM     22  S   UNL     1       4.580   3.574  17.027  0.00  0.00    +0.000 S 
BRANCH  22  24
ATOM     23  C   UNL     1       6.008   3.923  14.752  0.00  0.00    +0.000 C 
ATOM     24  C   UNL     1       6.119   4.133  16.251  0.00  0.00    +0.000 C 
ENDBRANCH  22  24
ENDBRANCH  16  22
ENDBRANCH   1  19
TORSDOF 4
ENDMDL
MODEL 4
REMARK VINA RESULT:      -6.3      3.397      7.718
REMARK  Name = 
REMARK  5 active torsions:
REMARK  status: ('A' for Active; 'I' for Inactive)
REMARK    1  A    between atoms: C_1  and  C_2
REMARK    2  A    between atoms: C_2  and  S_3
REMARK    3  A    between atoms: S_3  and  C_4
REMARK    4  A    between atoms: C_7  and  C_8
REMARK    5  A    between atoms: C_15  and  C_16
REMARK                            x       y       z     vdW  Elec       q    Type
REMARK                         _______ _______ _______ _____ _____    ______ ____
ROOT
ATOM      1  C   UNL     1       3.231   6.212  19.293  0.00  0.00    +0.000 C 
ATOM      2  O   UNL     1       4.420   6.503  19.419  0.00  0.00    +0.000 OA
ATOM      3  N   UNL     1       2.810   4.934  18.925  0.00  0.00    +0.000 N 
ATOM      4  C   UNL     1       1.456   4.511  18.558  0.00  0.00    +0.000 C 
ATOM      5  C   UNL     1       0.887   3.579  19.628  0.00  0.00    +0.000 C 
ATOM      6  C   UNL     1       1.828   2.406  19.893  0.00  0.00    +0.000 C 
ATOM      7  C   UNL     1       3.257   2.885  20.167  0.00  0.00    +0.000 C 
ATOM      8  C   UNL     1       3.785   3.824  19.067  0.00  0.00    +0.000 C 
ENDROOT
BRANCH   8   9
ATOM      9  C   UNL     1       4.124   3.058  17.748  0.00  0.00    +0.000 C 
ATOM     10  O   UNL     1       3.816   1.876  17.567  0.00  0.00    +0.000 OA
ATOM     11  N   UNL     1       4.866   3.736  16.798  0.00  0.00    +0.000 N 
ATOM     12  C   UNL     1       5.262   3.100  15.556  0.00  0.00    +0.000 C 
ATOM     13  C   UNL     1       6.376   3.995  15.050  0.00  0.00    +0.000 C 
ATOM     14  C   UNL     1       5.936   5.392  15.480  0.00  0.00    +0.000 C 
ATOM     15  C   UNL     1       5.077   5.172  16.722  0.00  0.00    +0.000 C 
ENDBRANCH   8   9
BRANCH   1  19
ATOM     16  C   UNL     1       0.560   9.414  20.126  0.00  0.00    +0.000 A 
ATOM     17  C   UNL     1       0.718   8.440  21.094  0.00  0.00    +0.000 A 
ATOM     18  C   UNL     1       1.598   7.397  20.844  0.00  0.00    +0.000 A 
ATOM     19  C   UNL     1       2.254   7.291  19.622  0.00  0.00    +0.000 A 
ATOM     20  C   UNL     1       2.064   8.337  18.729  0.00  0.00    +0.000 A 
ATOM     21  N   UNL     1       1.227   9.390  18.951  0.00  0.00    +0.000 NA
BRANCH  16  22
ATOM     22  S   UNL     1      -0.516  10.776  20.507  0.00  0.00    +0.000 S 
BRANCH  22  24
ATOM     23  C   UNL     1      -2.044  10.442  18.295  0.00  0.00    +0.000 C 
ATOM     24  C   UNL     1      -0.929  11.322  18.829  0.00  0.00    +0.000 C 
ENDBRANCH  22  24
ENDBRANCH  16  22
ENDBRANCH   1  19
TORSDOF 4
ENDMDL
MODEL 5
REMARK VINA RESULT:      -6.2      2.924      4.102
REMARK  Name = 
REMARK  5 active torsions:
REMARK  status: ('A' for Active; 'I' for Inactive)
REMARK    1  A    between atoms: C_1  and  C_2
REMARK    2  A    between atoms: C_2  and  S_3
REMARK    3  A    between atoms: S_3  and  C_4
REMARK    4  A    between atoms: C_7  and  C_8
REMARK    5  A    between atoms: C_15  and  C_16
REMARK                            x       y       z     vdW  Elec       q    Type
REMARK                         _______ _______ _______ _____ _____    ______ ____
ROOT
ATOM      1  C   UNL     1       0.597  10.450  19.716  0.00  0.00    +0.000 C 
ATOM      2  O   UNL     1       1.222  11.278  20.379  0.00  0.00    +0.000 OA
ATOM      3  N   UNL     1      -0.702  10.681  19.265  0.00  0.00    +0.000 N 
ATOM      4  C   UNL     1      -1.616   9.720  18.642  0.00  0.00    +0.000 C 
ATOM      5  C   UNL     1      -1.839  10.084  17.173  0.00  0.00    +0.000 C 
ATOM      6  C   UNL     1      -2.305  11.530  17.029  0.00  0.00    +0.000 C 
ATOM      7  C   UNL     1      -1.385  12.493  17.785  0.00  0.00    +0.000 C 
ATOM      8  C   UNL     1      -1.185  12.085  19.256  0.00  0.00    +0.000 C 
ENDROOT
BRANCH   8   9
ATOM      9  C   UNL     1      -2.453  12.363  20.125  0.00  0.00    +0.000 C 
ATOM     10  O   UNL     1      -3.601  12.190  19.702  0.00  0.00    +0.000 OA
ATOM     11  N   UNL     1      -2.250  12.894  21.386  0.00  0.00    +0.000 N 
ATOM     12  C   UNL     1      -3.364  13.221  22.255  0.00  0.00    +0.000 C 
ATOM     13  C   UNL     1      -2.741  14.143  23.284  0.00  0.00    +0.000 C 
ATOM     14  C   UNL     1      -1.333  13.580  23.462  0.00  0.00    +0.000 C 
ATOM     15  C   UNL     1      -1.003  12.909  22.132  0.00  0.00    +0.000 C 
ENDBRANCH   8   9
BRANCH   1  19
ATOM     16  C   UNL     1       2.766   6.886  18.894  0.00  0.00    +0.000 A 
ATOM     17  C   UNL     1       2.665   7.825  17.885  0.00  0.00    +0.000 A 
ATOM     18  C   UNL     1       1.975   9.000  18.142  0.00  0.00    +0.000 A 
ATOM     19  C   UNL     1       1.336   9.203  19.361  0.00  0.00    +0.000 A 
ATOM     20  C   UNL     1       1.527   8.223  20.326  0.00  0.00    +0.000 A 
ATOM     21  N   UNL     1       2.220   7.068  20.117  0.00  0.00    +0.000 NA
BRANCH  16  22
ATOM     22  S   UNL     1       3.720   5.425  18.558  0.00  0.00    +0.000 S 
BRANCH  22  24
ATOM     23  C   UNL     1       1.488   4.097  17.790  0.00  0.00    +0.000 C 
ATOM     24  C   UNL     1       2.484   4.155  18.933  0.00  0.00    +0.000 C 
ENDBRANCH  22  24
ENDBRANCH  16  22
ENDBRANCH   1  19
TORSDOF 4
ENDMDL
MODEL 6
REMARK VINA RESULT:      -6.2      1.616      1.829
REMARK  Name = 
REMARK  5 active torsions:
REMARK  status: ('A' for Active; 'I' for Inactive)
REMARK    1  A    between atoms: C_1  and  C_2
REMARK    2  A    between atoms: C_2  and  S_3
REMARK    3  A    between atoms: S_3  and  C_4
REMARK    4  A    between atoms: C_7  and  C_8
REMARK    5  A    between atoms: C_15  and  C_16
REMARK                            x       y       z     vdW  Elec       q    Type
REMARK                         _______ _______ _______ _____ _____    ______ ____
ROOT
ATOM      1  C   UNL     1       1.361   9.100  19.613  0.00  0.00    +0.000 C 
ATOM      2  O   UNL     1       1.188   9.497  18.461  0.00  0.00    +0.000 OA
ATOM      3  N   UNL     1       1.081   9.892  20.727  0.00  0.00    +0.000 N 
ATOM      4  C   UNL     1       1.417   9.616  22.126  0.00  0.00    +0.000 C 
ATOM      5  C   UNL     1       0.144   9.347  22.929  0.00  0.00    +0.000 C 
ATOM      6  C   UNL     1      -0.859  10.486  22.769  0.00  0.00    +0.000 C 
ATOM      7  C   UNL     1      -1.102  10.816  21.293  0.00  0.00    +0.000 C 
ATOM      8  C   UNL     1       0.207  11.074  20.524  0.00  0.00    +0.000 C 
ENDROOT
BRANCH   8   9
ATOM      9  C   UNL     1       0.847  12.451  20.891  0.00  0.00    +0.000 C 
ATOM     10  O   UNL     1       0.690  12.985  21.994  0.00  0.00    +0.000 OA
ATOM     11  N   UNL     1       1.547  13.107  19.895  0.00  0.00    +0.000 N 
ATOM     12  C   UNL     1       2.147  14.408  20.126  0.00  0.00    +0.000 C 
ATOM     13  C   UNL     1       2.400  14.925  18.724  0.00  0.00    +0.000 C 
ATOM     14  C   UNL     1       2.765  13.667  17.939  0.00  0.00    +0.000 C 
ATOM     15  C   UNL     1       2.050  12.529  18.661  0.00  0.00    +0.000 C 
ENDBRANCH   8   9
BRANCH   1  19
ATOM     16  C   UNL     1       2.708   5.072  19.822  0.00  0.00    +0.000 A 
ATOM     17  C   UNL     1       1.782   5.490  20.759  0.00  0.00    +0.000 A 
ATOM     18  C   UNL     1       1.320   6.797  20.695  0.00  0.00    +0.000 A 
ATOM     19  C   UNL     1       1.827   7.689  19.756  0.00  0.00    +0.000 A 
ATOM     20  C   UNL     1       2.722   7.168  18.832  0.00  0.00    +0.000 A 
ATOM     21  N   UNL     1       3.178   5.884  18.849  0.00  0.00    +0.000 NA
BRANCH  16  22
ATOM     22  S   UNL     1       3.222   3.372  19.884  0.00  0.00    +0.000 S 
BRANCH  22  24
ATOM     23  C   UNL     1       0.914   2.438  18.818  0.00  0.00    +0.000 C 
ATOM     24  C   UNL     1       1.618   2.574  20.155  0.00  0.00    +0.000 C 
ENDBRANCH  22  24
ENDBRANCH  16  22
ENDBRANCH   1  19
TORSDOF 4
ENDMDL
MODEL 7
REMARK VINA RESULT:      -6.1      0.747      1.086
REMARK  Name = 
REMARK  5 active torsions:
REMARK  status: ('A' for Active; 'I' for Inactive)
REMARK    1  A    between atoms: C_1  and  C_2
REMARK    2  A    between atoms: C_2  and  S_3
REMARK    3  A    between atoms: S_3  and  C_4
REMARK    4  A    between atoms: C_7  and  C_8
REMARK    5  A    between atoms: C_15  and  C_16
REMARK                            x       y       z     vdW  Elec       q    Type
REMARK                         _______ _______ _______ _____ _____    ______ ____
ROOT
ATOM      1  C   UNL     1       2.067   8.626  18.323  0.00  0.00    +0.000 C 
ATOM      2  O   UNL     1       2.086   9.323  17.308  0.00  0.00    +0.000 OA
ATOM      3  N   UNL     1       1.589   9.098  19.545  0.00  0.00    +0.000 N 
ATOM      4  C   UNL     1       1.687   8.447  20.854  0.00  0.00    +0.000 C 
ATOM      5  C   UNL     1       0.302   8.008  21.328  0.00  0.00    +0.000 C 
ATOM      6  C   UNL     1      -0.681   9.176  21.315  0.00  0.00    +0.000 C 
ATOM      7  C   UNL     1      -0.676   9.897  19.963  0.00  0.00    +0.000 C 
ATOM      8  C   UNL     1       0.740  10.315  19.524  0.00  0.00    +0.000 C 
ENDROOT
BRANCH   8   9
ATOM      9  C   UNL     1       1.283  11.525  20.351  0.00  0.00    +0.000 C 
ATOM     10  O   UNL     1       1.160  11.601  21.578  0.00  0.00    +0.000 OA
ATOM     11  N   UNL     1       1.851  12.568  19.643  0.00  0.00    +0.000 N 
ATOM     12  C   UNL     1       2.351  13.752  20.317  0.00  0.00    +0.000 C 
ATOM     13  C   UNL     1       2.458  14.767  19.196  0.00  0.00    +0.000 C 
ATOM     14  C   UNL     1       2.873  13.927  17.991  0.00  0.00    +0.000 C 
ATOM     15  C   UNL     1       2.313  12.535  18.266  0.00  0.00    +0.000 C 
ENDBRANCH   8   9
BRANCH   1  19
ATOM     16  C   UNL     1       3.222   4.550  17.955  0.00  0.00    +0.000 A 
ATOM     17  C   UNL     1       4.225   5.499  18.030  0.00  0.00    +0.000 A 
ATOM     18  C   UNL     1       3.866   6.832  18.166  0.00  0.00    +0.000 A 
ATOM     19  C   UNL     1       2.528   7.216  18.156  0.00  0.00    +0.000 A 
ATOM     20  C   UNL     1       1.593   6.191  18.118  0.00  0.00    +0.000 A 
ATOM     21  N   UNL     1       1.910   4.870  18.010  0.00  0.00    +0.000 NA
BRANCH  16  22
ATOM     22  S   UNL     1       3.716   2.846  17.857  0.00  0.00    +0.000 S 
BRANCH  22  24
ATOM     23  C   UNL     1       3.161   2.699  20.504  0.00  0.00    +0.000 C 
ATOM     24  C   UNL     1       4.332   2.605  19.544  0.00  0.00    +0.000 C 
ENDBRANCH  22  24
ENDBRANCH  16  22
ENDBRANCH   1  19
TORSDOF 4
ENDMDL
MODEL 8
REMARK VINA RESULT:      -6.1      3.306      7.657
REMARK  Name = 
REMARK  5 active torsions:
REMARK  status: ('A' for Active; 'I' for Inactive)
REMARK    1  A    between atoms: C_1  and  C_2
REMARK    2  A    between atoms: C_2  and  S_3
REMARK    3  A    between atoms: S_3  and  C_4
REMARK    4  A    between atoms: C_7  and  C_8
REMARK    5  A    between atoms: C_15  and  C_16
REMARK                            x       y       z     vdW  Elec       q    Type
REMARK                         _______ _______ _______ _____ _____    ______ ____
ROOT
ATOM      1  C   UNL     1       2.981   7.432  18.229  0.00  0.00    +0.000 C 
ATOM      2  O   UNL     1       3.971   7.986  17.750  0.00  0.00    +0.000 OA
ATOM      3  N   UNL     1       2.869   6.045  18.313  0.00  0.00    +0.000 N 
ATOM      4  C   UNL     1       1.683   5.265  18.678  0.00  0.00    +0.000 C 
ATOM      5  C   UNL     1       1.898   4.583  20.030  0.00  0.00    +0.000 C 
ATOM      6  C   UNL     1       3.180   3.754  20.030  0.00  0.00    +0.000 C 
ATOM      7  C   UNL     1       4.377   4.575  19.540  0.00  0.00    +0.000 C 
ATOM      8  C   UNL     1       4.113   5.247  18.180  0.00  0.00    +0.000 C 
ENDROOT
BRANCH   8   9
ATOM      9  C   UNL     1       4.129   4.222  17.001  0.00  0.00    +0.000 C 
ATOM     10  O   UNL     1       3.409   3.219  16.981  0.00  0.00    +0.000 OA
ATOM     11  N   UNL     1       5.051   4.436  15.992  0.00  0.00    +0.000 N 
ATOM     12  C   UNL     1       5.169   3.522  14.872  0.00  0.00    +0.000 C 
ATOM     13  C   UNL     1       6.524   3.866  14.286  0.00  0.00    +0.000 C 
ATOM     14  C   UNL     1       6.629   5.375  14.492  0.00  0.00    +0.000 C 
ATOM     15  C   UNL     1       5.769   5.669  15.718  0.00  0.00    +0.000 C 
ENDBRANCH   8   9
BRANCH   1  19
ATOM     16  C   UNL     1       0.040  10.145  19.668  0.00  0.00    +0.000 A 
ATOM     17  C   UNL     1       0.612   9.274  20.577  0.00  0.00    +0.000 A 
ATOM     18  C   UNL     1       1.584   8.393  20.127  0.00  0.00    +0.000 A 
ATOM     19  C   UNL     1       1.929   8.336  18.780  0.00  0.00    +0.000 A 
ATOM     20  C   UNL     1       1.332   9.276  17.952  0.00  0.00    +0.000 A 
ATOM     21  N   UNL     1       0.392  10.172  18.364  0.00  0.00    +0.000 NA
BRANCH  16  22
ATOM     22  S   UNL     1      -1.147  11.311  20.291  0.00  0.00    +0.000 S 
BRANCH  22  24
ATOM     23  C   UNL     1      -1.396  11.311  22.988  0.00  0.00    +0.000 C 
ATOM     24  C   UNL     1      -0.403  11.680  21.902  0.00  0.00    +0.000 C 
ENDBRANCH  22  24
ENDBRANCH  16  22
ENDBRANCH   1  19
TORSDOF 4
ENDMDL
MODEL 9
REMARK VINA RESULT:      -6.1      3.376      7.703
REMARK  Name = 
REMARK  5 active torsions:
REMARK  status: ('A' for Active; 'I' for Inactive)
REMARK    1  A    between atoms: C_1  and  C_2
REMARK    2  A    between atoms: C_2  and  S_3
REMARK    3  A    between atoms: S_3  and  C_4
REMARK    4  A    between atoms: C_7  and  C_8
REMARK    5  A    between atoms: C_15  and  C_16
REMARK                            x       y       z     vdW  Elec       q    Type
REMARK                         _______ _______ _______ _____ _____    ______ ____
ROOT
ATOM      1  C   UNL     1       3.223   7.161  18.243  0.00  0.00    +0.000 C 
ATOM      2  O   UNL     1       4.270   7.682  17.859  0.00  0.00    +0.000 OA
ATOM      3  N   UNL     1       3.061   5.778  18.320  0.00  0.00    +0.000 N 
ATOM      4  C   UNL     1       1.823   5.036  18.572  0.00  0.00    +0.000 C 
ATOM      5  C   UNL     1       1.887   4.356  19.940  0.00  0.00    +0.000 C 
ATOM      6  C   UNL     1       3.138   3.490  20.067  0.00  0.00    +0.000 C 
ATOM      7  C   UNL     1       4.401   4.272  19.691  0.00  0.00    +0.000 C 
ATOM      8  C   UNL     1       4.289   4.943  18.310  0.00  0.00    +0.000 C 
ENDROOT
BRANCH   8   9
ATOM      9  C   UNL     1       4.387   3.911  17.141  0.00  0.00    +0.000 C 
ATOM     10  O   UNL     1       3.853   2.798  17.189  0.00  0.00    +0.000 OA
ATOM     11  N   UNL     1       5.172   4.258  16.057  0.00  0.00    +0.000 N 
ATOM     12  C   UNL     1       5.356   3.354  14.938  0.00  0.00    +0.000 C 
ATOM     13  C   UNL     1       6.578   3.915  14.237  0.00  0.00    +0.000 C 
ATOM     14  C   UNL     1       6.434   5.423  14.422  0.00  0.00    +0.000 C 
ATOM     15  C   UNL     1       5.639   5.591  15.714  0.00  0.00    +0.000 C 
ENDBRANCH   8   9
BRANCH   1  19
ATOM     16  C   UNL     1       0.232   9.963  19.373  0.00  0.00    +0.000 A 
ATOM     17  C   UNL     1       0.749   9.141  20.358  0.00  0.00    +0.000 A 
ATOM     18  C   UNL     1       1.737   8.233  20.009  0.00  0.00    +0.000 A 
ATOM     19  C   UNL     1       2.150   8.098  18.687  0.00  0.00    +0.000 A 
ATOM     20  C   UNL     1       1.604   8.994  17.777  0.00  0.00    +0.000 A 
ATOM     21  N   UNL     1       0.651   9.916  18.089  0.00  0.00    +0.000 NA
BRANCH  16  22
ATOM     22  S   UNL     1      -0.978  11.168  19.868  0.00  0.00    +0.000 S 
BRANCH  22  24
ATOM     23  C   UNL     1      -2.849  10.768  17.951  0.00  0.00    +0.000 C 
ATOM     24  C   UNL     1      -1.636  11.629  18.244  0.00  0.00    +0.000 C 
ENDBRANCH  22  24
ENDBRANCH  16  22
ENDBRANCH   1  19
TORSDOF 4
ENDMDL
