MODEL 1
REMARK VINA RESULT:      -4.0      0.000      0.000
REMARK  Name = 
REMARK  1 active torsions:
REMARK  status: ('A' for Active; 'I' for Inactive)
REMARK    1  A    between atoms: C_1  and  N_2
REMARK                            x       y       z     vdW  Elec       q    Type
REMARK                         _______ _______ _______ _____ _____    ______ ____
ROOT
ATOM      1  C   UNL     1       4.860   5.817  16.516  0.00  0.00    +0.000 C 
ATOM      2  N   UNL     1       5.954   5.952  17.448  0.00  0.00    +0.000 N 
ATOM      3  C   UNL     1       7.024   6.808  17.389  0.00  0.00    +0.000 A 
ATOM      4  C   UNL     1       7.924   6.786  18.380  0.00  0.00    +0.000 A 
ATOM      5  C   UNL     1       7.513   5.775  19.370  0.00  0.00    +0.000 A 
ATOM      6  N   UNL     1       8.101   5.448  20.461  0.00  0.00    +0.000 NA
ATOM      7  S   UNL     1       6.015   5.022  18.836  0.00  0.00    +0.000 S 
ATOM      8  H   UNL     1       8.951   6.001  20.587  0.00  0.00    +0.000 HD
ENDROOT
TORSDOF 0
ENDMDL
MODEL 2
REMARK VINA RESULT:      -3.8      5.073      5.795
REMARK  Name = 
REMARK  1 active torsions:
REMARK  status: ('A' for Active; 'I' for Inactive)
REMARK    1  A    between atoms: C_1  and  N_2
REMARK                            x       y       z     vdW  Elec       q    Type
REMARK                         _______ _______ _______ _____ _____    ______ ____
ROOT
ATOM      1  C   UNL     1       3.488   3.660  17.445  0.00  0.00    +0.000 C 
ATOM      2  N   UNL     1       2.722   3.538  18.662  0.00  0.00    +0.000 N 
ATOM      3  C   UNL     1       1.463   4.016  18.929  0.00  0.00    +0.000 A 
ATOM      4  C   UNL     1       0.921   3.769  20.128  0.00  0.00    +0.000 A 
ATOM      5  C   UNL     1       1.876   2.982  20.927  0.00  0.00    +0.000 A 
ATOM      6  N   UNL     1       1.738   2.543  22.124  0.00  0.00    +0.000 NA
ATOM      7  S   UNL     1       3.326   2.696  19.973  0.00  0.00    +0.000 S 
ATOM      8  H   UNL     1       0.827   2.816  22.499  0.00  0.00    +0.000 HD
ENDROOT
TORSDOF 0
ENDMDL
MODEL 3
REMARK VINA RESULT:      -3.8      2.786      3.777
REMARK  Name = 
REMARK  1 active torsions:
REMARK  status: ('A' for Active; 'I' for Inactive)
REMARK    1  A    between atoms: C_1  and  N_2
REMARK                            x       y       z     vdW  Elec       q    Type
REMARK                         _______ _______ _______ _____ _____    ______ ____
ROOT
ATOM      1  C   UNL     1       5.147   4.063  18.928  0.00  0.00    +0.000 C 
ATOM      2  N   UNL     1       5.564   4.310  17.568  0.00  0.00    +0.000 N 
ATOM      3  C   UNL     1       4.834   4.175  16.414  0.00  0.00    +0.000 A 
ATOM      4  C   UNL     1       5.411   4.482  15.246  0.00  0.00    +0.000 A 
ATOM      5  C   UNL     1       6.791   4.928  15.503  0.00  0.00    +0.000 A 
ATOM      6  N   UNL     1       7.673   5.310  14.654  0.00  0.00    +0.000 NA
ATOM      7  S   UNL     1       7.103   4.870  17.233  0.00  0.00    +0.000 S 
ATOM      8  H   UNL     1       7.294   5.271  13.706  0.00  0.00    +0.000 HD
ENDROOT
TORSDOF 0
ENDMDL
MODEL 4
REMARK VINA RESULT:      -3.7      5.367      5.709
REMARK  Name = 
REMARK  1 active torsions:
REMARK  status: ('A' for Active; 'I' for Inactive)
REMARK    1  A    between atoms: C_1  and  N_2
REMARK                            x       y       z     vdW  Elec       q    Type
REMARK                         _______ _______ _______ _____ _____    ______ ____
ROOT
ATOM      1  C   UNL     1       2.057   4.937  20.483  0.00  0.00    +0.000 C 
ATOM      2  N   UNL     1       2.368   3.803  19.646  0.00  0.00    +0.000 N 
ATOM      3  C   UNL     1       1.761   3.412  18.479  0.00  0.00    +0.000 A 
ATOM      4  C   UNL     1       2.226   2.331  17.841  0.00  0.00    +0.000 A 
ATOM      5  C   UNL     1       3.365   1.786  18.600  0.00  0.00    +0.000 A 
ATOM      6  N   UNL     1       4.085   0.761  18.326  0.00  0.00    +0.000 NA
ATOM      7  S   UNL     1       3.636   2.782  20.025  0.00  0.00    +0.000 S 
ATOM      8  H   UNL     1       3.764   0.324  17.460  0.00  0.00    +0.000 HD
ENDROOT
TORSDOF 0
ENDMDL
MODEL 5
REMARK VINA RESULT:      -3.7      1.714      1.813
REMARK  Name = 
REMARK  1 active torsions:
REMARK  status: ('A' for Active; 'I' for Inactive)
REMARK    1  A    between atoms: C_1  and  N_2
REMARK                            x       y       z     vdW  Elec       q    Type
REMARK                         _______ _______ _______ _____ _____    ______ ____
ROOT
ATOM      1  C   UNL     1       3.557   6.340  18.000  0.00  0.00    +0.000 C 
ATOM      2  N   UNL     1       4.944   6.017  17.761  0.00  0.00    +0.000 N 
ATOM      3  C   UNL     1       5.925   6.813  17.225  0.00  0.00    +0.000 A 
ATOM      4  C   UNL     1       7.164   6.321  17.111  0.00  0.00    +0.000 A 
ATOM      5  C   UNL     1       7.176   4.943  17.631  0.00  0.00    +0.000 A 
ATOM      6  N   UNL     1       8.165   4.129  17.701  0.00  0.00    +0.000 NA
ATOM      7  S   UNL     1       5.560   4.522  18.184  0.00  0.00    +0.000 S 
ATOM      8  H   UNL     1       9.011   4.566  17.330  0.00  0.00    +0.000 HD
ENDROOT
TORSDOF 0
ENDMDL
MODEL 6
REMARK VINA RESULT:      -3.7      3.881      4.727
REMARK  Name = 
REMARK  1 active torsions:
REMARK  status: ('A' for Active; 'I' for Inactive)
REMARK    1  A    between atoms: C_1  and  N_2
REMARK                            x       y       z     vdW  Elec       q    Type
REMARK                         _______ _______ _______ _____ _____    ______ ____
ROOT
ATOM      1  C   UNL     1       0.752   2.470  18.911  0.00  0.00    +0.000 C 
ATOM      2  N   UNL     1       2.077   2.921  18.562  0.00  0.00    +0.000 N 
ATOM      3  C   UNL     1       2.506   3.478  17.383  0.00  0.00    +0.000 A 
ATOM      4  C   UNL     1       3.786   3.853  17.275  0.00  0.00    +0.000 A 
ATOM      5  C   UNL     1       4.475   3.559  18.543  0.00  0.00    +0.000 A 
ATOM      6  N   UNL     1       5.703   3.767  18.847  0.00  0.00    +0.000 NA
ATOM      7  S   UNL     1       3.329   2.840  19.667  0.00  0.00    +0.000 S 
ATOM      8  H   UNL     1       6.197   4.191  18.058  0.00  0.00    +0.000 HD
ENDROOT
TORSDOF 0
ENDMDL
MODEL 7
REMARK VINA RESULT:      -3.7      1.505      1.577
REMARK  Name = 
REMARK  1 active torsions:
REMARK  status: ('A' for Active; 'I' for Inactive)
REMARK    1  A    between atoms: C_1  and  N_2
REMARK                            x       y       z     vdW  Elec       q    Type
REMARK                         _______ _______ _______ _____ _____    ______ ____
ROOT
ATOM      1  C   UNL     1       4.100   4.179  16.920  0.00  0.00    +0.000 C 
ATOM      2  N   UNL     1       5.356   4.496  17.556  0.00  0.00    +0.000 N 
ATOM      3  C   UNL     1       6.620   4.436  17.025  0.00  0.00    +0.000 A 
ATOM      4  C   UNL     1       7.658   4.800  17.789  0.00  0.00    +0.000 A 
ATOM      5  C   UNL     1       7.153   5.211  19.110  0.00  0.00    +0.000 A 
ATOM      6  N   UNL     1       7.822   5.627  20.122  0.00  0.00    +0.000 NA
ATOM      7  S   UNL     1       5.401   5.052  19.132  0.00  0.00    +0.000 S 
ATOM      8  H   UNL     1       8.821   5.646  19.903  0.00  0.00    +0.000 HD
ENDROOT
TORSDOF 0
ENDMDL
MODEL 8
REMARK VINA RESULT:      -3.7      1.420      1.784
REMARK  Name = 
REMARK  1 active torsions:
REMARK  status: ('A' for Active; 'I' for Inactive)
REMARK    1  A    between atoms: C_1  and  N_2
REMARK                            x       y       z     vdW  Elec       q    Type
REMARK                         _______ _______ _______ _____ _____    ______ ____
ROOT
ATOM      1  C   UNL     1       5.247   6.290  15.826  0.00  0.00    +0.000 C 
ATOM      2  N   UNL     1       5.689   5.941  17.155  0.00  0.00    +0.000 N 
ATOM      3  C   UNL     1       4.993   5.290  18.142  0.00  0.00    +0.000 A 
ATOM      4  C   UNL     1       5.604   5.043  19.307  0.00  0.00    +0.000 A 
ATOM      5  C   UNL     1       6.979   5.565  19.241  0.00  0.00    +0.000 A 
ATOM      6  N   UNL     1       7.888   5.528  20.145  0.00  0.00    +0.000 NA
ATOM      7  S   UNL     1       7.243   6.293  17.661  0.00  0.00    +0.000 S 
ATOM      8  H   UNL     1       7.534   5.064  20.984  0.00  0.00    +0.000 HD
ENDROOT
TORSDOF 0
ENDMDL
MODEL 9
REMARK VINA RESULT:      -3.7      1.653      1.994
REMARK  Name = 
REMARK  1 active torsions:
REMARK  status: ('A' for Active; 'I' for Inactive)
REMARK    1  A    between atoms: C_1  and  N_2
REMARK                            x       y       z     vdW  Elec       q    Type
REMARK                         _______ _______ _______ _____ _____    ______ ____
ROOT
ATOM      1  C   UNL     1       5.488   4.199  15.703  0.00  0.00    +0.000 C 
ATOM      2  N   UNL     1       5.801   4.629  17.045  0.00  0.00    +0.000 N 
ATOM      3  C   UNL     1       4.938   4.904  18.075  0.00  0.00    +0.000 A 
ATOM      4  C   UNL     1       5.443   5.269  19.260  0.00  0.00    +0.000 A 
ATOM      5  C   UNL     1       6.912   5.283  19.164  0.00  0.00    +0.000 A 
ATOM      6  N   UNL     1       7.765   5.576  20.076  0.00  0.00    +0.000 NA
ATOM      7  S   UNL     1       7.388   4.815  17.536  0.00  0.00    +0.000 S 
ATOM      8  H   UNL     1       7.286   5.819  20.945  0.00  0.00    +0.000 HD
ENDROOT
TORSDOF 0
ENDMDL
