MODEL 1
REMARK VINA RESULT:      -7.3      0.000      0.000
REMARK  Name = 
REMARK  5 active torsions:
REMARK  status: ('A' for Active; 'I' for Inactive)
REMARK    1  A    between atoms: C_2  and  C_3
REMARK    2  A    between atoms: N_5  and  C_6
REMARK    3  A    between atoms: C_6  and  C_7
REMARK    4  A    between atoms: C_7  and  N_8
REMARK    5  A    between atoms: C_13  and  C_14
REMARK                            x       y       z     vdW  Elec       q    Type
REMARK                         _______ _______ _______ _____ _____    ______ ____
ROOT
ATOM      1  N   UNL     1       6.852   6.595  17.951  0.00  0.00    +0.000 N 
ATOM      2  C   UNL     1       7.082   5.649  18.918  0.00  0.00    +0.000 C 
ATOM      3  O   UNL     1       8.132   5.424  19.501  0.00  0.00    +0.000 OA
ATOM      4  S   UNL     1       5.628   4.704  19.202  0.00  0.00    +0.000 S 
ATOM      5  C   UNL     1       4.774   5.510  17.955  0.00  0.00    +0.000 C 
ATOM      6  C   UNL     1       3.497   5.360  17.579  0.00  0.00    +0.000 C 
ATOM      7  C   UNL     1       5.656   6.491  17.280  0.00  0.00    +0.000 C 
ATOM      8  O   UNL     1       5.328   7.082  16.262  0.00  0.00    +0.000 OA
ENDROOT
BRANCH   6   9
ATOM      9  C   UNL     1       2.555   4.427  18.186  0.00  0.00    +0.000 A 
ATOM     10  C   UNL     1       1.883   4.751  19.363  0.00  0.00    +0.000 A 
ATOM     11  C   UNL     1       1.004   3.827  19.921  0.00  0.00    +0.000 A 
ATOM     12  C   UNL     1       0.829   2.611  19.279  0.00  0.00    +0.000 A 
ATOM     13  N   UNL     1       1.459   2.267  18.134  0.00  0.00    +0.000 NA
ATOM     14  C   UNL     1       2.311   3.182  17.615  0.00  0.00    +0.000 A 
ENDBRANCH   6   9
BRANCH   1  15
ATOM     15  C   UNL     1       7.938   7.454  17.492  0.00  0.00    +0.000 C 
BRANCH  15  16
ATOM     16  C   UNL     1       7.741   8.951  17.782  0.00  0.00    +0.000 C 
BRANCH  16  19
ATOM     17  O   UNL     1       8.660  11.618  17.755  0.00  0.00    +0.000 OA
ATOM     18  C   UNL     1       9.195  10.818  18.518  0.00  0.00    +0.000 C 
ATOM     19  N   UNL     1       8.762   9.520  18.635  0.00  0.00    +0.000 N 
ATOM     20  H   UNL     1       9.344   8.885  19.174  0.00  0.00    +0.000 HD
BRANCH  18  21
ATOM     21  C   UNL     1      10.362  11.228  19.405  0.00  0.00    +0.000 C 
ATOM     22 CL   UNL     1      11.857  11.524  18.484  0.00  0.00    +0.000 Cl
ENDBRANCH  18  21
ENDBRANCH  16  19
ENDBRANCH  15  16
ENDBRANCH   1  15
TORSDOF 5
ENDMDL
MODEL 2
REMARK VINA RESULT:      -7.2      0.643      1.057
REMARK  Name = 
REMARK  5 active torsions:
REMARK  status: ('A' for Active; 'I' for Inactive)
REMARK    1  A    between atoms: C_2  and  C_3
REMARK    2  A    between atoms: N_5  and  C_6
REMARK    3  A    between atoms: C_6  and  C_7
REMARK    4  A    between atoms: C_7  and  N_8
REMARK    5  A    between atoms: C_13  and  C_14
REMARK                            x       y       z     vdW  Elec       q    Type
REMARK                         _______ _______ _______ _____ _____    ______ ____
ROOT
ATOM      1  N   UNL     1       6.815   6.610  17.930  0.00  0.00    +0.000 N 
ATOM      2  C   UNL     1       7.058   5.709  18.935  0.00  0.00    +0.000 C 
ATOM      3  O   UNL     1       8.114   5.515  19.520  0.00  0.00    +0.000 OA
ATOM      4  S   UNL     1       5.612   4.770  19.272  0.00  0.00    +0.000 S 
ATOM      5  C   UNL     1       4.743   5.516  17.998  0.00  0.00    +0.000 C 
ATOM      6  C   UNL     1       3.464   5.343  17.639  0.00  0.00    +0.000 C 
ATOM      7  C   UNL     1       5.614   6.471  17.274  0.00  0.00    +0.000 C 
ATOM      8  O   UNL     1       5.275   7.015  16.233  0.00  0.00    +0.000 OA
ENDROOT
BRANCH   6   9
ATOM      9  C   UNL     1       2.532   4.433  18.294  0.00  0.00    +0.000 A 
ATOM     10  C   UNL     1       2.301   3.156  17.787  0.00  0.00    +0.000 A 
ATOM     11  C   UNL     1       1.390   2.323  18.430  0.00  0.00    +0.000 A 
ATOM     12  C   UNL     1       0.744   2.798  19.560  0.00  0.00    +0.000 A 
ATOM     13  N   UNL     1       0.949   4.028  20.083  0.00  0.00    +0.000 NA
ATOM     14  C   UNL     1       1.837   4.819  19.435  0.00  0.00    +0.000 A 
ENDBRANCH   6   9
BRANCH   1  15
ATOM     15  C   UNL     1       7.893   7.454  17.425  0.00  0.00    +0.000 C 
BRANCH  15  16
ATOM     16  C   UNL     1       7.733   8.952  17.729  0.00  0.00    +0.000 C 
BRANCH  16  19
ATOM     17  O   UNL     1       8.611  11.633  17.784  0.00  0.00    +0.000 OA
ATOM     18  C   UNL     1       9.197  10.806  18.478  0.00  0.00    +0.000 C 
ATOM     19  N   UNL     1       8.790   9.498  18.553  0.00  0.00    +0.000 N 
ATOM     20  H   UNL     1       9.410   8.847  19.029  0.00  0.00    +0.000 HD
BRANCH  18  21
ATOM     21  C   UNL     1      10.404  11.193  19.320  0.00  0.00    +0.000 C 
ATOM     22 CL   UNL     1      11.832  11.598  18.337  0.00  0.00    +0.000 Cl
ENDBRANCH  18  21
ENDBRANCH  16  19
ENDBRANCH  15  16
ENDBRANCH   1  15
TORSDOF 5
ENDMDL
MODEL 3
REMARK VINA RESULT:      -6.9      1.278      1.521
REMARK  Name = 
REMARK  5 active torsions:
REMARK  status: ('A' for Active; 'I' for Inactive)
REMARK    1  A    between atoms: C_2  and  C_3
REMARK    2  A    between atoms: N_5  and  C_6
REMARK    3  A    between atoms: C_6  and  C_7
REMARK    4  A    between atoms: C_7  and  N_8
REMARK    5  A    between atoms: C_13  and  C_14
REMARK                            x       y       z     vdW  Elec       q    Type
REMARK                         _______ _______ _______ _____ _____    ______ ____
ROOT
ATOM      1  N   UNL     1       6.507   6.278  17.744  0.00  0.00    +0.000 N 
ATOM      2  C   UNL     1       6.845   5.025  18.191  0.00  0.00    +0.000 C 
ATOM      3  O   UNL     1       7.961   4.528  18.233  0.00  0.00    +0.000 OA
ATOM      4  S   UNL     1       5.405   4.143  18.675  0.00  0.00    +0.000 S 
ATOM      5  C   UNL     1       4.370   5.412  18.171  0.00  0.00    +0.000 C 
ATOM      6  C   UNL     1       3.038   5.501  18.272  0.00  0.00    +0.000 C 
ATOM      7  C   UNL     1       5.162   6.513  17.574  0.00  0.00    +0.000 C 
ATOM      8  O   UNL     1       4.647   7.463  17.003  0.00  0.00    +0.000 OA
ENDROOT
BRANCH   6   9
ATOM      9  C   UNL     1       2.177   4.474  18.849  0.00  0.00    +0.000 A 
ATOM     10  C   UNL     1       1.685   3.429  18.069  0.00  0.00    +0.000 A 
ATOM     11  C   UNL     1       0.853   2.478  18.652  0.00  0.00    +0.000 A 
ATOM     12  C   UNL     1       0.544   2.607  19.997  0.00  0.00    +0.000 A 
ATOM     13  N   UNL     1       1.009   3.603  20.784  0.00  0.00    +0.000 NA
ATOM     14  C   UNL     1       1.813   4.516  20.191  0.00  0.00    +0.000 A 
ENDBRANCH   6   9
BRANCH   1  15
ATOM     15  C   UNL     1       7.534   7.171  17.218  0.00  0.00    +0.000 C 
BRANCH  15  16
ATOM     16  C   UNL     1       8.192   8.082  18.267  0.00  0.00    +0.000 C 
BRANCH  16  19
ATOM     17  O   UNL     1       9.492  10.147  19.683  0.00  0.00    +0.000 OA
ATOM     18  C   UNL     1       9.004  10.401  18.585  0.00  0.00    +0.000 C 
ATOM     19  N   UNL     1       8.412   9.437  17.808  0.00  0.00    +0.000 N 
ATOM     20  H   UNL     1       7.905   9.751  16.985  0.00  0.00    +0.000 HD
BRANCH  18  21
ATOM     21  C   UNL     1       9.049  11.808  18.005  0.00  0.00    +0.000 C 
ATOM     22 CL   UNL     1      10.685  12.290  17.491  0.00  0.00    +0.000 Cl
ENDBRANCH  18  21
ENDBRANCH  16  19
ENDBRANCH  15  16
ENDBRANCH   1  15
TORSDOF 5
ENDMDL
MODEL 4
REMARK VINA RESULT:      -6.8      4.467      5.860
REMARK  Name = 
REMARK  5 active torsions:
REMARK  status: ('A' for Active; 'I' for Inactive)
REMARK    1  A    between atoms: C_2  and  C_3
REMARK    2  A    between atoms: N_5  and  C_6
REMARK    3  A    between atoms: C_6  and  C_7
REMARK    4  A    between atoms: C_7  and  N_8
REMARK    5  A    between atoms: C_13  and  C_14
REMARK                            x       y       z     vdW  Elec       q    Type
REMARK                         _______ _______ _______ _____ _____    ______ ____
ROOT
ATOM      1  N   UNL     1       6.475   4.811  16.640  0.00  0.00    +0.000 N 
ATOM      2  C   UNL     1       6.624   5.597  17.755  0.00  0.00    +0.000 C 
ATOM      3  O   UNL     1       7.469   6.459  17.948  0.00  0.00    +0.000 OA
ATOM      4  S   UNL     1       5.430   5.164  18.969  0.00  0.00    +0.000 S 
ATOM      5  C   UNL     1       4.826   3.873  18.018  0.00  0.00    +0.000 C 
ATOM      6  C   UNL     1       3.801   3.050  18.274  0.00  0.00    +0.000 C 
ATOM      7  C   UNL     1       5.603   3.754  16.762  0.00  0.00    +0.000 C 
ATOM      8  O   UNL     1       5.466   2.819  15.987  0.00  0.00    +0.000 OA
ENDROOT
BRANCH   6   9
ATOM      9  C   UNL     1       2.977   3.095  19.476  0.00  0.00    +0.000 A 
ATOM     10  C   UNL     1       1.726   3.710  19.465  0.00  0.00    +0.000 A 
ATOM     11  C   UNL     1       0.976   3.747  20.637  0.00  0.00    +0.000 A 
ATOM     12  C   UNL     1       1.506   3.168  21.779  0.00  0.00    +0.000 A 
ATOM     13  N   UNL     1       2.712   2.558  21.824  0.00  0.00    +0.000 NA
ATOM     14  C   UNL     1       3.422   2.539  20.671  0.00  0.00    +0.000 A 
ENDBRANCH   6   9
BRANCH   1  15
ATOM     15  C   UNL     1       7.405   4.938  15.523  0.00  0.00    +0.000 C 
BRANCH  15  16
ATOM     16  C   UNL     1       6.746   5.253  14.171  0.00  0.00    +0.000 C 
BRANCH  16  19
ATOM     17  O   UNL     1       7.377   4.115  11.667  0.00  0.00    +0.000 OA
ATOM     18  C   UNL     1       6.432   3.655  12.303  0.00  0.00    +0.000 C 
ATOM     19  N   UNL     1       6.103   4.112  13.554  0.00  0.00    +0.000 N 
ATOM     20  H   UNL     1       5.226   3.785  13.951  0.00  0.00    +0.000 HD
BRANCH  18  21
ATOM     21  C   UNL     1       5.580   2.525  11.745  0.00  0.00    +0.000 C 
ATOM     22 CL   UNL     1       4.003   3.085  11.133  0.00  0.00    +0.000 Cl
ENDBRANCH  18  21
ENDBRANCH  16  19
ENDBRANCH  15  16
ENDBRANCH   1  15
TORSDOF 5
ENDMDL
MODEL 5
REMARK VINA RESULT:      -6.7      4.498      6.071
REMARK  Name = 
REMARK  5 active torsions:
REMARK  status: ('A' for Active; 'I' for Inactive)
REMARK    1  A    between atoms: C_2  and  C_3
REMARK    2  A    between atoms: N_5  and  C_6
REMARK    3  A    between atoms: C_6  and  C_7
REMARK    4  A    between atoms: C_7  and  N_8
REMARK    5  A    between atoms: C_13  and  C_14
REMARK                            x       y       z     vdW  Elec       q    Type
REMARK                         _______ _______ _______ _____ _____    ______ ____
ROOT
ATOM      1  N   UNL     1       6.275   4.813  16.269  0.00  0.00    +0.000 N 
ATOM      2  C   UNL     1       6.435   5.660  17.336  0.00  0.00    +0.000 C 
ATOM      3  O   UNL     1       7.242   6.572  17.446  0.00  0.00    +0.000 OA
ATOM      4  S   UNL     1       5.323   5.230  18.626  0.00  0.00    +0.000 S 
ATOM      5  C   UNL     1       4.742   3.865  17.769  0.00  0.00    +0.000 C 
ATOM      6  C   UNL     1       3.775   3.006  18.113  0.00  0.00    +0.000 C 
ATOM      7  C   UNL     1       5.465   3.722  16.484  0.00  0.00    +0.000 C 
ATOM      8  O   UNL     1       5.341   2.743  15.762  0.00  0.00    +0.000 OA
ENDROOT
BRANCH   6   9
ATOM      9  C   UNL     1       3.006   3.070  19.351  0.00  0.00    +0.000 A 
ATOM     10  C   UNL     1       1.755   3.682  19.387  0.00  0.00    +0.000 A 
ATOM     11  C   UNL     1       1.060   3.739  20.592  0.00  0.00    +0.000 A 
ATOM     12  C   UNL     1       1.643   3.179  21.718  0.00  0.00    +0.000 A 
ATOM     13  N   UNL     1       2.851   2.572  21.717  0.00  0.00    +0.000 NA
ATOM     14  C   UNL     1       3.507   2.535  20.534  0.00  0.00    +0.000 A 
ENDBRANCH   6   9
BRANCH   1  15
ATOM     15  C   UNL     1       7.143   4.930  15.103  0.00  0.00    +0.000 C 
BRANCH  15  16
ATOM     16  C   UNL     1       6.412   4.911  13.751  0.00  0.00    +0.000 C 
BRANCH  16  19
ATOM     17  O   UNL     1       4.562   3.737  11.973  0.00  0.00    +0.000 OA
ATOM     18  C   UNL     1       5.613   3.145  12.206  0.00  0.00    +0.000 C 
ATOM     19  N   UNL     1       6.590   3.681  13.008  0.00  0.00    +0.000 N 
ATOM     20  H   UNL     1       7.361   3.072  13.269  0.00  0.00    +0.000 HD
BRANCH  18  21
ATOM     21  C   UNL     1       5.908   1.784  11.592  0.00  0.00    +0.000 C 
ATOM     22 CL   UNL     1       7.547   1.678  10.903  0.00  0.00    +0.000 Cl
ENDBRANCH  18  21
ENDBRANCH  16  19
ENDBRANCH  15  16
ENDBRANCH   1  15
TORSDOF 5
ENDMDL
MODEL 6
REMARK VINA RESULT:      -6.6      1.341      2.063
REMARK  Name = 
REMARK  5 active torsions:
REMARK  status: ('A' for Active; 'I' for Inactive)
REMARK    1  A    between atoms: C_2  and  C_3
REMARK    2  A    between atoms: N_5  and  C_6
REMARK    3  A    between atoms: C_6  and  C_7
REMARK    4  A    between atoms: C_7  and  N_8
REMARK    5  A    between atoms: C_13  and  C_14
REMARK                            x       y       z     vdW  Elec       q    Type
REMARK                         _______ _______ _______ _____ _____    ______ ____
ROOT
ATOM      1  N   UNL     1       6.615   6.292  17.725  0.00  0.00    +0.000 N 
ATOM      2  C   UNL     1       5.598   6.499  16.828  0.00  0.00    +0.000 C 
ATOM      3  O   UNL     1       5.614   7.221  15.842  0.00  0.00    +0.000 OA
ATOM      4  S   UNL     1       4.168   5.601  17.312  0.00  0.00    +0.000 S 
ATOM      5  C   UNL     1       4.911   5.054  18.755  0.00  0.00    +0.000 C 
ATOM      6  C   UNL     1       4.427   4.224  19.688  0.00  0.00    +0.000 C 
ATOM      7  C   UNL     1       6.273   5.624  18.878  0.00  0.00    +0.000 C 
ATOM      8  O   UNL     1       6.949   5.508  19.890  0.00  0.00    +0.000 OA
ENDROOT
BRANCH   6   9
ATOM      9  C   UNL     1       3.104   3.611  19.649  0.00  0.00    +0.000 A 
ATOM     10  C   UNL     1       2.032   4.174  20.340  0.00  0.00    +0.000 A 
ATOM     11  C   UNL     1       0.789   3.549  20.293  0.00  0.00    +0.000 A 
ATOM     12  C   UNL     1       0.663   2.383  19.554  0.00  0.00    +0.000 A 
ATOM     13  N   UNL     1       1.679   1.814  18.867  0.00  0.00    +0.000 NA
ATOM     14  C   UNL     1       2.878   2.439  18.934  0.00  0.00    +0.000 A 
ENDBRANCH   6   9
BRANCH   1  15
ATOM     15  C   UNL     1       7.884   6.995  17.571  0.00  0.00    +0.000 C 
BRANCH  15  16
ATOM     16  C   UNL     1       7.784   8.527  17.648  0.00  0.00    +0.000 C 
BRANCH  16  19
ATOM     17  O   UNL     1       8.539  11.241  17.808  0.00  0.00    +0.000 OA
ATOM     18  C   UNL     1       9.030  10.444  18.604  0.00  0.00    +0.000 C 
ATOM     19  N   UNL     1       8.664   9.121  18.631  0.00  0.00    +0.000 N 
ATOM     20  H   UNL     1       9.218   8.500  19.216  0.00  0.00    +0.000 HD
BRANCH  18  21
ATOM     21  C   UNL     1      10.060  10.886  19.633  0.00  0.00    +0.000 C 
ATOM     22 CL   UNL     1       9.320  11.467  21.146  0.00  0.00    +0.000 Cl
ENDBRANCH  18  21
ENDBRANCH  16  19
ENDBRANCH  15  16
ENDBRANCH   1  15
TORSDOF 5
ENDMDL
MODEL 7
REMARK VINA RESULT:      -6.6      4.963      6.625
REMARK  Name = 
REMARK  5 active torsions:
REMARK  status: ('A' for Active; 'I' for Inactive)
REMARK    1  A    between atoms: C_2  and  C_3
REMARK    2  A    between atoms: N_5  and  C_6
REMARK    3  A    between atoms: C_6  and  C_7
REMARK    4  A    between atoms: C_7  and  N_8
REMARK    5  A    between atoms: C_13  and  C_14
REMARK                            x       y       z     vdW  Elec       q    Type
REMARK                         _______ _______ _______ _____ _____    ______ ____
ROOT
ATOM      1  N   UNL     1       5.952   5.130  16.228  0.00  0.00    +0.000 N 
ATOM      2  C   UNL     1       6.538   6.284  16.683  0.00  0.00    +0.000 C 
ATOM      3  O   UNL     1       7.696   6.642  16.524  0.00  0.00    +0.000 OA
ATOM      4  S   UNL     1       5.387   7.221  17.622  0.00  0.00    +0.000 S 
ATOM      5  C   UNL     1       4.181   6.011  17.486  0.00  0.00    +0.000 C 
ATOM      6  C   UNL     1       2.920   6.028  17.935  0.00  0.00    +0.000 C 
ATOM      7  C   UNL     1       4.708   4.844  16.741  0.00  0.00    +0.000 C 
ATOM      8  O   UNL     1       4.094   3.792  16.642  0.00  0.00    +0.000 OA
ENDROOT
BRANCH   6   9
ATOM      9  C   UNL     1       2.313   7.131  18.671  0.00  0.00    +0.000 A 
ATOM     10  C   UNL     1       2.091   7.042  20.044  0.00  0.00    +0.000 A 
ATOM     11  C   UNL     1       1.493   8.110  20.707  0.00  0.00    +0.000 A 
ATOM     12  C   UNL     1       1.140   9.230  19.972  0.00  0.00    +0.000 A 
ATOM     13  N   UNL     1       1.347   9.353  18.642  0.00  0.00    +0.000 NA
ATOM     14  C   UNL     1       1.926   8.299  18.020  0.00  0.00    +0.000 A 
ENDBRANCH   6   9
BRANCH   1  15
ATOM     15  C   UNL     1       6.739   4.152  15.483  0.00  0.00    +0.000 C 
BRANCH  15  16
ATOM     16  C   UNL     1       6.802   4.399  13.968  0.00  0.00    +0.000 C 
BRANCH  16  19
ATOM     17  O   UNL     1       7.457   2.941  11.642  0.00  0.00    +0.000 OA
ATOM     18  C   UNL     1       6.296   2.922  12.043  0.00  0.00    +0.000 C 
ATOM     19  N   UNL     1       5.913   3.553  13.201  0.00  0.00    +0.000 N 
ATOM     20  H   UNL     1       4.916   3.615  13.386  0.00  0.00    +0.000 HD
BRANCH  18  21
ATOM     21  C   UNL     1       5.210   2.170  11.287  0.00  0.00    +0.000 C 
ATOM     22 CL   UNL     1       3.744   3.149  11.030  0.00  0.00    +0.000 Cl
ENDBRANCH  18  21
ENDBRANCH  16  19
ENDBRANCH  15  16
ENDBRANCH   1  15
TORSDOF 5
ENDMDL
MODEL 8
REMARK VINA RESULT:      -6.6      1.334      2.085
REMARK  Name = 
REMARK  5 active torsions:
REMARK  status: ('A' for Active; 'I' for Inactive)
REMARK    1  A    between atoms: C_2  and  C_3
REMARK    2  A    between atoms: N_5  and  C_6
REMARK    3  A    between atoms: C_6  and  C_7
REMARK    4  A    between atoms: C_7  and  N_8
REMARK    5  A    between atoms: C_13  and  C_14
REMARK                            x       y       z     vdW  Elec       q    Type
REMARK                         _______ _______ _______ _____ _____    ______ ____
ROOT
ATOM      1  N   UNL     1       6.619   6.257  17.666  0.00  0.00    +0.000 N 
ATOM      2  C   UNL     1       5.575   6.507  16.811  0.00  0.00    +0.000 C 
ATOM      3  O   UNL     1       5.571   7.253  15.842  0.00  0.00    +0.000 OA
ATOM      4  S   UNL     1       4.144   5.628  17.326  0.00  0.00    +0.000 S 
ATOM      5  C   UNL     1       4.926   5.032  18.728  0.00  0.00    +0.000 C 
ATOM      6  C   UNL     1       4.457   4.190  19.658  0.00  0.00    +0.000 C 
ATOM      7  C   UNL     1       6.304   5.570  18.815  0.00  0.00    +0.000 C 
ATOM      8  O   UNL     1       7.013   5.415  19.799  0.00  0.00    +0.000 OA
ENDROOT
BRANCH   6   9
ATOM      9  C   UNL     1       3.121   3.606  19.653  0.00  0.00    +0.000 A 
ATOM     10  C   UNL     1       2.075   4.201  20.357  0.00  0.00    +0.000 A 
ATOM     11  C   UNL     1       0.818   3.603  20.342  0.00  0.00    +0.000 A 
ATOM     12  C   UNL     1       0.652   2.431  19.622  0.00  0.00    +0.000 A 
ATOM     13  N   UNL     1       1.642   1.831  18.923  0.00  0.00    +0.000 NA
ATOM     14  C   UNL     1       2.855   2.431  18.957  0.00  0.00    +0.000 A 
ENDBRANCH   6   9
BRANCH   1  15
ATOM     15  C   UNL     1       7.897   6.937  17.482  0.00  0.00    +0.000 C 
BRANCH  15  16
ATOM     16  C   UNL     1       8.206   8.020  18.528  0.00  0.00    +0.000 C 
BRANCH  16  19
ATOM     17  O   UNL     1       9.409  10.215  19.830  0.00  0.00    +0.000 OA
ATOM     18  C   UNL     1       9.001  10.362  18.680  0.00  0.00    +0.000 C 
ATOM     19  N   UNL     1       8.463   9.326  17.959  0.00  0.00    +0.000 N 
ATOM     20  H   UNL     1       8.017   9.559  17.075  0.00  0.00    +0.000 HD
BRANCH  18  21
ATOM     21  C   UNL     1       9.093  11.707  17.973  0.00  0.00    +0.000 C 
ATOM     22 CL   UNL     1      10.749  12.097  17.445  0.00  0.00    +0.000 Cl
ENDBRANCH  18  21
ENDBRANCH  16  19
ENDBRANCH  15  16
ENDBRANCH   1  15
TORSDOF 5
ENDMDL
MODEL 9
REMARK VINA RESULT:      -6.5      4.453      5.845
REMARK  Name = 
REMARK  5 active torsions:
REMARK  status: ('A' for Active; 'I' for Inactive)
REMARK    1  A    between atoms: C_2  and  C_3
REMARK    2  A    between atoms: N_5  and  C_6
REMARK    3  A    between atoms: C_6  and  C_7
REMARK    4  A    between atoms: C_7  and  N_8
REMARK    5  A    between atoms: C_13  and  C_14
REMARK                            x       y       z     vdW  Elec       q    Type
REMARK                         _______ _______ _______ _____ _____    ______ ____
ROOT
ATOM      1  N   UNL     1       6.487   4.815  16.612  0.00  0.00    +0.000 N 
ATOM      2  C   UNL     1       6.604   5.608  17.726  0.00  0.00    +0.000 C 
ATOM      3  O   UNL     1       7.446   6.469  17.939  0.00  0.00    +0.000 OA
ATOM      4  S   UNL     1       5.372   5.187  18.905  0.00  0.00    +0.000 S 
ATOM      5  C   UNL     1       4.793   3.892  17.944  0.00  0.00    +0.000 C 
ATOM      6  C   UNL     1       3.758   3.074  18.173  0.00  0.00    +0.000 C 
ATOM      7  C   UNL     1       5.608   3.762  16.714  0.00  0.00    +0.000 C 
ATOM      8  O   UNL     1       5.492   2.822  15.941  0.00  0.00    +0.000 OA
ENDROOT
BRANCH   6   9
ATOM      9  C   UNL     1       2.897   3.130  19.349  0.00  0.00    +0.000 A 
ATOM     10  C   UNL     1       3.291   2.552  20.555  0.00  0.00    +0.000 A 
ATOM     11  C   UNL     1       2.435   2.612  21.650  0.00  0.00    +0.000 A 
ATOM     12  C   UNL     1       1.213   3.249  21.499  0.00  0.00    +0.000 A 
ATOM     13  N   UNL     1       0.802   3.825  20.348  0.00  0.00    +0.000 NA
ATOM     14  C   UNL     1       1.652   3.749  19.297  0.00  0.00    +0.000 A 
ENDBRANCH   6   9
BRANCH   1  15
ATOM     15  C   UNL     1       7.451   4.932  15.523  0.00  0.00    +0.000 C 
BRANCH  15  16
ATOM     16  C   UNL     1       6.835   5.230  14.147  0.00  0.00    +0.000 C 
BRANCH  16  19
ATOM     17  O   UNL     1       7.379   4.138  11.603  0.00  0.00    +0.000 OA
ATOM     18  C   UNL     1       6.466   3.656  12.270  0.00  0.00    +0.000 C 
ATOM     19  N   UNL     1       6.182   4.090  13.540  0.00  0.00    +0.000 N 
ATOM     20  H   UNL     1       5.326   3.746  13.967  0.00  0.00    +0.000 HD
BRANCH  18  21
ATOM     21  C   UNL     1       5.606   2.522  11.730  0.00  0.00    +0.000 C 
ATOM     22 CL   UNL     1       3.993   3.068  11.207  0.00  0.00    +0.000 Cl
ENDBRANCH  18  21
ENDBRANCH  16  19
ENDBRANCH  15  16
ENDBRANCH   1  15
TORSDOF 5
ENDMDL
