MODEL 1
REMARK VINA RESULT:      -6.9      0.000      0.000
REMARK  Name = 
REMARK  11 active torsions:
REMARK  status: ('A' for Active; 'I' for Inactive)
REMARK    1  A    between atoms: C_1  and  C_2
REMARK    2  A    between atoms: C_2  and  C_3
REMARK    3  A    between atoms: C_3  and  C_4
REMARK    4  A    between atoms: C_4  and  C_18
REMARK    5  A    between atoms: C_5  and  C_6
REMARK    6  A    between atoms: C_8  and  O_9
REMARK    7  A    between atoms: O_9  and  C_10
REMARK    8  A    between atoms: C_11  and  O_12
REMARK    9  A    between atoms: O_12  and  C_13
REMARK   10  A    between atoms: C_14  and  O_15
REMARK   11  A    between atoms: O_15  and  C_16
REMARK                            x       y       z     vdW  Elec       q    Type
REMARK                         _______ _______ _______ _____ _____    ______ ____
ROOT
ATOM      1  C   UNL     1       0.538   9.546  19.958  0.00  0.00    +0.000 C 
ATOM      2  C   UNL     1       1.470   9.211  19.047  0.00  0.00    +0.000 C 
ENDROOT
BRANCH   1   3
ATOM      3  C   UNL     1      -0.357  10.734  19.628  0.00  0.00    +0.000 C 
ATOM      4  O   UNL     1      -1.558  10.521  19.433  0.00  0.00    +0.000 OA
ATOM      5  N   UNL     1       0.178  12.021  19.517  0.00  0.00    +0.000 N 
ATOM      6  C   UNL     1      -0.711  12.992  18.886  0.00  0.00    +0.000 C 
ATOM      7  C   UNL     1      -0.053  14.268  18.377  0.00  0.00    +0.000 C 
ATOM      8  C   UNL     1       1.190  14.630  19.110  0.00  0.00    +0.000 C 
ATOM      9  C   UNL     1       1.765  13.833  20.020  0.00  0.00    +0.000 C 
ATOM     10 BR   UNL     1       3.376  14.323  20.839  0.00  0.00    +0.000 Br
ATOM     11  C   UNL     1       1.174  12.495  20.375  0.00  0.00    +0.000 C 
ATOM     12  O   UNL     1       1.612  11.871  21.338  0.00  0.00    +0.000 OA
ENDBRANCH   1   3
BRANCH   2  13
ATOM     13  C   UNL     1       2.312   8.016  18.952  0.00  0.00    +0.000 A 
ATOM     14  C   UNL     1       2.106   6.963  19.837  0.00  0.00    +0.000 A 
ATOM     15  C   UNL     1       2.730   5.730  19.648  0.00  0.00    +0.000 A 
ATOM     16  C   UNL     1       3.549   5.540  18.517  0.00  0.00    +0.000 A 
ATOM     17  C   UNL     1       3.783   6.607  17.620  0.00  0.00    +0.000 A 
ATOM     18  C   UNL     1       3.169   7.843  17.859  0.00  0.00    +0.000 A 
BRANCH  15  19
ATOM     19  O   UNL     1       2.550   4.667  20.500  0.00  0.00    +0.000 OA
ATOM     20  C   UNL     1       1.218   4.170  20.616  0.00  0.00    +0.000 C 
ENDBRANCH  15  19
BRANCH  16  21
ATOM     21  O   UNL     1       4.123   4.293  18.388  0.00  0.00    +0.000 OA
ATOM     22  C   UNL     1       3.440   3.413  17.499  0.00  0.00    +0.000 C 
ENDBRANCH  16  21
BRANCH  17  23
ATOM     23  O   UNL     1       4.600   6.365  16.545  0.00  0.00    +0.000 OA
ATOM     24  C   UNL     1       5.991   6.623  16.680  0.00  0.00    +0.000 C 
ENDBRANCH  17  23
ENDBRANCH   2  13
BRANCH   1  25
ATOM     25  C   UNL     1       0.087   8.804  21.209  0.00  0.00    +0.000 C 
BRANCH  25  27
ATOM     26  C   UNL     1      -0.830  10.107  23.217  0.00  0.00    +0.000 C 
ATOM     27  C   UNL     1       0.350   9.366  22.615  0.00  0.00    +0.000 C 
ENDBRANCH  25  27
ENDBRANCH   1  25
TORSDOF 7
ENDMDL
MODEL 2
REMARK VINA RESULT:      -6.8      2.207      3.658
REMARK  Name = 
REMARK  11 active torsions:
REMARK  status: ('A' for Active; 'I' for Inactive)
REMARK    1  A    between atoms: C_1  and  C_2
REMARK    2  A    between atoms: C_2  and  C_3
REMARK    3  A    between atoms: C_3  and  C_4
REMARK    4  A    between atoms: C_4  and  C_18
REMARK    5  A    between atoms: C_5  and  C_6
REMARK    6  A    between atoms: C_8  and  O_9
REMARK    7  A    between atoms: O_9  and  C_10
REMARK    8  A    between atoms: C_11  and  O_12
REMARK    9  A    between atoms: O_12  and  C_13
REMARK   10  A    between atoms: C_14  and  O_15
REMARK   11  A    between atoms: O_15  and  C_16
REMARK                            x       y       z     vdW  Elec       q    Type
REMARK                         _______ _______ _______ _____ _____    ______ ____
ROOT
ATOM      1  C   UNL     1       1.067   9.021  20.434  0.00  0.00    +0.000 C 
ATOM      2  C   UNL     1       1.989   8.565  19.567  0.00  0.00    +0.000 C 
ENDROOT
BRANCH   1   3
ATOM      3  C   UNL     1       0.731  10.506  20.369  0.00  0.00    +0.000 C 
ATOM      4  O   UNL     1       1.461  11.296  20.977  0.00  0.00    +0.000 OA
ATOM      5  N   UNL     1      -0.392  10.953  19.667  0.00  0.00    +0.000 N 
ATOM      6  C   UNL     1      -0.775  12.332  19.954  0.00  0.00    +0.000 C 
ATOM      7  C   UNL     1      -2.187  12.732  19.548  0.00  0.00    +0.000 C 
ATOM      8  C   UNL     1      -2.729  11.938  18.413  0.00  0.00    +0.000 C 
ATOM      9  C   UNL     1      -2.104  10.870  17.900  0.00  0.00    +0.000 C 
ATOM     10 BR   UNL     1      -2.891   9.870  16.526  0.00  0.00    +0.000 Br
ATOM     11  C   UNL     1      -0.781  10.399  18.444  0.00  0.00    +0.000 C 
ATOM     12  O   UNL     1      -0.145   9.539  17.840  0.00  0.00    +0.000 OA
ENDBRANCH   1   3
BRANCH   2  13
ATOM     13  C   UNL     1       2.362   7.191  19.219  0.00  0.00    +0.000 A 
ATOM     14  C   UNL     1       3.102   6.954  18.066  0.00  0.00    +0.000 A 
ATOM     15  C   UNL     1       3.659   5.702  17.812  0.00  0.00    +0.000 A 
ATOM     16  C   UNL     1       3.504   4.674  18.763  0.00  0.00    +0.000 A 
ATOM     17  C   UNL     1       2.739   4.894  19.930  0.00  0.00    +0.000 A 
ATOM     18  C   UNL     1       2.162   6.154  20.138  0.00  0.00    +0.000 A 
BRANCH  15  19
ATOM     19  O   UNL     1       4.397   5.431  16.684  0.00  0.00    +0.000 OA
ATOM     20  C   UNL     1       5.352   6.419  16.303  0.00  0.00    +0.000 C 
ENDBRANCH  15  19
BRANCH  16  21
ATOM     21  O   UNL     1       4.093   3.467  18.451  0.00  0.00    +0.000 OA
ATOM     22  C   UNL     1       3.222   2.519  17.839  0.00  0.00    +0.000 C 
ENDBRANCH  16  21
BRANCH  17  23
ATOM     23  O   UNL     1       2.612   3.852  20.812  0.00  0.00    +0.000 OA
ATOM     24  C   UNL     1       1.326   3.275  21.000  0.00  0.00    +0.000 C 
ENDBRANCH  17  23
ENDBRANCH   2  13
BRANCH   1  25
ATOM     25  C   UNL     1       0.139   8.252  21.364  0.00  0.00    +0.000 C 
BRANCH  25  27
ATOM     26  C   UNL     1       0.099   9.447  23.632  0.00  0.00    +0.000 C 
ATOM     27  C   UNL     1      -0.700   8.968  22.433  0.00  0.00    +0.000 C 
ENDBRANCH  25  27
ENDBRANCH   1  25
TORSDOF 7
ENDMDL
MODEL 3
REMARK VINA RESULT:      -6.8      2.807      7.203
REMARK  Name = 
REMARK  11 active torsions:
REMARK  status: ('A' for Active; 'I' for Inactive)
REMARK    1  A    between atoms: C_1  and  C_2
REMARK    2  A    between atoms: C_2  and  C_3
REMARK    3  A    between atoms: C_3  and  C_4
REMARK    4  A    between atoms: C_4  and  C_18
REMARK    5  A    between atoms: C_5  and  C_6
REMARK    6  A    between atoms: C_8  and  O_9
REMARK    7  A    between atoms: O_9  and  C_10
REMARK    8  A    between atoms: C_11  and  O_12
REMARK    9  A    between atoms: O_12  and  C_13
REMARK   10  A    between atoms: C_14  and  O_15
REMARK   11  A    between atoms: O_15  and  C_16
REMARK                            x       y       z     vdW  Elec       q    Type
REMARK                         _______ _______ _______ _____ _____    ______ ____
ROOT
ATOM      1  C   UNL     1       2.513   6.231  18.841  0.00  0.00    +0.000 C 
ATOM      2  C   UNL     1       1.906   7.346  18.395  0.00  0.00    +0.000 C 
ENDROOT
BRANCH   1   3
ATOM      3  C   UNL     1       3.096   5.294  17.792  0.00  0.00    +0.000 C 
ATOM      4  O   UNL     1       2.340   4.478  17.254  0.00  0.00    +0.000 OA
ATOM      5  N   UNL     1       4.457   5.337  17.474  0.00  0.00    +0.000 N 
ATOM      6  C   UNL     1       4.936   4.188  16.711  0.00  0.00    +0.000 C 
ATOM      7  C   UNL     1       6.445   3.982  16.692  0.00  0.00    +0.000 C 
ATOM      8  C   UNL     1       7.222   5.236  16.884  0.00  0.00    +0.000 C 
ATOM      9  C   UNL     1       6.656   6.408  17.201  0.00  0.00    +0.000 C 
ATOM     10 BR   UNL     1       7.710   7.925  17.508  0.00  0.00    +0.000 Br
ATOM     11  C   UNL     1       5.167   6.537  17.380  0.00  0.00    +0.000 C 
ATOM     12  O   UNL     1       4.660   7.651  17.486  0.00  0.00    +0.000 OA
ENDBRANCH   1   3
BRANCH   2  13
ATOM     13  C   UNL     1       1.458   8.535  19.125  0.00  0.00    +0.000 A 
ATOM     14  C   UNL     1       1.368   8.491  20.513  0.00  0.00    +0.000 A 
ATOM     15  C   UNL     1       1.158   9.650  21.258  0.00  0.00    +0.000 A 
ATOM     16  C   UNL     1       1.078  10.890  20.594  0.00  0.00    +0.000 A 
ATOM     17  C   UNL     1       1.150  10.948  19.184  0.00  0.00    +0.000 A 
ATOM     18  C   UNL     1       1.325   9.760  18.462  0.00  0.00    +0.000 A 
BRANCH  15  19
ATOM     19  O   UNL     1       1.064   9.646  22.630  0.00  0.00    +0.000 OA
ATOM     20  C   UNL     1      -0.221   9.352  23.173  0.00  0.00    +0.000 C 
ENDBRANCH  15  19
BRANCH  16  21
ATOM     21  O   UNL     1       0.884  11.994  21.396  0.00  0.00    +0.000 OA
ATOM     22  C   UNL     1      -0.454  12.485  21.419  0.00  0.00    +0.000 C 
ENDBRANCH  16  21
BRANCH  17  23
ATOM     23  O   UNL     1       1.053  12.182  18.594  0.00  0.00    +0.000 OA
ATOM     24  C   UNL     1       2.251  12.888  18.299  0.00  0.00    +0.000 C 
ENDBRANCH  17  23
ENDBRANCH   2  13
BRANCH   1  25
ATOM     25  C   UNL     1       2.893   5.829  20.260  0.00  0.00    +0.000 C 
BRANCH  25  27
ATOM     26  C   UNL     1       0.913   4.205  20.366  0.00  0.00    +0.000 C 
ATOM     27  C   UNL     1       2.252   4.616  20.951  0.00  0.00    +0.000 C 
ENDBRANCH  25  27
ENDBRANCH   1  25
TORSDOF 7
ENDMDL
MODEL 4
REMARK VINA RESULT:      -6.6      0.600      2.465
REMARK  Name = 
REMARK  11 active torsions:
REMARK  status: ('A' for Active; 'I' for Inactive)
REMARK    1  A    between atoms: C_1  and  C_2
REMARK    2  A    between atoms: C_2  and  C_3
REMARK    3  A    between atoms: C_3  and  C_4
REMARK    4  A    between atoms: C_4  and  C_18
REMARK    5  A    between atoms: C_5  and  C_6
REMARK    6  A    between atoms: C_8  and  O_9
REMARK    7  A    between atoms: O_9  and  C_10
REMARK    8  A    between atoms: C_11  and  O_12
REMARK    9  A    between atoms: O_12  and  C_13
REMARK   10  A    between atoms: C_14  and  O_15
REMARK   11  A    between atoms: O_15  and  C_16
REMARK                            x       y       z     vdW  Elec       q    Type
REMARK                         _______ _______ _______ _____ _____    ______ ____
ROOT
ATOM      1  C   UNL     1       0.889   9.565  19.856  0.00  0.00    +0.000 C 
ATOM      2  C   UNL     1       1.474   8.958  18.807  0.00  0.00    +0.000 C 
ENDROOT
BRANCH   1   3
ATOM      3  C   UNL     1      -0.086  10.694  19.546  0.00  0.00    +0.000 C 
ATOM      4  O   UNL     1      -1.264  10.399  19.314  0.00  0.00    +0.000 OA
ATOM      5  N   UNL     1       0.351  12.021  19.493  0.00  0.00    +0.000 N 
ATOM      6  C   UNL     1      -0.595  12.944  18.875  0.00  0.00    +0.000 C 
ATOM      7  C   UNL     1      -0.025  14.284  18.427  0.00  0.00    +0.000 C 
ATOM      8  C   UNL     1       1.170  14.712  19.202  0.00  0.00    +0.000 C 
ATOM      9  C   UNL     1       1.784  13.928  20.098  0.00  0.00    +0.000 C 
ATOM     10 BR   UNL     1       3.335  14.508  20.972  0.00  0.00    +0.000 Br
ATOM     11  C   UNL     1       1.290  12.536  20.391  0.00  0.00    +0.000 C 
ATOM     12  O   UNL     1       1.753  11.913  21.342  0.00  0.00    +0.000 OA
ENDBRANCH   1   3
BRANCH   2  13
ATOM     13  C   UNL     1       2.259   7.722  18.749  0.00  0.00    +0.000 A 
ATOM     14  C   UNL     1       3.357   7.650  17.897  0.00  0.00    +0.000 A 
ATOM     15  C   UNL     1       4.254   6.585  17.967  0.00  0.00    +0.000 A 
ATOM     16  C   UNL     1       4.065   5.589  18.946  0.00  0.00    +0.000 A 
ATOM     17  C   UNL     1       2.944   5.640  19.805  0.00  0.00    +0.000 A 
ATOM     18  C   UNL     1       2.042   6.704  19.685  0.00  0.00    +0.000 A 
BRANCH  15  19
ATOM     19  O   UNL     1       5.349   6.480  17.143  0.00  0.00    +0.000 OA
ATOM     20  C   UNL     1       5.090   6.517  15.741  0.00  0.00    +0.000 C 
ENDBRANCH  15  19
BRANCH  16  21
ATOM     21  O   UNL     1       4.997   4.574  18.965  0.00  0.00    +0.000 OA
ATOM     22  C   UNL     1       4.610   3.396  18.263  0.00  0.00    +0.000 C 
ENDBRANCH  16  21
BRANCH  17  23
ATOM     23  O   UNL     1       2.807   4.635  20.729  0.00  0.00    +0.000 OA
ATOM     24  C   UNL     1       1.576   3.925  20.780  0.00  0.00    +0.000 C 
ENDBRANCH  17  23
ENDBRANCH   2  13
BRANCH   1  25
ATOM     25  C   UNL     1       0.890   9.182  21.330  0.00  0.00    +0.000 C 
BRANCH  25  27
ATOM     26  C   UNL     1      -0.702  10.047  23.143  0.00  0.00    +0.000 C 
ATOM     27  C   UNL     1      -0.419   8.975  22.107  0.00  0.00    +0.000 C 
ENDBRANCH  25  27
ENDBRANCH   1  25
TORSDOF 7
ENDMDL
MODEL 5
REMARK VINA RESULT:      -6.5      2.751      7.602
REMARK  Name = 
REMARK  11 active torsions:
REMARK  status: ('A' for Active; 'I' for Inactive)
REMARK    1  A    between atoms: C_1  and  C_2
REMARK    2  A    between atoms: C_2  and  C_3
REMARK    3  A    between atoms: C_3  and  C_4
REMARK    4  A    between atoms: C_4  and  C_18
REMARK    5  A    between atoms: C_5  and  C_6
REMARK    6  A    between atoms: C_8  and  O_9
REMARK    7  A    between atoms: O_9  and  C_10
REMARK    8  A    between atoms: C_11  and  O_12
REMARK    9  A    between atoms: O_12  and  C_13
REMARK   10  A    between atoms: C_14  and  O_15
REMARK   11  A    between atoms: O_15  and  C_16
REMARK                            x       y       z     vdW  Elec       q    Type
REMARK                         _______ _______ _______ _____ _____    ______ ____
ROOT
ATOM      1  C   UNL     1       2.485   6.280  18.762  0.00  0.00    +0.000 C 
ATOM      2  C   UNL     1       2.038   7.457  18.288  0.00  0.00    +0.000 C 
ENDROOT
BRANCH   1   3
ATOM      3  C   UNL     1       3.106   5.320  17.756  0.00  0.00    +0.000 C 
ATOM      4  O   UNL     1       2.371   4.487  17.216  0.00  0.00    +0.000 OA
ATOM      5  N   UNL     1       4.476   5.364  17.479  0.00  0.00    +0.000 N 
ATOM      6  C   UNL     1       4.985   4.199  16.761  0.00  0.00    +0.000 C 
ATOM      7  C   UNL     1       6.494   4.001  16.794  0.00  0.00    +0.000 C 
ATOM      8  C   UNL     1       7.258   5.264  16.977  0.00  0.00    +0.000 C 
ATOM      9  C   UNL     1       6.677   6.441  17.247  0.00  0.00    +0.000 C 
ATOM     10 BR   UNL     1       7.712   7.972  17.548  0.00  0.00    +0.000 Br
ATOM     11  C   UNL     1       5.182   6.566  17.377  0.00  0.00    +0.000 C 
ATOM     12  O   UNL     1       4.666   7.679  17.438  0.00  0.00    +0.000 OA
ENDBRANCH   1   3
BRANCH   2  13
ATOM     13  C   UNL     1       1.611   8.663  19.003  0.00  0.00    +0.000 A 
ATOM     14  C   UNL     1       1.728   9.903  18.382  0.00  0.00    +0.000 A 
ATOM     15  C   UNL     1       1.140  11.042  18.932  0.00  0.00    +0.000 A 
ATOM     16  C   UNL     1       0.381  10.923  20.113  0.00  0.00    +0.000 A 
ATOM     17  C   UNL     1       0.270   9.674  20.764  0.00  0.00    +0.000 A 
ATOM     18  C   UNL     1       0.903   8.556  20.205  0.00  0.00    +0.000 A 
BRANCH  15  19
ATOM     19  O   UNL     1       1.233  12.282  18.347  0.00  0.00    +0.000 OA
ATOM     20  C   UNL     1       2.490  12.944  18.468  0.00  0.00    +0.000 C 
ENDBRANCH  15  19
BRANCH  16  21
ATOM     21  O   UNL     1      -0.181  12.087  20.591  0.00  0.00    +0.000 OA
ATOM     22  C   UNL     1      -1.542  12.288  20.218  0.00  0.00    +0.000 C 
ENDBRANCH  16  21
BRANCH  17  23
ATOM     23  O   UNL     1      -0.471   9.623  21.918  0.00  0.00    +0.000 OA
ATOM     24  C   UNL     1       0.213   9.490  23.157  0.00  0.00    +0.000 C 
ENDBRANCH  17  23
ENDBRANCH   2  13
BRANCH   1  25
ATOM     25  C   UNL     1       2.655   5.810  20.201  0.00  0.00    +0.000 C 
BRANCH  25  27
ATOM     26  C   UNL     1       2.254   3.458  21.138  0.00  0.00    +0.000 C 
ATOM     27  C   UNL     1       1.666   4.826  20.846  0.00  0.00    +0.000 C 
ENDBRANCH  25  27
ENDBRANCH   1  25
TORSDOF 7
ENDMDL
MODEL 6
REMARK VINA RESULT:      -6.4      2.877      7.597
REMARK  Name = 
REMARK  11 active torsions:
REMARK  status: ('A' for Active; 'I' for Inactive)
REMARK    1  A    between atoms: C_1  and  C_2
REMARK    2  A    between atoms: C_2  and  C_3
REMARK    3  A    between atoms: C_3  and  C_4
REMARK    4  A    between atoms: C_4  and  C_18
REMARK    5  A    between atoms: C_5  and  C_6
REMARK    6  A    between atoms: C_8  and  O_9
REMARK    7  A    between atoms: O_9  and  C_10
REMARK    8  A    between atoms: C_11  and  O_12
REMARK    9  A    between atoms: O_12  and  C_13
REMARK   10  A    between atoms: C_14  and  O_15
REMARK   11  A    between atoms: O_15  and  C_16
REMARK                            x       y       z     vdW  Elec       q    Type
REMARK                         _______ _______ _______ _____ _____    ______ ____
ROOT
ATOM      1  C   UNL     1       2.213   6.364  18.903  0.00  0.00    +0.000 C 
ATOM      2  C   UNL     1       1.726   7.537  18.460  0.00  0.00    +0.000 C 
ENDROOT
BRANCH   1   3
ATOM      3  C   UNL     1       2.660   5.359  17.849  0.00  0.00    +0.000 C 
ATOM      4  O   UNL     1       1.802   4.638  17.329  0.00  0.00    +0.000 OA
ATOM      5  N   UNL     1       4.011   5.237  17.506  0.00  0.00    +0.000 N 
ATOM      6  C   UNL     1       4.334   4.036  16.742  0.00  0.00    +0.000 C 
ATOM      7  C   UNL     1       5.806   3.649  16.697  0.00  0.00    +0.000 C 
ATOM      8  C   UNL     1       6.731   4.801  16.867  0.00  0.00    +0.000 C 
ATOM      9  C   UNL     1       6.317   6.035  17.187  0.00  0.00    +0.000 C 
ATOM     10 BR   UNL     1       7.551   7.415  17.466  0.00  0.00    +0.000 Br
ATOM     11  C   UNL     1       4.858   6.343  17.392  0.00  0.00    +0.000 C 
ATOM     12  O   UNL     1       4.490   7.510  17.500  0.00  0.00    +0.000 OA
ENDBRANCH   1   3
BRANCH   2  13
ATOM     13  C   UNL     1       1.433   8.774  19.189  0.00  0.00    +0.000 A 
ATOM     14  C   UNL     1       0.901   9.862  18.504  0.00  0.00    +0.000 A 
ATOM     15  C   UNL     1       0.409  10.973  19.187  0.00  0.00    +0.000 A 
ATOM     16  C   UNL     1       0.414  10.972  20.596  0.00  0.00    +0.000 A 
ATOM     17  C   UNL     1       0.968   9.882  21.305  0.00  0.00    +0.000 A 
ATOM     18  C   UNL     1       1.487   8.797  20.587  0.00  0.00    +0.000 A 
BRANCH  15  19
ATOM     19  O   UNL     1      -0.125  12.065  18.545  0.00  0.00    +0.000 OA
ATOM     20  C   UNL     1      -1.398  11.875  17.930  0.00  0.00    +0.000 C 
ENDBRANCH  15  19
BRANCH  16  21
ATOM     21  O   UNL     1      -0.100  12.097  21.204  0.00  0.00    +0.000 OA
ATOM     22  C   UNL     1      -1.488  12.023  21.519  0.00  0.00    +0.000 C 
ENDBRANCH  16  21
BRANCH  17  23
ATOM     23  O   UNL     1       0.957   9.944  22.675  0.00  0.00    +0.000 OA
ATOM     24  C   UNL     1      -0.149   9.384  23.370  0.00  0.00    +0.000 C 
ENDBRANCH  17  23
ENDBRANCH   2  13
BRANCH   1  25
ATOM     25  C   UNL     1       2.582   5.932  20.316  0.00  0.00    +0.000 C 
BRANCH  25  27
ATOM     26  C   UNL     1       1.122   3.861  20.705  0.00  0.00    +0.000 C 
ATOM     27  C   UNL     1       2.516   4.459  20.748  0.00  0.00    +0.000 C 
ENDBRANCH  25  27
ENDBRANCH   1  25
TORSDOF 7
ENDMDL
MODEL 7
REMARK VINA RESULT:      -6.4      2.302      3.701
REMARK  Name = 
REMARK  11 active torsions:
REMARK  status: ('A' for Active; 'I' for Inactive)
REMARK    1  A    between atoms: C_1  and  C_2
REMARK    2  A    between atoms: C_2  and  C_3
REMARK    3  A    between atoms: C_3  and  C_4
REMARK    4  A    between atoms: C_4  and  C_18
REMARK    5  A    between atoms: C_5  and  C_6
REMARK    6  A    between atoms: C_8  and  O_9
REMARK    7  A    between atoms: O_9  and  C_10
REMARK    8  A    between atoms: C_11  and  O_12
REMARK    9  A    between atoms: O_12  and  C_13
REMARK   10  A    between atoms: C_14  and  O_15
REMARK   11  A    between atoms: O_15  and  C_16
REMARK                            x       y       z     vdW  Elec       q    Type
REMARK                         _______ _______ _______ _____ _____    ______ ____
ROOT
ATOM      1  C   UNL     1       1.449   9.364  19.757  0.00  0.00    +0.000 C 
ATOM      2  C   UNL     1       2.053   8.955  18.626  0.00  0.00    +0.000 C 
ENDROOT
BRANCH   1   3
ATOM      3  C   UNL     1       0.956  10.805  19.794  0.00  0.00    +0.000 C 
ATOM      4  O   UNL     1       1.743  11.681  20.166  0.00  0.00    +0.000 OA
ATOM      5  N   UNL     1      -0.363  11.117  19.449  0.00  0.00    +0.000 N 
ATOM      6  C   UNL     1      -0.788  12.459  19.837  0.00  0.00    +0.000 C 
ATOM      7  C   UNL     1      -2.291  12.703  19.859  0.00  0.00    +0.000 C 
ATOM      8  C   UNL     1      -3.051  11.827  18.928  0.00  0.00    +0.000 C 
ATOM      9  C   UNL     1      -2.493  10.812  18.254  0.00  0.00    +0.000 C 
ATOM     10 BR   UNL     1      -3.534   9.700  17.165  0.00  0.00    +0.000 Br
ATOM     11  C   UNL     1      -1.028  10.492  18.390  0.00  0.00    +0.000 C 
ATOM     12  O   UNL     1      -0.507   9.684  17.626  0.00  0.00    +0.000 OA
ENDBRANCH   1   3
BRANCH   2  13
ATOM     13  C   UNL     1       2.424   7.607  18.188  0.00  0.00    +0.000 A 
ATOM     14  C   UNL     1       3.688   7.387  17.651  0.00  0.00    +0.000 A 
ATOM     15  C   UNL     1       4.160   6.095  17.424  0.00  0.00    +0.000 A 
ATOM     16  C   UNL     1       3.357   4.996  17.787  0.00  0.00    +0.000 A 
ATOM     17  C   UNL     1       2.063   5.204  18.316  0.00  0.00    +0.000 A 
ATOM     18  C   UNL     1       1.605   6.515  18.498  0.00  0.00    +0.000 A 
BRANCH  15  19
ATOM     19  O   UNL     1       5.403   5.839  16.896  0.00  0.00    +0.000 OA
ATOM     20  C   UNL     1       5.504   5.879  15.474  0.00  0.00    +0.000 C 
ENDBRANCH  15  19
BRANCH  16  21
ATOM     21  O   UNL     1       3.893   3.748  17.547  0.00  0.00    +0.000 OA
ATOM     22  C   UNL     1       4.478   3.122  18.685  0.00  0.00    +0.000 C 
ENDBRANCH  16  21
BRANCH  17  23
ATOM     23  O   UNL     1       1.323   4.095  18.638  0.00  0.00    +0.000 OA
ATOM     24  C   UNL     1       1.048   3.838  20.009  0.00  0.00    +0.000 C 
ENDBRANCH  17  23
ENDBRANCH   2  13
BRANCH   1  25
ATOM     25  C   UNL     1       0.992   8.558  20.965  0.00  0.00    +0.000 C 
BRANCH  25  27
ATOM     26  C   UNL     1      -0.234   9.495  23.013  0.00  0.00    +0.000 C 
ATOM     27  C   UNL     1      -0.355   8.834  21.651  0.00  0.00    +0.000 C 
ENDBRANCH  25  27
ENDBRANCH   1  25
TORSDOF 7
ENDMDL
MODEL 8
REMARK VINA RESULT:      -6.3      2.285      2.818
REMARK  Name = 
REMARK  11 active torsions:
REMARK  status: ('A' for Active; 'I' for Inactive)
REMARK    1  A    between atoms: C_1  and  C_2
REMARK    2  A    between atoms: C_2  and  C_3
REMARK    3  A    between atoms: C_3  and  C_4
REMARK    4  A    between atoms: C_4  and  C_18
REMARK    5  A    between atoms: C_5  and  C_6
REMARK    6  A    between atoms: C_8  and  O_9
REMARK    7  A    between atoms: O_9  and  C_10
REMARK    8  A    between atoms: C_11  and  O_12
REMARK    9  A    between atoms: O_12  and  C_13
REMARK   10  A    between atoms: C_14  and  O_15
REMARK   11  A    between atoms: O_15  and  C_16
REMARK                            x       y       z     vdW  Elec       q    Type
REMARK                         _______ _______ _______ _____ _____    ______ ____
ROOT
ATOM      1  C   UNL     1       1.188   9.188  20.258  0.00  0.00    +0.000 C 
ATOM      2  C   UNL     1       2.028   8.859  19.260  0.00  0.00    +0.000 C 
ENDROOT
BRANCH   1   3
ATOM      3  C   UNL     1       0.671  10.621  20.283  0.00  0.00    +0.000 C 
ATOM      4  O   UNL     1       1.319  11.463  20.914  0.00  0.00    +0.000 OA
ATOM      5  N   UNL     1      -0.521  10.961  19.637  0.00  0.00    +0.000 N 
ATOM      6  C   UNL     1      -1.059  12.266  20.009  0.00  0.00    +0.000 C 
ATOM      7  C   UNL     1      -2.522  12.508  19.663  0.00  0.00    +0.000 C 
ATOM      8  C   UNL     1      -3.000  11.712  18.501  0.00  0.00    +0.000 C 
ATOM      9  C   UNL     1      -2.266  10.757  17.914  0.00  0.00    +0.000 C 
ATOM     10 BR   UNL     1      -2.970   9.740  16.508  0.00  0.00    +0.000 Br
ATOM     11  C   UNL     1      -0.879  10.427  18.396  0.00  0.00    +0.000 C 
ATOM     12  O   UNL     1      -0.163   9.684  17.730  0.00  0.00    +0.000 OA
ENDBRANCH   1   3
BRANCH   2  13
ATOM     13  C   UNL     1       2.509   7.545  18.825  0.00  0.00    +0.000 A 
ATOM     14  C   UNL     1       1.787   6.406  19.164  0.00  0.00    +0.000 A 
ATOM     15  C   UNL     1       2.084   5.168  18.594  0.00  0.00    +0.000 A 
ATOM     16  C   UNL     1       3.106   5.083  17.629  0.00  0.00    +0.000 A 
ATOM     17  C   UNL     1       3.861   6.228  17.288  0.00  0.00    +0.000 A 
ATOM     18  C   UNL     1       3.560   7.449  17.905  0.00  0.00    +0.000 A 
BRANCH  15  19
ATOM     19  O   UNL     1       1.392   4.022  18.904  0.00  0.00    +0.000 OA
ATOM     20  C   UNL     1       1.037   3.850  20.275  0.00  0.00    +0.000 C 
ENDBRANCH  15  19
BRANCH  16  21
ATOM     21  O   UNL     1       3.336   3.831  17.099  0.00  0.00    +0.000 OA
ATOM     22  C   UNL     1       4.278   3.042  17.821  0.00  0.00    +0.000 C 
ENDBRANCH  16  21
BRANCH  17  23
ATOM     23  O   UNL     1       4.852   6.080  16.351  0.00  0.00    +0.000 OA
ATOM     24  C   UNL     1       6.205   6.128  16.783  0.00  0.00    +0.000 C 
ENDBRANCH  17  23
ENDBRANCH   2  13
BRANCH   1  25
ATOM     25  C   UNL     1       0.497   8.300  21.284  0.00  0.00    +0.000 C 
BRANCH  25  27
ATOM     26  C   UNL     1       0.016   9.502  23.497  0.00  0.00    +0.000 C 
ATOM     27  C   UNL     1      -0.560   8.859  22.248  0.00  0.00    +0.000 C 
ENDBRANCH  25  27
ENDBRANCH   1  25
TORSDOF 7
ENDMDL
MODEL 9
REMARK VINA RESULT:      -6.2      1.135      1.228
REMARK  Name = 
REMARK  11 active torsions:
REMARK  status: ('A' for Active; 'I' for Inactive)
REMARK    1  A    between atoms: C_1  and  C_2
REMARK    2  A    between atoms: C_2  and  C_3
REMARK    3  A    between atoms: C_3  and  C_4
REMARK    4  A    between atoms: C_4  and  C_18
REMARK    5  A    between atoms: C_5  and  C_6
REMARK    6  A    between atoms: C_8  and  O_9
REMARK    7  A    between atoms: O_9  and  C_10
REMARK    8  A    between atoms: C_11  and  O_12
REMARK    9  A    between atoms: O_12  and  C_13
REMARK   10  A    between atoms: C_14  and  O_15
REMARK   11  A    between atoms: O_15  and  C_16
REMARK                            x       y       z     vdW  Elec       q    Type
REMARK                         _______ _______ _______ _____ _____    ______ ____
ROOT
ATOM      1  C   UNL     1       1.069   9.067  19.664  0.00  0.00    +0.000 C 
ATOM      2  C   UNL     1       1.833   8.750  18.603  0.00  0.00    +0.000 C 
ENDROOT
BRANCH   1   3
ATOM      3  C   UNL     1      -0.030  10.097  19.441  0.00  0.00    +0.000 C 
ATOM      4  O   UNL     1      -1.197   9.698  19.370  0.00  0.00    +0.000 OA
ATOM      5  N   UNL     1       0.281  11.452  19.287  0.00  0.00    +0.000 N 
ATOM      6  C   UNL     1      -0.810  12.267  18.762  0.00  0.00    +0.000 C 
ATOM      7  C   UNL     1      -0.417  13.627  18.200  0.00  0.00    +0.000 C 
ATOM      8  C   UNL     1       0.823  14.185  18.802  0.00  0.00    +0.000 C 
ATOM      9  C   UNL     1       1.608  13.494  19.640  0.00  0.00    +0.000 C 
ATOM     10 BR   UNL     1       3.199  14.237  20.291  0.00  0.00    +0.000 Br
ATOM     11  C   UNL     1       1.275  12.082  20.041  0.00  0.00    +0.000 C 
ATOM     12  O   UNL     1       1.903  11.541  20.948  0.00  0.00    +0.000 OA
ENDBRANCH   1   3
BRANCH   2  13
ATOM     13  C   UNL     1       2.797   7.660  18.425  0.00  0.00    +0.000 A 
ATOM     14  C   UNL     1       2.413   6.354  18.714  0.00  0.00    +0.000 A 
ATOM     15  C   UNL     1       3.216   5.272  18.357  0.00  0.00    +0.000 A 
ATOM     16  C   UNL     1       4.414   5.506  17.655  0.00  0.00    +0.000 A 
ATOM     17  C   UNL     1       4.826   6.827  17.371  0.00  0.00    +0.000 A 
ATOM     18  C   UNL     1       4.014   7.895  17.775  0.00  0.00    +0.000 A 
BRANCH  15  19
ATOM     19  O   UNL     1       2.869   3.969  18.625  0.00  0.00    +0.000 OA
ATOM     20  C   UNL     1       1.745   3.456  17.912  0.00  0.00    +0.000 C 
ENDBRANCH  15  19
BRANCH  16  21
ATOM     21  O   UNL     1       5.150   4.388  17.323  0.00  0.00    +0.000 OA
ATOM     22  C   UNL     1       5.147   4.063  15.935  0.00  0.00    +0.000 C 
ENDBRANCH  16  21
BRANCH  17  23
ATOM     23  O   UNL     1       6.009   6.993  16.696  0.00  0.00    +0.000 OA
ATOM     24  C   UNL     1       7.195   7.205  17.450  0.00  0.00    +0.000 C 
ENDBRANCH  17  23
ENDBRANCH   2  13
BRANCH   1  25
ATOM     25  C   UNL     1       0.990   8.416  21.039  0.00  0.00    +0.000 C 
BRANCH  25  27
ATOM     26  C   UNL     1      -0.417   9.437  22.923  0.00  0.00    +0.000 C 
ATOM     27  C   UNL     1       0.967   9.256  22.325  0.00  0.00    +0.000 C 
ENDBRANCH  25  27
ENDBRANCH   1  25
TORSDOF 7
ENDMDL
