MODEL 1
REMARK VINA RESULT:      -7.1      0.000      0.000
REMARK  Name = 
REMARK  1 active torsions:
REMARK  status: ('A' for Active; 'I' for Inactive)
REMARK    1  A    between atoms: C_6  and  C_7
REMARK                            x       y       z     vdW  Elec       q    Type
REMARK                         _______ _______ _______ _____ _____    ______ ____
ROOT
ATOM      1  O   UNL     1       1.263   3.361  20.990  0.00  0.00    +0.000 OA
ATOM      2  C   UNL     1       2.090   3.848  20.224  0.00  0.00    +0.000 C 
ATOM      3  N   UNL     1       2.740   3.072  19.288  0.00  0.00    +0.000 N 
ATOM      4  C   UNL     1       3.480   3.521  18.218  0.00  0.00    +0.000 C 
ATOM      5  O   UNL     1       3.938   2.712  17.407  0.00  0.00    +0.000 OA
ATOM      6  C   UNL     1       3.679   5.050  18.066  0.00  0.00    +0.000 C 
ATOM      7  N   UNL     1       2.703   5.781  18.886  0.00  0.00    +0.000 NA
ATOM      8  C   UNL     1       2.698   7.227  18.902  0.00  0.00    +0.000 C 
ATOM      9  C   UNL     1       1.638   7.537  19.959  0.00  0.00    +0.000 C 
ATOM     10  C   UNL     1       1.510   6.277  20.820  0.00  0.00    +0.000 C 
ATOM     11  C   UNL     1       2.535   5.309  20.254  0.00  0.00    +0.000 C 
ATOM     12  H   UNL     1       2.527   2.086  19.297  0.00  0.00    +0.000 HD
ENDROOT
BRANCH   6  13
ATOM     13  C   UNL     1       5.139   5.482  18.080  0.00  0.00    +0.000 A 
ATOM     14  C   UNL     1       5.877   5.197  19.255  0.00  0.00    +0.000 A 
ATOM     15  C   UNL     1       7.202   5.612  19.420  0.00  0.00    +0.000 A 
ATOM     16  C   UNL     1       7.841   6.303  18.400  0.00  0.00    +0.000 A 
ATOM     17  C   UNL     1       7.146   6.594  17.231  0.00  0.00    +0.000 A 
ATOM     18  C   UNL     1       5.804   6.208  17.075  0.00  0.00    +0.000 A 
ATOM     19 CL   UNL     1       5.046   6.740  15.618  0.00  0.00    +0.000 Cl
ENDBRANCH   6  13
TORSDOF 1
ENDMDL
MODEL 2
REMARK VINA RESULT:      -7.1      2.459      5.089
REMARK  Name = 
REMARK  1 active torsions:
REMARK  status: ('A' for Active; 'I' for Inactive)
REMARK    1  A    between atoms: C_6  and  C_7
REMARK                            x       y       z     vdW  Elec       q    Type
REMARK                         _______ _______ _______ _____ _____    ______ ____
ROOT
ATOM      1  O   UNL     1       6.509   5.545  14.747  0.00  0.00    +0.000 OA
ATOM      2  C   UNL     1       5.888   5.292  15.776  0.00  0.00    +0.000 C 
ATOM      3  N   UNL     1       4.869   4.363  15.785  0.00  0.00    +0.000 N 
ATOM      4  C   UNL     1       4.276   3.804  16.894  0.00  0.00    +0.000 C 
ATOM      5  O   UNL     1       3.429   2.917  16.755  0.00  0.00    +0.000 OA
ATOM      6  C   UNL     1       4.732   4.303  18.288  0.00  0.00    +0.000 C 
ATOM      7  N   UNL     1       6.011   5.018  18.187  0.00  0.00    +0.000 NA
ATOM      8  C   UNL     1       6.633   5.575  19.367  0.00  0.00    +0.000 C 
ATOM      9  C   UNL     1       7.836   6.317  18.782  0.00  0.00    +0.000 C 
ATOM     10  C   UNL     1       7.510   6.564  17.306  0.00  0.00    +0.000 C 
ATOM     11  C   UNL     1       6.114   5.997  17.112  0.00  0.00    +0.000 C 
ATOM     12  H   UNL     1       4.641   3.939  14.900  0.00  0.00    +0.000 HD
ENDROOT
BRANCH   6  13
ATOM     13  C   UNL     1       3.607   4.899  19.123  0.00  0.00    +0.000 A 
ATOM     14  C   UNL     1       3.278   6.256  18.876  0.00  0.00    +0.000 A 
ATOM     15  C   UNL     1       2.319   6.937  19.630  0.00  0.00    +0.000 A 
ATOM     16  C   UNL     1       1.635   6.275  20.639  0.00  0.00    +0.000 A 
ATOM     17  C   UNL     1       1.930   4.941  20.905  0.00  0.00    +0.000 A 
ATOM     18  C   UNL     1       2.918   4.262  20.171  0.00  0.00    +0.000 A 
ATOM     19 CL   UNL     1       3.248   2.650  20.692  0.00  0.00    +0.000 Cl
ENDBRANCH   6  13
TORSDOF 1
ENDMDL
MODEL 3
REMARK VINA RESULT:      -7.1      1.744      2.164
REMARK  Name = 
REMARK  1 active torsions:
REMARK  status: ('A' for Active; 'I' for Inactive)
REMARK    1  A    between atoms: C_6  and  C_7
REMARK                            x       y       z     vdW  Elec       q    Type
REMARK                         _______ _______ _______ _____ _____    ______ ____
ROOT
ATOM      1  O   UNL     1       2.111   4.091  21.518  0.00  0.00    +0.000 OA
ATOM      2  C   UNL     1       2.635   4.159  20.410  0.00  0.00    +0.000 C 
ATOM      3  N   UNL     1       2.911   3.022  19.679  0.00  0.00    +0.000 N 
ATOM      4  C   UNL     1       3.249   2.963  18.346  0.00  0.00    +0.000 C 
ATOM      5  O   UNL     1       3.388   1.867  17.797  0.00  0.00    +0.000 OA
ATOM      6  C   UNL     1       3.412   4.300  17.581  0.00  0.00    +0.000 C 
ATOM      7  N   UNL     1       2.788   5.402  18.327  0.00  0.00    +0.000 NA
ATOM      8  C   UNL     1       2.815   6.748  17.802  0.00  0.00    +0.000 C 
ATOM      9  C   UNL     1       2.186   7.554  18.941  0.00  0.00    +0.000 C 
ATOM     10  C   UNL     1       2.338   6.701  20.203  0.00  0.00    +0.000 C 
ATOM     11  C   UNL     1       3.089   5.461  19.751  0.00  0.00    +0.000 C 
ATOM     12  H   UNL     1       2.697   2.142  20.122  0.00  0.00    +0.000 HD
ENDROOT
BRANCH   6  13
ATOM     13  C   UNL     1       4.796   4.496  16.977  0.00  0.00    +0.000 A 
ATOM     14  C   UNL     1       4.921   4.275  15.583  0.00  0.00    +0.000 A 
ATOM     15  C   UNL     1       6.152   4.347  14.927  0.00  0.00    +0.000 A 
ATOM     16  C   UNL     1       7.298   4.669  15.640  0.00  0.00    +0.000 A 
ATOM     17  C   UNL     1       7.209   4.897  17.010  0.00  0.00    +0.000 A 
ATOM     18  C   UNL     1       5.978   4.794  17.680  0.00  0.00    +0.000 A 
ATOM     19 CL   UNL     1       6.049   4.992  19.393  0.00  0.00    +0.000 Cl
ENDBRANCH   6  13
TORSDOF 1
ENDMDL
MODEL 4
REMARK VINA RESULT:      -7.0      2.346      4.909
REMARK  Name = 
REMARK  1 active torsions:
REMARK  status: ('A' for Active; 'I' for Inactive)
REMARK    1  A    between atoms: C_6  and  C_7
REMARK                            x       y       z     vdW  Elec       q    Type
REMARK                         _______ _______ _______ _____ _____    ______ ____
ROOT
ATOM      1  O   UNL     1       6.242   3.675  14.996  0.00  0.00    +0.000 OA
ATOM      2  C   UNL     1       5.534   4.076  15.915  0.00  0.00    +0.000 C 
ATOM      3  N   UNL     1       4.219   3.676  16.031  0.00  0.00    +0.000 N 
ATOM      4  C   UNL     1       3.405   3.837  17.129  0.00  0.00    +0.000 C 
ATOM      5  O   UNL     1       2.270   3.353  17.126  0.00  0.00    +0.000 OA
ATOM      6  C   UNL     1       3.976   4.604  18.348  0.00  0.00    +0.000 C 
ATOM      7  N   UNL     1       5.440   4.690  18.265  0.00  0.00    +0.000 NA
ATOM      8  C   UNL     1       6.193   5.365  19.298  0.00  0.00    +0.000 C 
ATOM      9  C   UNL     1       7.618   5.323  18.742  0.00  0.00    +0.000 C 
ATOM     10  C   UNL     1       7.481   5.109  17.232  0.00  0.00    +0.000 C 
ATOM     11  C   UNL     1       5.985   5.083  16.972  0.00  0.00    +0.000 C 
ATOM     12  H   UNL     1       3.868   3.075  15.303  0.00  0.00    +0.000 HD
ENDROOT
BRANCH   6  13
ATOM     13  C   UNL     1       3.175   5.845  18.720  0.00  0.00    +0.000 A 
ATOM     14  C   UNL     1       3.255   6.946  17.832  0.00  0.00    +0.000 A 
ATOM     15  C   UNL     1       2.629   8.166  18.103  0.00  0.00    +0.000 A 
ATOM     16  C   UNL     1       1.877   8.316  19.260  0.00  0.00    +0.000 A 
ATOM     17  C   UNL     1       1.774   7.252  20.151  0.00  0.00    +0.000 A 
ATOM     18  C   UNL     1       2.429   6.034  19.898  0.00  0.00    +0.000 A 
ATOM     19 CL   UNL     1       2.298   4.852  21.149  0.00  0.00    +0.000 Cl
ENDBRANCH   6  13
TORSDOF 1
ENDMDL
MODEL 5
REMARK VINA RESULT:      -7.0      1.027      1.028
REMARK  Name = 
REMARK  1 active torsions:
REMARK  status: ('A' for Active; 'I' for Inactive)
REMARK    1  A    between atoms: C_6  and  C_7
REMARK                            x       y       z     vdW  Elec       q    Type
REMARK                         _______ _______ _______ _____ _____    ______ ____
ROOT
ATOM      1  O   UNL     1       1.107   3.168  21.272  0.00  0.00    +0.000 OA
ATOM      2  C   UNL     1       1.955   3.493  20.446  0.00  0.00    +0.000 C 
ATOM      3  N   UNL     1       2.496   2.570  19.576  0.00  0.00    +0.000 N 
ATOM      4  C   UNL     1       3.245   2.838  18.453  0.00  0.00    +0.000 C 
ATOM      5  O   UNL     1       3.596   1.913  17.716  0.00  0.00    +0.000 OA
ATOM      6  C   UNL     1       3.590   4.317  18.150  0.00  0.00    +0.000 C 
ATOM      7  N   UNL     1       2.717   5.219  18.913  0.00  0.00    +0.000 NA
ATOM      8  C   UNL     1       2.856   6.652  18.789  0.00  0.00    +0.000 C 
ATOM      9  C   UNL     1       1.864   7.168  19.832  0.00  0.00    +0.000 C 
ATOM     10  C   UNL     1       1.638   6.014  20.814  0.00  0.00    +0.000 C 
ATOM     11  C   UNL     1       2.544   4.898  20.324  0.00  0.00    +0.000 C 
ATOM     12  H   UNL     1       2.187   1.617  19.686  0.00  0.00    +0.000 HD
ENDROOT
BRANCH   6  13
ATOM     13  C   UNL     1       5.086   4.598  18.091  0.00  0.00    +0.000 A 
ATOM     14  C   UNL     1       5.694   5.066  19.283  0.00  0.00    +0.000 A 
ATOM     15  C   UNL     1       7.041   5.433  19.335  0.00  0.00    +0.000 A 
ATOM     16  C   UNL     1       7.834   5.316  18.203  0.00  0.00    +0.000 A 
ATOM     17  C   UNL     1       7.269   4.855  17.017  0.00  0.00    +0.000 A 
ATOM     18  C   UNL     1       5.907   4.516  16.952  0.00  0.00    +0.000 A 
ATOM     19 CL   UNL     1       5.330   4.070  15.387  0.00  0.00    +0.000 Cl
ENDBRANCH   6  13
TORSDOF 1
ENDMDL
MODEL 6
REMARK VINA RESULT:      -7.0      2.515      4.249
REMARK  Name = 
REMARK  1 active torsions:
REMARK  status: ('A' for Active; 'I' for Inactive)
REMARK    1  A    between atoms: C_6  and  C_7
REMARK                            x       y       z     vdW  Elec       q    Type
REMARK                         _______ _______ _______ _____ _____    ______ ____
ROOT
ATOM      1  O   UNL     1       4.936   1.778  20.239  0.00  0.00    +0.000 OA
ATOM      2  C   UNL     1       4.474   2.797  19.734  0.00  0.00    +0.000 C 
ATOM      3  N   UNL     1       5.297   3.806  19.278  0.00  0.00    +0.000 N 
ATOM      4  C   UNL     1       4.935   4.863  18.474  0.00  0.00    +0.000 C 
ATOM      5  O   UNL     1       5.796   5.649  18.072  0.00  0.00    +0.000 OA
ATOM      6  C   UNL     1       3.442   4.997  18.084  0.00  0.00    +0.000 C 
ATOM      7  N   UNL     1       2.729   3.735  18.326  0.00  0.00    +0.000 NA
ATOM      8  C   UNL     1       1.318   3.624  18.032  0.00  0.00    +0.000 C 
ATOM      9  C   UNL     1       0.988   2.223  18.550  0.00  0.00    +0.000 C 
ATOM     10  C   UNL     1       2.087   1.868  19.554  0.00  0.00    +0.000 C 
ATOM     11  C   UNL     1       2.980   3.095  19.610  0.00  0.00    +0.000 C 
ATOM     12  H   UNL     1       6.286   3.674  19.420  0.00  0.00    +0.000 HD
ENDROOT
BRANCH   6  13
ATOM     13  C   UNL     1       2.809   6.309  18.526  0.00  0.00    +0.000 A 
ATOM     14  C   UNL     1       2.826   7.373  17.590  0.00  0.00    +0.000 A 
ATOM     15  C   UNL     1       2.347   8.648  17.905  0.00  0.00    +0.000 A 
ATOM     16  C   UNL     1       1.809   8.893  19.159  0.00  0.00    +0.000 A 
ATOM     17  C   UNL     1       1.772   7.869  20.101  0.00  0.00    +0.000 A 
ATOM     18  C   UNL     1       2.283   6.595  19.799  0.00  0.00    +0.000 A 
ATOM     19 CL   UNL     1       2.270   5.466  21.105  0.00  0.00    +0.000 Cl
ENDBRANCH   6  13
TORSDOF 1
ENDMDL
MODEL 7
REMARK VINA RESULT:      -7.0      2.367      4.579
REMARK  Name = 
REMARK  1 active torsions:
REMARK  status: ('A' for Active; 'I' for Inactive)
REMARK    1  A    between atoms: C_6  and  C_7
REMARK                            x       y       z     vdW  Elec       q    Type
REMARK                         _______ _______ _______ _____ _____    ______ ____
ROOT
ATOM      1  O   UNL     1       5.392   7.031  16.069  0.00  0.00    +0.000 OA
ATOM      2  C   UNL     1       4.878   6.445  17.018  0.00  0.00    +0.000 C 
ATOM      3  N   UNL     1       5.536   5.420  17.666  0.00  0.00    +0.000 N 
ATOM      4  C   UNL     1       5.197   4.863  18.878  0.00  0.00    +0.000 C 
ATOM      5  O   UNL     1       5.927   4.006  19.383  0.00  0.00    +0.000 OA
ATOM      6  C   UNL     1       3.910   5.371  19.574  0.00  0.00    +0.000 C 
ATOM      7  N   UNL     1       3.480   6.651  18.995  0.00  0.00    +0.000 NA
ATOM      8  C   UNL     1       2.297   7.317  19.491  0.00  0.00    +0.000 C 
ATOM      9  C   UNL     1       2.168   8.504  18.534  0.00  0.00    +0.000 C 
ATOM     10  C   UNL     1       2.957   8.128  17.277  0.00  0.00    +0.000 C 
ATOM     11  C   UNL     1       3.469   6.723  17.540  0.00  0.00    +0.000 C 
ATOM     12  H   UNL     1       6.435   5.159  17.293  0.00  0.00    +0.000 HD
ENDROOT
BRANCH   6  13
ATOM     13  C   UNL     1       2.878   4.280  19.824  0.00  0.00    +0.000 A 
ATOM     14  C   UNL     1       2.504   4.053  21.173  0.00  0.00    +0.000 A 
ATOM     15  C   UNL     1       1.626   3.028  21.538  0.00  0.00    +0.000 A 
ATOM     16  C   UNL     1       1.070   2.214  20.562  0.00  0.00    +0.000 A 
ATOM     17  C   UNL     1       1.412   2.413  19.227  0.00  0.00    +0.000 A 
ATOM     18  C   UNL     1       2.321   3.421  18.859  0.00  0.00    +0.000 A 
ATOM     19 CL   UNL     1       2.731   3.470  17.184  0.00  0.00    +0.000 Cl
ENDBRANCH   6  13
TORSDOF 1
ENDMDL
MODEL 8
REMARK VINA RESULT:      -7.0      2.125      3.269
REMARK  Name = 
REMARK  1 active torsions:
REMARK  status: ('A' for Active; 'I' for Inactive)
REMARK    1  A    between atoms: C_6  and  C_7
REMARK                            x       y       z     vdW  Elec       q    Type
REMARK                         _______ _______ _______ _____ _____    ______ ____
ROOT
ATOM      1  O   UNL     1       1.744   5.506  20.947  0.00  0.00    +0.000 OA
ATOM      2  C   UNL     1       2.567   5.182  20.095  0.00  0.00    +0.000 C 
ATOM      3  N   UNL     1       3.877   5.608  20.169  0.00  0.00    +0.000 N 
ATOM      4  C   UNL     1       4.941   5.121  19.444  0.00  0.00    +0.000 C 
ATOM      5  O   UNL     1       6.079   5.538  19.674  0.00  0.00    +0.000 OA
ATOM      6  C   UNL     1       4.655   4.034  18.379  0.00  0.00    +0.000 C 
ATOM      7  N   UNL     1       3.336   3.426  18.602  0.00  0.00    +0.000 NA
ATOM      8  C   UNL     1       2.855   2.382  17.727  0.00  0.00    +0.000 C 
ATOM      9  C   UNL     1       1.433   2.155  18.243  0.00  0.00    +0.000 C 
ATOM     10  C   UNL     1       1.045   3.426  19.003  0.00  0.00    +0.000 C 
ATOM     11  C   UNL     1       2.240   4.352  18.855  0.00  0.00    +0.000 C 
ATOM     12  H   UNL     1       4.105   6.224  20.933  0.00  0.00    +0.000 HD
ENDROOT
BRANCH   6  13
ATOM     13  C   UNL     1       5.063   4.437  16.968  0.00  0.00    +0.000 A 
ATOM     14  C   UNL     1       5.784   3.477  16.214  0.00  0.00    +0.000 A 
ATOM     15  C   UNL     1       6.281   3.756  14.938  0.00  0.00    +0.000 A 
ATOM     16  C   UNL     1       6.049   4.996  14.361  0.00  0.00    +0.000 A 
ATOM     17  C   UNL     1       5.340   5.959  15.073  0.00  0.00    +0.000 A 
ATOM     18  C   UNL     1       4.867   5.695  16.370  0.00  0.00    +0.000 A 
ATOM     19 CL   UNL     1       4.107   7.025  17.165  0.00  0.00    +0.000 Cl
ENDBRANCH   6  13
TORSDOF 1
ENDMDL
MODEL 9
REMARK VINA RESULT:      -7.0      1.965      4.813
REMARK  Name = 
REMARK  1 active torsions:
REMARK  status: ('A' for Active; 'I' for Inactive)
REMARK    1  A    between atoms: C_6  and  C_7
REMARK                            x       y       z     vdW  Elec       q    Type
REMARK                         _______ _______ _______ _____ _____    ______ ____
ROOT
ATOM      1  O   UNL     1       6.525   5.546  14.778  0.00  0.00    +0.000 OA
ATOM      2  C   UNL     1       5.900   5.325  15.811  0.00  0.00    +0.000 C 
ATOM      3  N   UNL     1       4.832   4.453  15.827  0.00  0.00    +0.000 N 
ATOM      4  C   UNL     1       4.218   3.924  16.940  0.00  0.00    +0.000 C 
ATOM      5  O   UNL     1       3.324   3.085  16.806  0.00  0.00    +0.000 OA
ATOM      6  C   UNL     1       4.711   4.396  18.331  0.00  0.00    +0.000 C 
ATOM      7  N   UNL     1       6.027   5.041  18.222  0.00  0.00    +0.000 NA
ATOM      8  C   UNL     1       6.686   5.561  19.397  0.00  0.00    +0.000 C 
ATOM      9  C   UNL     1       7.923   6.238  18.804  0.00  0.00    +0.000 C 
ATOM     10  C   UNL     1       7.600   6.505  17.332  0.00  0.00    +0.000 C 
ATOM     11  C   UNL     1       6.174   6.014  17.147  0.00  0.00    +0.000 C 
ATOM     12  H   UNL     1       4.575   4.043  14.943  0.00  0.00    +0.000 HD
ENDROOT
BRANCH   6  13
ATOM     13  C   UNL     1       3.626   5.050  19.176  0.00  0.00    +0.000 A 
ATOM     14  C   UNL     1       3.075   4.269  20.222  0.00  0.00    +0.000 A 
ATOM     15  C   UNL     1       2.020   4.728  21.016  0.00  0.00    +0.000 A 
ATOM     16  C   UNL     1       1.500   5.998  20.807  0.00  0.00    +0.000 A 
ATOM     17  C   UNL     1       2.022   6.792  19.791  0.00  0.00    +0.000 A 
ATOM     18  C   UNL     1       3.061   6.321  18.969  0.00  0.00    +0.000 A 
ATOM     19 CL   UNL     1       3.522   7.377  17.684  0.00  0.00    +0.000 Cl
ENDBRANCH   6  13
TORSDOF 1
ENDMDL
