MODEL 1
REMARK VINA RESULT:      -7.5      0.000      0.000
REMARK  Name = 
REMARK  8 active torsions:
REMARK  status: ('A' for Active; 'I' for Inactive)
REMARK    1  A    between atoms: C_2  and  C_3
REMARK    2  A    between atoms: C_3  and  O_4
REMARK    3  A    between atoms: O_4  and  C_5
REMARK    4  A    between atoms: N_11  and  CA_12
REMARK    5  A    between atoms: CA_16  and  C_17
REMARK    6  A    between atoms: C_17  and  OXT_19
REMARK    7  A    between atoms: C_20  and  C_21
REMARK    8  A    between atoms: C_21  and  O_22
REMARK                            x       y       z     vdW  Elec       q    Type
REMARK                         _______ _______ _______ _____ _____    ______ ____
ROOT
ATOM      1  CA  UNL     1       4.190   5.382  18.367  0.00  0.00    +0.000 C 
ATOM      2  C   UNL     1       5.273   4.596  19.209  0.00  0.00    +0.000 C 
ATOM      3  O   UNL     1       6.450   4.385  19.143  0.00  0.00    +0.000 OA
ATOM      4  N   UNL     1       4.298   4.306  20.160  0.00  0.00    +0.000 N 
ATOM      5  CA  UNL     1       3.615   3.085  19.951  0.00  0.00    +0.000 C 
ATOM      6  C   UNL     1       2.339   3.049  19.474  0.00  0.00    +0.000 C 
ATOM      7  C   UNL     1       1.401   4.232  19.374  0.00  0.00    +0.000 C 
ATOM      8  S   UNL     1       1.927   5.730  20.160  0.00  0.00    +0.000 S 
ATOM      9  C   UNL     1       3.667   5.615  19.822  0.00  0.00    +0.000 C 
ENDROOT
BRANCH   1  12
ATOM     10  O   UNL     1       5.739   7.580  15.936  0.00  0.00    +0.000 OA
ATOM     11  C   UNL     1       5.591   6.540  16.587  0.00  0.00    +0.000 C 
ATOM     12  N   UNL     1       4.621   6.535  17.561  0.00  0.00    +0.000 N 
ATOM     13  H   UNL     1       4.034   7.360  17.486  0.00  0.00    +0.000 HD
BRANCH  11  14
ATOM     14  C   UNL     1       6.426   5.292  16.301  0.00  0.00    +0.000 C 
BRANCH  14  15
ATOM     15  O   UNL     1       7.348   5.548  15.243  0.00  0.00    +0.000 OA
BRANCH  15  16
ATOM     16  C   UNL     1       7.055   4.911  14.063  0.00  0.00    +0.000 A 
ATOM     17  C   UNL     1       5.964   4.041  14.108  0.00  0.00    +0.000 A 
ATOM     18  C   UNL     1       5.598   3.305  12.980  0.00  0.00    +0.000 A 
ATOM     19  C   UNL     1       6.306   3.457  11.788  0.00  0.00    +0.000 A 
ATOM     20  C   UNL     1       7.370   4.352  11.724  0.00  0.00    +0.000 A 
ATOM     21  C   UNL     1       7.744   5.080  12.858  0.00  0.00    +0.000 A 
ENDBRANCH  15  16
ENDBRANCH  14  15
ENDBRANCH  11  14
ENDBRANCH   1  12
BRANCH   5  22
ATOM     22  C   UNL     1       4.527   1.871  20.191  0.00  0.00    +0.000 C 
ATOM     23  O   UNL     1       5.017   1.626  21.284  0.00  0.00    +0.000 OA
BRANCH  22  24
ATOM     24  OXT UNL     1       4.646   0.970  19.198  0.00  0.00    +0.000 OA
ATOM     25  HXT UNL     1       4.559   1.324  18.299  0.00  0.00    +0.000 HD
ENDBRANCH  22  24
ENDBRANCH   5  22
BRANCH   6  26
ATOM     26  C   UNL     1       1.665   1.853  18.842  0.00  0.00    +0.000 C 
BRANCH  26  27
ATOM     27  O   UNL     1       2.127   1.670  17.514  0.00  0.00    +0.000 OA
ATOM     28  H   UNL     1       3.049   1.985  17.457  0.00  0.00    +0.000 HD
ENDBRANCH  26  27
ENDBRANCH   6  26
TORSDOF 8
ENDMDL
MODEL 2
REMARK VINA RESULT:      -7.4      1.059      1.201
REMARK  Name = 
REMARK  8 active torsions:
REMARK  status: ('A' for Active; 'I' for Inactive)
REMARK    1  A    between atoms: C_2  and  C_3
REMARK    2  A    between atoms: C_3  and  O_4
REMARK    3  A    between atoms: O_4  and  C_5
REMARK    4  A    between atoms: N_11  and  CA_12
REMARK    5  A    between atoms: CA_16  and  C_17
REMARK    6  A    between atoms: C_17  and  OXT_19
REMARK    7  A    between atoms: C_20  and  C_21
REMARK    8  A    between atoms: C_21  and  O_22
REMARK                            x       y       z     vdW  Elec       q    Type
REMARK                         _______ _______ _______ _____ _____    ______ ____
ROOT
ATOM      1  CA  UNL     1       4.169   5.330  17.952  0.00  0.00    +0.000 C 
ATOM      2  C   UNL     1       5.290   4.550  18.746  0.00  0.00    +0.000 C 
ATOM      3  O   UNL     1       6.434   4.240  18.570  0.00  0.00    +0.000 OA
ATOM      4  N   UNL     1       4.420   4.433  19.827  0.00  0.00    +0.000 N 
ATOM      5  CA  UNL     1       3.637   3.255  19.830  0.00  0.00    +0.000 C 
ATOM      6  C   UNL     1       2.313   3.273  19.507  0.00  0.00    +0.000 C 
ATOM      7  C   UNL     1       1.451   4.511  19.386  0.00  0.00    +0.000 C 
ATOM      8  S   UNL     1       2.167   6.033  19.941  0.00  0.00    +0.000 S 
ATOM      9  C   UNL     1       3.842   5.748  19.423  0.00  0.00    +0.000 C 
ENDROOT
BRANCH   1  12
ATOM     10  O   UNL     1       5.296   7.136  15.018  0.00  0.00    +0.000 OA
ATOM     11  C   UNL     1       5.120   6.148  15.739  0.00  0.00    +0.000 C 
ATOM     12  N   UNL     1       4.575   6.361  16.982  0.00  0.00    +0.000 N 
ATOM     13  H   UNL     1       4.229   7.311  17.065  0.00  0.00    +0.000 HD
BRANCH  11  14
ATOM     14  C   UNL     1       5.460   4.738  15.258  0.00  0.00    +0.000 C 
BRANCH  14  15
ATOM     15  O   UNL     1       6.444   4.792  14.226  0.00  0.00    +0.000 OA
BRANCH  15  16
ATOM     16  C   UNL     1       6.216   3.938  13.175  0.00  0.00    +0.000 A 
ATOM     17  C   UNL     1       4.883   3.818  12.780  0.00  0.00    +0.000 A 
ATOM     18  C   UNL     1       4.525   2.946  11.750  0.00  0.00    +0.000 A 
ATOM     19  C   UNL     1       5.506   2.207  11.089  0.00  0.00    +0.000 A 
ATOM     20  C   UNL     1       6.843   2.351  11.452  0.00  0.00    +0.000 A 
ATOM     21  C   UNL     1       7.198   3.215  12.491  0.00  0.00    +0.000 A 
ENDBRANCH  15  16
ENDBRANCH  14  15
ENDBRANCH  11  14
ENDBRANCH   1  12
BRANCH   5  22
ATOM     22  C   UNL     1       4.488   2.003  20.095  0.00  0.00    +0.000 C 
ATOM     23  O   UNL     1       4.933   1.735  21.201  0.00  0.00    +0.000 OA
BRANCH  22  24
ATOM     24  OXT UNL     1       4.599   1.099  19.103  0.00  0.00    +0.000 OA
ATOM     25  HXT UNL     1       5.500   0.795  18.913  0.00  0.00    +0.000 HD
ENDBRANCH  22  24
ENDBRANCH   5  22
BRANCH   6  26
ATOM     26  C   UNL     1       1.490   2.077  19.088  0.00  0.00    +0.000 C 
BRANCH  26  27
ATOM     27  O   UNL     1       0.112   2.323  19.312  0.00  0.00    +0.000 OA
ATOM     28  H   UNL     1      -0.187   3.017  18.695  0.00  0.00    +0.000 HD
ENDBRANCH  26  27
ENDBRANCH   6  26
TORSDOF 8
ENDMDL
MODEL 3
REMARK VINA RESULT:      -7.4      2.002      2.562
REMARK  Name = 
REMARK  8 active torsions:
REMARK  status: ('A' for Active; 'I' for Inactive)
REMARK    1  A    between atoms: C_2  and  C_3
REMARK    2  A    between atoms: C_3  and  O_4
REMARK    3  A    between atoms: O_4  and  C_5
REMARK    4  A    between atoms: N_11  and  CA_12
REMARK    5  A    between atoms: CA_16  and  C_17
REMARK    6  A    between atoms: C_17  and  OXT_19
REMARK    7  A    between atoms: C_20  and  C_21
REMARK    8  A    between atoms: C_21  and  O_22
REMARK                            x       y       z     vdW  Elec       q    Type
REMARK                         _______ _______ _______ _____ _____    ______ ____
ROOT
ATOM      1  CA  UNL     1       3.621   5.367  18.141  0.00  0.00    +0.000 C 
ATOM      2  C   UNL     1       2.492   5.694  19.197  0.00  0.00    +0.000 C 
ATOM      3  O   UNL     1       2.100   6.658  19.791  0.00  0.00    +0.000 OA
ATOM      4  N   UNL     1       2.043   4.379  19.099  0.00  0.00    +0.000 N 
ATOM      5  CA  UNL     1       2.620   3.487  20.033  0.00  0.00    +0.000 C 
ATOM      6  C   UNL     1       3.570   2.581  19.667  0.00  0.00    +0.000 C 
ATOM      7  C   UNL     1       3.928   2.204  18.246  0.00  0.00    +0.000 C 
ATOM      8  S   UNL     1       2.862   2.815  16.971  0.00  0.00    +0.000 S 
ATOM      9  C   UNL     1       2.483   4.402  17.673  0.00  0.00    +0.000 C 
ENDROOT
BRANCH   1  12
ATOM     10  O   UNL     1       5.337   7.355  15.641  0.00  0.00    +0.000 OA
ATOM     11  C   UNL     1       5.174   6.403  16.413  0.00  0.00    +0.000 C 
ATOM     12  N   UNL     1       4.076   6.437  17.238  0.00  0.00    +0.000 N 
ATOM     13  H   UNL     1       3.445   7.184  16.965  0.00  0.00    +0.000 HD
BRANCH  11  14
ATOM     14  C   UNL     1       6.135   5.214  16.427  0.00  0.00    +0.000 C 
BRANCH  14  15
ATOM     15  O   UNL     1       7.199   5.428  15.502  0.00  0.00    +0.000 OA
BRANCH  15  16
ATOM     16  C   UNL     1       7.000   4.871  14.263  0.00  0.00    +0.000 A 
ATOM     17  C   UNL     1       5.939   3.968  14.177  0.00  0.00    +0.000 A 
ATOM     18  C   UNL     1       5.668   3.306  12.978  0.00  0.00    +0.000 A 
ATOM     19  C   UNL     1       6.440   3.566  11.847  0.00  0.00    +0.000 A 
ATOM     20  C   UNL     1       7.476   4.495  11.915  0.00  0.00    +0.000 A 
ATOM     21  C   UNL     1       7.754   5.148  13.119  0.00  0.00    +0.000 A 
ENDBRANCH  15  16
ENDBRANCH  14  15
ENDBRANCH  11  14
ENDBRANCH   1  12
BRANCH   5  22
ATOM     22  C   UNL     1       2.148   3.776  21.467  0.00  0.00    +0.000 C 
ATOM     23  O   UNL     1       1.541   2.951  22.135  0.00  0.00    +0.000 OA
BRANCH  22  24
ATOM     24  OXT UNL     1       2.567   4.916  22.047  0.00  0.00    +0.000 OA
ATOM     25  HXT UNL     1       2.386   5.730  21.550  0.00  0.00    +0.000 HD
ENDBRANCH  22  24
ENDBRANCH   5  22
BRANCH   6  26
ATOM     26  C   UNL     1       4.527   1.878  20.601  0.00  0.00    +0.000 C 
BRANCH  26  27
ATOM     27  O   UNL     1       5.275   0.900  19.899  0.00  0.00    +0.000 OA
ATOM     28  H   UNL     1       4.664   0.208  19.581  0.00  0.00    +0.000 HD
ENDBRANCH  26  27
ENDBRANCH   6  26
TORSDOF 8
ENDMDL
MODEL 4
REMARK VINA RESULT:      -7.4      1.921      2.603
REMARK  Name = 
REMARK  8 active torsions:
REMARK  status: ('A' for Active; 'I' for Inactive)
REMARK    1  A    between atoms: C_2  and  C_3
REMARK    2  A    between atoms: C_3  and  O_4
REMARK    3  A    between atoms: O_4  and  C_5
REMARK    4  A    between atoms: N_11  and  CA_12
REMARK    5  A    between atoms: CA_16  and  C_17
REMARK    6  A    between atoms: C_17  and  OXT_19
REMARK    7  A    between atoms: C_20  and  C_21
REMARK    8  A    between atoms: C_21  and  O_22
REMARK                            x       y       z     vdW  Elec       q    Type
REMARK                         _______ _______ _______ _____ _____    ______ ____
ROOT
ATOM      1  CA  UNL     1       3.930   5.202  18.486  0.00  0.00    +0.000 C 
ATOM      2  C   UNL     1       2.776   5.317  19.560  0.00  0.00    +0.000 C 
ATOM      3  O   UNL     1       2.454   6.084  20.422  0.00  0.00    +0.000 OA
ATOM      4  N   UNL     1       2.191   4.170  19.028  0.00  0.00    +0.000 N 
ATOM      5  CA  UNL     1       2.600   2.962  19.640  0.00  0.00    +0.000 C 
ATOM      6  C   UNL     1       3.466   2.106  19.028  0.00  0.00    +0.000 C 
ATOM      7  C   UNL     1       3.875   2.156  17.572  0.00  0.00    +0.000 C 
ATOM      8  S   UNL     1       2.973   3.272  16.533  0.00  0.00    +0.000 S 
ATOM      9  C   UNL     1       2.726   4.588  17.700  0.00  0.00    +0.000 C 
ENDROOT
BRANCH   1  12
ATOM     10  O   UNL     1       6.026   7.645  16.819  0.00  0.00    +0.000 OA
ATOM     11  C   UNL     1       5.707   6.527  17.238  0.00  0.00    +0.000 C 
ATOM     12  N   UNL     1       4.562   6.436  17.992  0.00  0.00    +0.000 N 
ATOM     13  H   UNL     1       4.036   7.303  17.952  0.00  0.00    +0.000 HD
BRANCH  11  14
ATOM     14  C   UNL     1       6.531   5.283  16.903  0.00  0.00    +0.000 C 
BRANCH  14  15
ATOM     15  O   UNL     1       7.409   5.553  15.812  0.00  0.00    +0.000 OA
BRANCH  15  16
ATOM     16  C   UNL     1       7.060   4.942  14.633  0.00  0.00    +0.000 A 
ATOM     17  C   UNL     1       7.809   5.320  13.518  0.00  0.00    +0.000 A 
ATOM     18  C   UNL     1       7.516   4.797  12.257  0.00  0.00    +0.000 A 
ATOM     19  C   UNL     1       6.488   3.868  12.109  0.00  0.00    +0.000 A 
ATOM     20  C   UNL     1       5.762   3.456  13.224  0.00  0.00    +0.000 A 
ATOM     21  C   UNL     1       6.047   3.990  14.483  0.00  0.00    +0.000 A 
ENDBRANCH  15  16
ENDBRANCH  14  15
ENDBRANCH  11  14
ENDBRANCH   1  12
BRANCH   5  22
ATOM     22  C   UNL     1       2.067   2.837  21.076  0.00  0.00    +0.000 C 
ATOM     23  O   UNL     1       2.807   2.799  22.049  0.00  0.00    +0.000 OA
BRANCH  22  24
ATOM     24  OXT UNL     1       0.738   2.940  21.262  0.00  0.00    +0.000 OA
ATOM     25  HXT UNL     1       0.368   3.831  21.161  0.00  0.00    +0.000 HD
ENDBRANCH  22  24
ENDBRANCH   5  22
BRANCH   6  26
ATOM     26  C   UNL     1       4.273   1.027  19.711  0.00  0.00    +0.000 C 
BRANCH  26  27
ATOM     27  O   UNL     1       5.289   1.603  20.515  0.00  0.00    +0.000 OA
ATOM     28  H   UNL     1       4.874   2.216  21.151  0.00  0.00    +0.000 HD
ENDBRANCH  26  27
ENDBRANCH   6  26
TORSDOF 8
ENDMDL
MODEL 5
REMARK VINA RESULT:      -7.3      2.233      3.115
REMARK  Name = 
REMARK  8 active torsions:
REMARK  status: ('A' for Active; 'I' for Inactive)
REMARK    1  A    between atoms: C_2  and  C_3
REMARK    2  A    between atoms: C_3  and  O_4
REMARK    3  A    between atoms: O_4  and  C_5
REMARK    4  A    between atoms: N_11  and  CA_12
REMARK    5  A    between atoms: CA_16  and  C_17
REMARK    6  A    between atoms: C_17  and  OXT_19
REMARK    7  A    between atoms: C_20  and  C_21
REMARK    8  A    between atoms: C_21  and  O_22
REMARK                            x       y       z     vdW  Elec       q    Type
REMARK                         _______ _______ _______ _____ _____    ______ ____
ROOT
ATOM      1  CA  UNL     1       5.090   4.268  18.722  0.00  0.00    +0.000 C 
ATOM      2  C   UNL     1       4.530   5.713  18.414  0.00  0.00    +0.000 C 
ATOM      3  O   UNL     1       4.970   6.825  18.334  0.00  0.00    +0.000 OA
ATOM      4  N   UNL     1       3.278   5.157  18.166  0.00  0.00    +0.000 N 
ATOM      5  CA  UNL     1       2.425   5.098  19.293  0.00  0.00    +0.000 C 
ATOM      6  C   UNL     1       2.177   3.926  19.944  0.00  0.00    +0.000 C 
ATOM      7  C   UNL     1       2.513   2.543  19.430  0.00  0.00    +0.000 C 
ATOM      8  S   UNL     1       3.055   2.433  17.747  0.00  0.00    +0.000 S 
ATOM      9  C   UNL     1       3.986   3.944  17.664  0.00  0.00    +0.000 C 
ENDROOT
BRANCH   1  12
ATOM     10  O   UNL     1       8.436   4.208  17.329  0.00  0.00    +0.000 OA
ATOM     11  C   UNL     1       7.232   4.484  17.368  0.00  0.00    +0.000 C 
ATOM     12  N   UNL     1       6.498   3.973  18.410  0.00  0.00    +0.000 N 
ATOM     13  H   UNL     1       7.107   3.567  19.113  0.00  0.00    +0.000 HD
BRANCH  11  14
ATOM     14  C   UNL     1       6.587   5.390  16.318  0.00  0.00    +0.000 C 
BRANCH  14  15
ATOM     15  O   UNL     1       7.433   5.501  15.176  0.00  0.00    +0.000 OA
BRANCH  15  16
ATOM     16  C   UNL     1       6.980   4.837  14.063  0.00  0.00    +0.000 A 
ATOM     17  C   UNL     1       5.738   4.216  14.201  0.00  0.00    +0.000 A 
ATOM     18  C   UNL     1       5.195   3.475  13.150  0.00  0.00    +0.000 A 
ATOM     19  C   UNL     1       5.882   3.373  11.940  0.00  0.00    +0.000 A 
ATOM     20  C   UNL     1       7.103   4.023  11.782  0.00  0.00    +0.000 A 
ATOM     21  C   UNL     1       7.651   4.755  12.839  0.00  0.00    +0.000 A 
ENDBRANCH  15  16
ENDBRANCH  14  15
ENDBRANCH  11  14
ENDBRANCH   1  12
BRANCH   5  22
ATOM     22  C   UNL     1       1.963   6.495  19.736  0.00  0.00    +0.000 C 
ATOM     23  O   UNL     1       1.601   6.734  20.879  0.00  0.00    +0.000 OA
BRANCH  22  24
ATOM     24  OXT UNL     1       2.122   7.512  18.869  0.00  0.00    +0.000 OA
ATOM     25  HXT UNL     1       3.032   7.833  18.762  0.00  0.00    +0.000 HD
ENDBRANCH  22  24
ENDBRANCH   5  22
BRANCH   6  26
ATOM     26  C   UNL     1       1.636   3.793  21.349  0.00  0.00    +0.000 C 
BRANCH  26  27
ATOM     27  O   UNL     1       2.308   2.753  22.040  0.00  0.00    +0.000 OA
ATOM     28  H   UNL     1       1.721   2.415  22.742  0.00  0.00    +0.000 HD
ENDBRANCH  26  27
ENDBRANCH   6  26
TORSDOF 8
ENDMDL
MODEL 6
REMARK VINA RESULT:      -7.3      1.549      2.420
REMARK  Name = 
REMARK  8 active torsions:
REMARK  status: ('A' for Active; 'I' for Inactive)
REMARK    1  A    between atoms: C_2  and  C_3
REMARK    2  A    between atoms: C_3  and  O_4
REMARK    3  A    between atoms: O_4  and  C_5
REMARK    4  A    between atoms: N_11  and  CA_12
REMARK    5  A    between atoms: CA_16  and  C_17
REMARK    6  A    between atoms: C_17  and  OXT_19
REMARK    7  A    between atoms: C_20  and  C_21
REMARK    8  A    between atoms: C_21  and  O_22
REMARK                            x       y       z     vdW  Elec       q    Type
REMARK                         _______ _______ _______ _____ _____    ______ ____
ROOT
ATOM      1  CA  UNL     1       5.159   3.980  18.748  0.00  0.00    +0.000 C 
ATOM      2  C   UNL     1       4.591   3.105  19.935  0.00  0.00    +0.000 C 
ATOM      3  O   UNL     1       4.881   2.082  20.487  0.00  0.00    +0.000 OA
ATOM      4  N   UNL     1       3.624   4.080  20.168  0.00  0.00    +0.000 N 
ATOM      5  CA  UNL     1       2.406   3.880  19.477  0.00  0.00    +0.000 C 
ATOM      6  C   UNL     1       2.069   4.628  18.388  0.00  0.00    +0.000 C 
ATOM      7  C   UNL     1       2.755   5.902  17.947  0.00  0.00    +0.000 C 
ATOM      8  S   UNL     1       3.935   6.598  19.070  0.00  0.00    +0.000 S 
ATOM      9  C   UNL     1       4.621   5.090  19.709  0.00  0.00    +0.000 C 
ENDROOT
BRANCH   1  12
ATOM     10  O   UNL     1       8.492   4.500  17.420  0.00  0.00    +0.000 OA
ATOM     11  C   UNL     1       7.259   4.589  17.449  0.00  0.00    +0.000 C 
ATOM     12  N   UNL     1       6.599   3.918  18.450  0.00  0.00    +0.000 N 
ATOM     13  H   UNL     1       7.254   3.573  19.144  0.00  0.00    +0.000 HD
BRANCH  11  14
ATOM     14  C   UNL     1       6.497   5.440  16.434  0.00  0.00    +0.000 C 
BRANCH  14  15
ATOM     15  O   UNL     1       7.289   5.642  15.265  0.00  0.00    +0.000 OA
BRANCH  15  16
ATOM     16  C   UNL     1       6.898   4.905  14.175  0.00  0.00    +0.000 A 
ATOM     17  C   UNL     1       7.685   5.062  13.033  0.00  0.00    +0.000 A 
ATOM     18  C   UNL     1       7.358   4.396  11.850  0.00  0.00    +0.000 A 
ATOM     19  C   UNL     1       6.254   3.545  11.811  0.00  0.00    +0.000 A 
ATOM     20  C   UNL     1       5.487   3.353  12.958  0.00  0.00    +0.000 A 
ATOM     21  C   UNL     1       5.808   4.030  14.138  0.00  0.00    +0.000 A 
ENDBRANCH  15  16
ENDBRANCH  14  15
ENDBRANCH  11  14
ENDBRANCH   1  12
BRANCH   5  22
ATOM     22  C   UNL     1       1.632   2.667  20.017  0.00  0.00    +0.000 C 
ATOM     23  O   UNL     1       1.043   2.690  21.088  0.00  0.00    +0.000 OA
BRANCH  22  24
ATOM     24  OXT UNL     1       1.472   1.611  19.198  0.00  0.00    +0.000 OA
ATOM     25  HXT UNL     1       0.573   1.249  19.151  0.00  0.00    +0.000 HD
ENDBRANCH  22  24
ENDBRANCH   5  22
BRANCH   6  26
ATOM     26  C   UNL     1       1.033   4.262  17.351  0.00  0.00    +0.000 C 
BRANCH  26  27
ATOM     27  O   UNL     1       1.510   3.212  16.525  0.00  0.00    +0.000 OA
ATOM     28  H   UNL     1       1.221   2.361  16.904  0.00  0.00    +0.000 HD
ENDBRANCH  26  27
ENDBRANCH   6  26
TORSDOF 8
ENDMDL
MODEL 7
REMARK VINA RESULT:      -7.2      0.471      1.065
REMARK  Name = 
REMARK  8 active torsions:
REMARK  status: ('A' for Active; 'I' for Inactive)
REMARK    1  A    between atoms: C_2  and  C_3
REMARK    2  A    between atoms: C_3  and  O_4
REMARK    3  A    between atoms: O_4  and  C_5
REMARK    4  A    between atoms: N_11  and  CA_12
REMARK    5  A    between atoms: CA_16  and  C_17
REMARK    6  A    between atoms: C_17  and  OXT_19
REMARK    7  A    between atoms: C_20  and  C_21
REMARK    8  A    between atoms: C_21  and  O_22
REMARK                            x       y       z     vdW  Elec       q    Type
REMARK                         _______ _______ _______ _____ _____    ______ ____
ROOT
ATOM      1  CA  UNL     1       4.033   5.322  18.310  0.00  0.00    +0.000 C 
ATOM      2  C   UNL     1       5.168   4.587  19.128  0.00  0.00    +0.000 C 
ATOM      3  O   UNL     1       6.344   4.390  19.013  0.00  0.00    +0.000 OA
ATOM      4  N   UNL     1       4.245   4.321  20.137  0.00  0.00    +0.000 N 
ATOM      5  CA  UNL     1       3.573   3.082  20.010  0.00  0.00    +0.000 C 
ATOM      6  C   UNL     1       2.276   3.009  19.598  0.00  0.00    +0.000 C 
ATOM      7  C   UNL     1       1.316   4.173  19.498  0.00  0.00    +0.000 C 
ATOM      8  S   UNL     1       1.854   5.709  20.197  0.00  0.00    +0.000 S 
ATOM      9  C   UNL     1       3.577   5.606  19.779  0.00  0.00    +0.000 C 
ENDROOT
BRANCH   1  12
ATOM     10  O   UNL     1       5.481   7.458  15.764  0.00  0.00    +0.000 OA
ATOM     11  C   UNL     1       5.385   6.452  16.476  0.00  0.00    +0.000 C 
ATOM     12  N   UNL     1       4.405   6.448  17.439  0.00  0.00    +0.000 N 
ATOM     13  H   UNL     1       3.772   7.231  17.309  0.00  0.00    +0.000 HD
BRANCH  11  14
ATOM     14  C   UNL     1       6.296   5.241  16.274  0.00  0.00    +0.000 C 
BRANCH  14  15
ATOM     15  O   UNL     1       7.235   5.499  15.231  0.00  0.00    +0.000 OA
BRANCH  15  16
ATOM     16  C   UNL     1       6.978   4.839  14.055  0.00  0.00    +0.000 A 
ATOM     17  C   UNL     1       7.781   5.207  12.974  0.00  0.00    +0.000 A 
ATOM     18  C   UNL     1       7.582   4.634  11.717  0.00  0.00    +0.000 A 
ATOM     19  C   UNL     1       6.595   3.666  11.539  0.00  0.00    +0.000 A 
ATOM     20  C   UNL     1       5.816   3.265  12.622  0.00  0.00    +0.000 A 
ATOM     21  C   UNL     1       6.008   3.849  13.877  0.00  0.00    +0.000 A 
ENDBRANCH  15  16
ENDBRANCH  14  15
ENDBRANCH  11  14
ENDBRANCH   1  12
BRANCH   5  22
ATOM     22  C   UNL     1       4.515   1.892  20.253  0.00  0.00    +0.000 C 
ATOM     23  O   UNL     1       4.995   1.649  21.350  0.00  0.00    +0.000 OA
BRANCH  22  24
ATOM     24  OXT UNL     1       4.676   1.006  19.252  0.00  0.00    +0.000 OA
ATOM     25  HXT UNL     1       3.906   0.448  19.059  0.00  0.00    +0.000 HD
ENDBRANCH  22  24
ENDBRANCH   5  22
BRANCH   6  26
ATOM     26  C   UNL     1       1.593   1.779  19.047  0.00  0.00    +0.000 C 
BRANCH  26  27
ATOM     27  O   UNL     1       0.326   2.118  18.508  0.00  0.00    +0.000 OA
ATOM     28  H   UNL     1      -0.026   1.345  18.027  0.00  0.00    +0.000 HD
ENDBRANCH  26  27
ENDBRANCH   6  26
TORSDOF 8
ENDMDL
MODEL 8
REMARK VINA RESULT:      -7.2      3.794      6.786
REMARK  Name = 
REMARK  8 active torsions:
REMARK  status: ('A' for Active; 'I' for Inactive)
REMARK    1  A    between atoms: C_2  and  C_3
REMARK    2  A    between atoms: C_3  and  O_4
REMARK    3  A    between atoms: O_4  and  C_5
REMARK    4  A    between atoms: N_11  and  CA_12
REMARK    5  A    between atoms: CA_16  and  C_17
REMARK    6  A    between atoms: C_17  and  OXT_19
REMARK    7  A    between atoms: C_20  and  C_21
REMARK    8  A    between atoms: C_21  and  O_22
REMARK                            x       y       z     vdW  Elec       q    Type
REMARK                         _______ _______ _______ _____ _____    ______ ____
ROOT
ATOM      1  CA  UNL     1       4.055   5.334  19.050  0.00  0.00    +0.000 C 
ATOM      2  C   UNL     1       5.598   5.177  19.355  0.00  0.00    +0.000 C 
ATOM      3  O   UNL     1       6.418   5.728  20.033  0.00  0.00    +0.000 OA
ATOM      4  N   UNL     1       5.621   4.034  18.560  0.00  0.00    +0.000 N 
ATOM      5  CA  UNL     1       5.941   4.265  17.202  0.00  0.00    +0.000 C 
ATOM      6  C   UNL     1       4.993   4.225  16.224  0.00  0.00    +0.000 C 
ATOM      7  C   UNL     1       3.592   3.674  16.378  0.00  0.00    +0.000 C 
ATOM      8  S   UNL     1       3.242   2.800  17.878  0.00  0.00    +0.000 S 
ATOM      9  C   UNL     1       4.216   3.780  18.994  0.00  0.00    +0.000 C 
ENDROOT
BRANCH   1  12
ATOM     10  O   UNL     1       1.566   7.253  20.856  0.00  0.00    +0.000 OA
ATOM     11  C   UNL     1       2.289   6.956  19.899  0.00  0.00    +0.000 C 
ATOM     12  N   UNL     1       3.188   5.933  20.078  0.00  0.00    +0.000 N 
ATOM     13  H   UNL     1       3.005   5.442  20.948  0.00  0.00    +0.000 HD
BRANCH  11  14
ATOM     14  C   UNL     1       2.165   7.670  18.553  0.00  0.00    +0.000 C 
BRANCH  14  15
ATOM     15  O   UNL     1       2.250   9.083  18.735  0.00  0.00    +0.000 OA
BRANCH  15  16
ATOM     16  C   UNL     1       1.039   9.714  18.877  0.00  0.00    +0.000 A 
ATOM     17  C   UNL     1       0.127   9.497  17.843  0.00  0.00    +0.000 A 
ATOM     18  C   UNL     1      -1.122  10.122  17.857  0.00  0.00    +0.000 A 
ATOM     19  C   UNL     1      -1.477  10.947  18.924  0.00  0.00    +0.000 A 
ATOM     20  C   UNL     1      -0.587  11.137  19.978  0.00  0.00    +0.000 A 
ATOM     21  C   UNL     1       0.668  10.521  19.956  0.00  0.00    +0.000 A 
ENDBRANCH  15  16
ENDBRANCH  14  15
ENDBRANCH  11  14
ENDBRANCH   1  12
BRANCH   5  22
ATOM     22  C   UNL     1       7.408   4.688  17.024  0.00  0.00    +0.000 C 
ATOM     23  O   UNL     1       7.727   5.735  16.478  0.00  0.00    +0.000 OA
BRANCH  22  24
ATOM     24  OXT UNL     1       8.352   3.951  17.638  0.00  0.00    +0.000 OA
ATOM     25  HXT UNL     1       8.171   3.726  18.564  0.00  0.00    +0.000 HD
ENDBRANCH  22  24
ENDBRANCH   5  22
BRANCH   6  26
ATOM     26  C   UNL     1       5.117   4.832  14.847  0.00  0.00    +0.000 C 
BRANCH  26  27
ATOM     27  O   UNL     1       5.320   6.232  14.940  0.00  0.00    +0.000 OA
ATOM     28  H   UNL     1       4.451   6.673  14.979  0.00  0.00    +0.000 HD
ENDBRANCH  26  27
ENDBRANCH   6  26
TORSDOF 8
ENDMDL
MODEL 9
REMARK VINA RESULT:      -7.2      1.016      1.482
REMARK  Name = 
REMARK  8 active torsions:
REMARK  status: ('A' for Active; 'I' for Inactive)
REMARK    1  A    between atoms: C_2  and  C_3
REMARK    2  A    between atoms: C_3  and  O_4
REMARK    3  A    between atoms: O_4  and  C_5
REMARK    4  A    between atoms: N_11  and  CA_12
REMARK    5  A    between atoms: CA_16  and  C_17
REMARK    6  A    between atoms: C_17  and  OXT_19
REMARK    7  A    between atoms: C_20  and  C_21
REMARK    8  A    between atoms: C_21  and  O_22
REMARK                            x       y       z     vdW  Elec       q    Type
REMARK                         _______ _______ _______ _____ _____    ______ ____
ROOT
ATOM      1  CA  UNL     1       4.830   5.807  18.301  0.00  0.00    +0.000 C 
ATOM      2  C   UNL     1       5.295   5.085  19.627  0.00  0.00    +0.000 C 
ATOM      3  O   UNL     1       6.331   4.859  20.185  0.00  0.00    +0.000 OA
ATOM      4  N   UNL     1       3.959   4.883  19.965  0.00  0.00    +0.000 N 
ATOM      5  CA  UNL     1       3.418   3.654  19.519  0.00  0.00    +0.000 C 
ATOM      6  C   UNL     1       2.561   3.589  18.461  0.00  0.00    +0.000 C 
ATOM      7  C   UNL     1       1.863   4.768  17.819  0.00  0.00    +0.000 C 
ATOM      8  S   UNL     1       1.990   6.321  18.661  0.00  0.00    +0.000 S 
ATOM      9  C   UNL     1       3.653   6.165  19.266  0.00  0.00    +0.000 C 
ENDROOT
BRANCH   1  12
ATOM     10  O   UNL     1       7.227   7.782  16.432  0.00  0.00    +0.000 OA
ATOM     11  C   UNL     1       6.711   6.749  16.870  0.00  0.00    +0.000 C 
ATOM     12  N   UNL     1       5.667   6.887  17.752  0.00  0.00    +0.000 N 
ATOM     13  H   UNL     1       5.351   7.852  17.787  0.00  0.00    +0.000 HD
BRANCH  11  14
ATOM     14  C   UNL     1       7.186   5.367  16.422  0.00  0.00    +0.000 C 
BRANCH  14  15
ATOM     15  O   UNL     1       7.741   5.438  15.109  0.00  0.00    +0.000 OA
BRANCH  15  16
ATOM     16  C   UNL     1       7.022   4.770  14.149  0.00  0.00    +0.000 A 
ATOM     17  C   UNL     1       7.620   4.710  12.888  0.00  0.00    +0.000 A 
ATOM     18  C   UNL     1       6.962   4.095  11.822  0.00  0.00    +0.000 A 
ATOM     19  C   UNL     1       5.712   3.509  12.017  0.00  0.00    +0.000 A 
ATOM     20  C   UNL     1       5.128   3.530  13.281  0.00  0.00    +0.000 A 
ATOM     21  C   UNL     1       5.781   4.158  14.345  0.00  0.00    +0.000 A 
ENDBRANCH  15  16
ENDBRANCH  14  15
ENDBRANCH  11  14
ENDBRANCH   1  12
BRANCH   5  22
ATOM     22  C   UNL     1       4.020   2.456  20.271  0.00  0.00    +0.000 C 
ATOM     23  O   UNL     1       4.977   1.827  19.842  0.00  0.00    +0.000 OA
BRANCH  22  24
ATOM     24  OXT UNL     1       3.573   2.208  21.516  0.00  0.00    +0.000 OA
ATOM     25  HXT UNL     1       4.258   2.023  22.178  0.00  0.00    +0.000 HD
ENDBRANCH  22  24
ENDBRANCH   5  22
BRANCH   6  26
ATOM     26  C   UNL     1       2.244   2.351  17.656  0.00  0.00    +0.000 C 
BRANCH  26  27
ATOM     27  O   UNL     1       1.287   1.553  18.332  0.00  0.00    +0.000 OA
ATOM     28  H   UNL     1       1.131   1.934  19.217  0.00  0.00    +0.000 HD
ENDBRANCH  26  27
ENDBRANCH   6  26
TORSDOF 8
ENDMDL
