MODEL 1
REMARK VINA RESULT:      -7.4      0.000      0.000
REMARK  Name = 
REMARK  5 active torsions:
REMARK  status: ('A' for Active; 'I' for Inactive)
REMARK    1  A    between atoms: C_1  and  C_2
REMARK    2  A    between atoms: C_2  and  C_3
REMARK    3  A    between atoms: C_6  and  C_7
REMARK    4  A    between atoms: N_15  and  C_16
REMARK    5  A    between atoms: N_19  and  C_20
REMARK                            x       y       z     vdW  Elec       q    Type
REMARK                         _______ _______ _______ _____ _____    ______ ____
ROOT
ATOM      1  C   UNL     1       2.784   7.067  18.635  0.00  0.00    +0.000 A 
ATOM      2  C   UNL     1       2.255   6.641  19.850  0.00  0.00    +0.000 A 
ATOM      3  N   UNL     1       1.467   7.417  20.641  0.00  0.00    +0.000 NA
ATOM      4  C   UNL     1       1.206   8.667  20.186  0.00  0.00    +0.000 A 
ATOM      5  C   UNL     1       1.748   9.103  18.989  0.00  0.00    +0.000 A 
ATOM      6  N   UNL     1       2.543   8.327  18.199  0.00  0.00    +0.000 NA
ATOM      7  C   UNL     1       1.440  10.469  18.528  0.00  0.00    +0.000 A 
ATOM      8  O   UNL     1       1.934  10.894  17.485  0.00  0.00    +0.000 OA
ATOM      9  N   UNL     1       0.580  11.214  19.331  0.00  0.00    +0.000 N 
ATOM     10  C   UNL     1       0.224  12.553  18.899  0.00  0.00    +0.000 C 
ATOM     11  C   UNL     1       0.037  10.783  20.538  0.00  0.00    +0.000 A 
ATOM     12  O   UNL     1      -0.704  11.509  21.205  0.00  0.00    +0.000 OA
ATOM     13  N   UNL     1       0.372   9.508  20.947  0.00  0.00    +0.000 N 
ATOM     14  C   UNL     1      -0.158   8.972  22.192  0.00  0.00    +0.000 C 
ENDROOT
BRANCH   1  18
ATOM     15  C   UNL     1       5.185   4.529  16.112  0.00  0.00    +0.000 A 
ATOM     16  C   UNL     1       5.392   5.911  16.127  0.00  0.00    +0.000 A 
ATOM     17  C   UNL     1       4.606   6.738  16.935  0.00  0.00    +0.000 A 
ATOM     18  C   UNL     1       3.592   6.211  17.753  0.00  0.00    +0.000 A 
ATOM     19  C   UNL     1       3.398   4.819  17.728  0.00  0.00    +0.000 A 
ATOM     20  C   UNL     1       4.179   3.988  16.918  0.00  0.00    +0.000 A 
BRANCH  15  22
ATOM     21  C   UNL     1       6.045   4.016  13.823  0.00  0.00    +0.000 C 
ATOM     22  C   UNL     1       6.077   3.631  15.295  0.00  0.00    +0.000 C 
ENDBRANCH  15  22
ENDBRANCH   1  18
TORSDOF 2
ENDMDL
MODEL 2
REMARK VINA RESULT:      -7.3      0.118      1.032
REMARK  Name = 
REMARK  5 active torsions:
REMARK  status: ('A' for Active; 'I' for Inactive)
REMARK    1  A    between atoms: C_1  and  C_2
REMARK    2  A    between atoms: C_2  and  C_3
REMARK    3  A    between atoms: C_6  and  C_7
REMARK    4  A    between atoms: N_15  and  C_16
REMARK    5  A    between atoms: N_19  and  C_20
REMARK                            x       y       z     vdW  Elec       q    Type
REMARK                         _______ _______ _______ _____ _____    ______ ____
ROOT
ATOM      1  C   UNL     1       2.826   6.992  18.673  0.00  0.00    +0.000 A 
ATOM      2  C   UNL     1       2.274   6.574  19.881  0.00  0.00    +0.000 A 
ATOM      3  N   UNL     1       1.458   7.349  20.644  0.00  0.00    +0.000 NA
ATOM      4  C   UNL     1       1.194   8.591  20.168  0.00  0.00    +0.000 A 
ATOM      5  C   UNL     1       1.759   9.019  18.979  0.00  0.00    +0.000 A 
ATOM      6  N   UNL     1       2.582   8.244  18.217  0.00  0.00    +0.000 NA
ATOM      7  C   UNL     1       1.446  10.377  18.495  0.00  0.00    +0.000 A 
ATOM      8  O   UNL     1       1.960  10.795  17.459  0.00  0.00    +0.000 OA
ATOM      9  N   UNL     1       0.559  11.120  19.268  0.00  0.00    +0.000 N 
ATOM     10  C   UNL     1       0.198  12.450  18.812  0.00  0.00    +0.000 C 
ATOM     11  C   UNL     1      -0.008  10.697  20.467  0.00  0.00    +0.000 A 
ATOM     12  O   UNL     1      -0.773  11.422  21.107  0.00  0.00    +0.000 OA
ATOM     13  N   UNL     1       0.332   9.430  20.899  0.00  0.00    +0.000 N 
ATOM     14  C   UNL     1      -0.221   8.903  22.136  0.00  0.00    +0.000 C 
ENDROOT
BRANCH   1  18
ATOM     15  C   UNL     1       5.253   4.514  16.116  0.00  0.00    +0.000 A 
ATOM     16  C   UNL     1       4.239   3.948  16.894  0.00  0.00    +0.000 A 
ATOM     17  C   UNL     1       3.459   4.748  17.734  0.00  0.00    +0.000 A 
ATOM     18  C   UNL     1       3.666   6.136  17.821  0.00  0.00    +0.000 A 
ATOM     19  C   UNL     1       4.687   6.689  17.030  0.00  0.00    +0.000 A 
ATOM     20  C   UNL     1       5.473   5.892  16.192  0.00  0.00    +0.000 A 
BRANCH  15  22
ATOM     21  C   UNL     1       5.824   4.101  13.718  0.00  0.00    +0.000 C 
ATOM     22  C   UNL     1       6.047   3.663  15.159  0.00  0.00    +0.000 C 
ENDBRANCH  15  22
ENDBRANCH   1  18
TORSDOF 2
ENDMDL
MODEL 3
REMARK VINA RESULT:      -7.3      2.960      8.036
REMARK  Name = 
REMARK  5 active torsions:
REMARK  status: ('A' for Active; 'I' for Inactive)
REMARK    1  A    between atoms: C_1  and  C_2
REMARK    2  A    between atoms: C_2  and  C_3
REMARK    3  A    between atoms: C_6  and  C_7
REMARK    4  A    between atoms: N_15  and  C_16
REMARK    5  A    between atoms: N_19  and  C_20
REMARK                            x       y       z     vdW  Elec       q    Type
REMARK                         _______ _______ _______ _____ _____    ______ ____
ROOT
ATOM      1  C   UNL     1       1.547   8.313  20.015  0.00  0.00    +0.000 A 
ATOM      2  C   UNL     1       2.153   8.693  18.820  0.00  0.00    +0.000 A 
ATOM      3  N   UNL     1       2.941   7.868  18.081  0.00  0.00    +0.000 NA
ATOM      4  C   UNL     1       3.123   6.615  18.569  0.00  0.00    +0.000 A 
ATOM      5  C   UNL     1       2.540   6.241  19.767  0.00  0.00    +0.000 A 
ATOM      6  N   UNL     1       1.755   7.070  20.512  0.00  0.00    +0.000 NA
ATOM      7  C   UNL     1       2.761   4.870  20.264  0.00  0.00    +0.000 A 
ATOM      8  O   UNL     1       2.283   4.521  21.342  0.00  0.00    +0.000 OA
ATOM      9  N   UNL     1       3.521   4.033  19.452  0.00  0.00    +0.000 N 
ATOM     10  C   UNL     1       3.736   2.664  19.887  0.00  0.00    +0.000 C 
ATOM     11  C   UNL     1       4.113   4.405  18.249  0.00  0.00    +0.000 A 
ATOM     12  O   UNL     1       4.789   3.610  17.592  0.00  0.00    +0.000 OA
ATOM     13  N   UNL     1       3.904   5.705  17.833  0.00  0.00    +0.000 N 
ATOM     14  C   UNL     1       4.478   6.178  16.582  0.00  0.00    +0.000 C 
ENDROOT
BRANCH   1  18
ATOM     15  C   UNL     1      -1.025  10.930  22.276  0.00  0.00    +0.000 A 
ATOM     16  C   UNL     1      -0.437   9.817  22.884  0.00  0.00    +0.000 A 
ATOM     17  C   UNL     1       0.387   8.959  22.150  0.00  0.00    +0.000 A 
ATOM     18  C   UNL     1       0.652   9.188  20.788  0.00  0.00    +0.000 A 
ATOM     19  C   UNL     1       0.055  10.312  20.192  0.00  0.00    +0.000 A 
ATOM     20  C   UNL     1      -0.774  11.170  20.922  0.00  0.00    +0.000 A 
BRANCH  15  22
ATOM     21  C   UNL     1      -1.209  13.269  23.136  0.00  0.00    +0.000 C 
ATOM     22  C   UNL     1      -1.856  11.892  23.084  0.00  0.00    +0.000 C 
ENDBRANCH  15  22
ENDBRANCH   1  18
TORSDOF 2
ENDMDL
MODEL 4
REMARK VINA RESULT:      -7.3      2.992      8.009
REMARK  Name = 
REMARK  5 active torsions:
REMARK  status: ('A' for Active; 'I' for Inactive)
REMARK    1  A    between atoms: C_1  and  C_2
REMARK    2  A    between atoms: C_2  and  C_3
REMARK    3  A    between atoms: C_6  and  C_7
REMARK    4  A    between atoms: N_15  and  C_16
REMARK    5  A    between atoms: N_19  and  C_20
REMARK                            x       y       z     vdW  Elec       q    Type
REMARK                         _______ _______ _______ _____ _____    ______ ____
ROOT
ATOM      1  C   UNL     1       1.598   8.310  20.065  0.00  0.00    +0.000 A 
ATOM      2  C   UNL     1       2.201   8.655  18.859  0.00  0.00    +0.000 A 
ATOM      3  N   UNL     1       2.949   7.794  18.118  0.00  0.00    +0.000 NA
ATOM      4  C   UNL     1       3.091   6.541  18.616  0.00  0.00    +0.000 A 
ATOM      5  C   UNL     1       2.512   6.200  19.826  0.00  0.00    +0.000 A 
ATOM      6  N   UNL     1       1.767   7.065  20.573  0.00  0.00    +0.000 NA
ATOM      7  C   UNL     1       2.688   4.827  20.335  0.00  0.00    +0.000 A 
ATOM      8  O   UNL     1       2.212   4.506  21.422  0.00  0.00    +0.000 OA
ATOM      9  N   UNL     1       3.406   3.954  19.522  0.00  0.00    +0.000 N 
ATOM     10  C   UNL     1       3.577   2.583  19.968  0.00  0.00    +0.000 C 
ATOM     11  C   UNL     1       3.996   4.293  18.307  0.00  0.00    +0.000 A 
ATOM     12  O   UNL     1       4.634   3.467  17.650  0.00  0.00    +0.000 OA
ATOM     13  N   UNL     1       3.829   5.596  17.881  0.00  0.00    +0.000 N 
ATOM     14  C   UNL     1       4.403   6.034  16.618  0.00  0.00    +0.000 C 
ENDROOT
BRANCH   1  18
ATOM     15  C   UNL     1      -0.955  10.935  22.337  0.00  0.00    +0.000 A 
ATOM     16  C   UNL     1      -0.650  11.225  21.004  0.00  0.00    +0.000 A 
ATOM     17  C   UNL     1       0.189  10.382  20.269  0.00  0.00    +0.000 A 
ATOM     18  C   UNL     1       0.745   9.224  20.840  0.00  0.00    +0.000 A 
ATOM     19  C   UNL     1       0.426   8.946  22.181  0.00  0.00    +0.000 A 
ATOM     20  C   UNL     1      -0.408   9.789  22.921  0.00  0.00    +0.000 A 
BRANCH  15  22
ATOM     21  C   UNL     1      -1.414  13.242  23.181  0.00  0.00    +0.000 C 
ATOM     22  C   UNL     1      -1.913  11.806  23.108  0.00  0.00    +0.000 C 
ENDBRANCH  15  22
ENDBRANCH   1  18
TORSDOF 2
ENDMDL
MODEL 5
REMARK VINA RESULT:      -7.1      1.636      2.988
REMARK  Name = 
REMARK  5 active torsions:
REMARK  status: ('A' for Active; 'I' for Inactive)
REMARK    1  A    between atoms: C_1  and  C_2
REMARK    2  A    between atoms: C_2  and  C_3
REMARK    3  A    between atoms: C_6  and  C_7
REMARK    4  A    between atoms: N_15  and  C_16
REMARK    5  A    between atoms: N_19  and  C_20
REMARK                            x       y       z     vdW  Elec       q    Type
REMARK                         _______ _______ _______ _____ _____    ______ ____
ROOT
ATOM      1  C   UNL     1       2.098   8.495  18.545  0.00  0.00    +0.000 A 
ATOM      2  C   UNL     1       2.146   9.692  17.834  0.00  0.00    +0.000 A 
ATOM      3  N   UNL     1       1.555  10.841  18.255  0.00  0.00    +0.000 NA
ATOM      4  C   UNL     1       0.891  10.777  19.436  0.00  0.00    +0.000 A 
ATOM      5  C   UNL     1       0.821   9.584  20.135  0.00  0.00    +0.000 A 
ATOM      6  N   UNL     1       1.409   8.429  19.710  0.00  0.00    +0.000 NA
ATOM      7  C   UNL     1       0.090   9.555  21.415  0.00  0.00    +0.000 A 
ATOM      8  O   UNL     1      -0.016   8.502  22.041  0.00  0.00    +0.000 OA
ATOM      9  N   UNL     1      -0.450  10.763  21.847  0.00  0.00    +0.000 N 
ATOM     10  C   UNL     1      -1.150  10.788  23.118  0.00  0.00    +0.000 C 
ATOM     11  C   UNL     1      -0.387  11.965  21.146  0.00  0.00    +0.000 A 
ATOM     12  O   UNL     1      -0.907  12.993  21.586  0.00  0.00    +0.000 OA
ATOM     13  N   UNL     1       0.283  11.942  19.939  0.00  0.00    +0.000 N 
ATOM     14  C   UNL     1       0.405  13.154  19.144  0.00  0.00    +0.000 C 
ENDROOT
BRANCH   1  18
ATOM     15  C   UNL     1       4.087   4.910  17.219  0.00  0.00    +0.000 A 
ATOM     16  C   UNL     1       2.873   4.832  17.906  0.00  0.00    +0.000 A 
ATOM     17  C   UNL     1       2.232   5.992  18.349  0.00  0.00    +0.000 A 
ATOM     18  C   UNL     1       2.782   7.265  18.117  0.00  0.00    +0.000 A 
ATOM     19  C   UNL     1       4.002   7.327  17.422  0.00  0.00    +0.000 A 
ATOM     20  C   UNL     1       4.649   6.168  16.982  0.00  0.00    +0.000 A 
BRANCH  15  22
ATOM     21  C   UNL     1       5.745   3.999  15.586  0.00  0.00    +0.000 C 
ATOM     22  C   UNL     1       4.743   3.664  16.682  0.00  0.00    +0.000 C 
ENDBRANCH  15  22
ENDBRANCH   1  18
TORSDOF 2
ENDMDL
MODEL 6
REMARK VINA RESULT:      -7.0      1.677      2.850
REMARK  Name = 
REMARK  5 active torsions:
REMARK  status: ('A' for Active; 'I' for Inactive)
REMARK    1  A    between atoms: C_1  and  C_2
REMARK    2  A    between atoms: C_2  and  C_3
REMARK    3  A    between atoms: C_6  and  C_7
REMARK    4  A    between atoms: N_15  and  C_16
REMARK    5  A    between atoms: N_19  and  C_20
REMARK                            x       y       z     vdW  Elec       q    Type
REMARK                         _______ _______ _______ _____ _____    ______ ____
ROOT
ATOM      1  C   UNL     1       2.105   8.556  18.530  0.00  0.00    +0.000 A 
ATOM      2  C   UNL     1       2.208   9.779  17.874  0.00  0.00    +0.000 A 
ATOM      3  N   UNL     1       1.650  10.930  18.336  0.00  0.00    +0.000 NA
ATOM      4  C   UNL     1       0.963  10.838  19.502  0.00  0.00    +0.000 A 
ATOM      5  C   UNL     1       0.839   9.619  20.146  0.00  0.00    +0.000 A 
ATOM      6  N   UNL     1       1.393   8.464  19.680  0.00  0.00    +0.000 NA
ATOM      7  C   UNL     1       0.085   9.560  21.411  0.00  0.00    +0.000 A 
ATOM      8  O   UNL     1      -0.069   8.485  21.988  0.00  0.00    +0.000 OA
ATOM      9  N   UNL     1      -0.420  10.767  21.888  0.00  0.00    +0.000 N 
ATOM     10  C   UNL     1      -1.141  10.761  23.147  0.00  0.00    +0.000 C 
ATOM     11  C   UNL     1      -0.303  11.994  21.242  0.00  0.00    +0.000 A 
ATOM     12  O   UNL     1      -0.794  13.020  21.718  0.00  0.00    +0.000 OA
ATOM     13  N   UNL     1       0.387  12.001  20.046  0.00  0.00    +0.000 N 
ATOM     14  C   UNL     1       0.566  13.242  19.307  0.00  0.00    +0.000 C 
ENDROOT
BRANCH   1  18
ATOM     15  C   UNL     1       4.019   4.923  17.223  0.00  0.00    +0.000 A 
ATOM     16  C   UNL     1       4.599   6.165  16.951  0.00  0.00    +0.000 A 
ATOM     17  C   UNL     1       3.974   7.346  17.363  0.00  0.00    +0.000 A 
ATOM     18  C   UNL     1       2.753   7.322  18.060  0.00  0.00    +0.000 A 
ATOM     19  C   UNL     1       2.184   6.064  18.327  0.00  0.00    +0.000 A 
ATOM     20  C   UNL     1       2.804   4.881  17.912  0.00  0.00    +0.000 A 
BRANCH  15  22
ATOM     21  C   UNL     1       5.892   3.928  15.901  0.00  0.00    +0.000 C 
ATOM     22  C   UNL     1       4.727   3.649  16.840  0.00  0.00    +0.000 C 
ENDBRANCH  15  22
ENDBRANCH   1  18
TORSDOF 2
ENDMDL
MODEL 7
REMARK VINA RESULT:      -7.0      2.353      3.640
REMARK  Name = 
REMARK  5 active torsions:
REMARK  status: ('A' for Active; 'I' for Inactive)
REMARK    1  A    between atoms: C_1  and  C_2
REMARK    2  A    between atoms: C_2  and  C_3
REMARK    3  A    between atoms: C_6  and  C_7
REMARK    4  A    between atoms: N_15  and  C_16
REMARK    5  A    between atoms: N_19  and  C_20
REMARK                            x       y       z     vdW  Elec       q    Type
REMARK                         _______ _______ _______ _____ _____    ______ ____
ROOT
ATOM      1  C   UNL     1       1.830   7.796  19.654  0.00  0.00    +0.000 A 
ATOM      2  C   UNL     1       1.989   8.687  18.596  0.00  0.00    +0.000 A 
ATOM      3  N   UNL     1       1.476   9.946  18.590  0.00  0.00    +0.000 NA
ATOM      4  C   UNL     1       0.780  10.316  19.693  0.00  0.00    +0.000 A 
ATOM      5  C   UNL     1       0.601   9.426  20.738  0.00  0.00    +0.000 A 
ATOM      6  N   UNL     1       1.109   8.161  20.742  0.00  0.00    +0.000 NA
ATOM      7  C   UNL     1      -0.162   9.866  21.921  0.00  0.00    +0.000 A 
ATOM      8  O   UNL     1      -0.364   9.086  22.849  0.00  0.00    +0.000 OA
ATOM      9  N   UNL     1      -0.618  11.181  21.908  0.00  0.00    +0.000 N 
ATOM     10  C   UNL     1      -1.346  11.667  23.066  0.00  0.00    +0.000 C 
ATOM     11  C   UNL     1      -0.447  12.079  20.858  0.00  0.00    +0.000 A 
ATOM     12  O   UNL     1      -0.897  13.225  20.913  0.00  0.00    +0.000 OA
ATOM     13  N   UNL     1       0.250  11.618  19.759  0.00  0.00    +0.000 N 
ATOM     14  C   UNL     1       0.485  12.491  18.619  0.00  0.00    +0.000 C 
ENDROOT
BRANCH   1  18
ATOM     15  C   UNL     1       3.555   3.846  19.674  0.00  0.00    +0.000 A 
ATOM     16  C   UNL     1       2.508   4.165  20.543  0.00  0.00    +0.000 A 
ATOM     17  C   UNL     1       1.956   5.449  20.548  0.00  0.00    +0.000 A 
ATOM     18  C   UNL     1       2.429   6.452  19.684  0.00  0.00    +0.000 A 
ATOM     19  C   UNL     1       3.480   6.115  18.815  0.00  0.00    +0.000 A 
ATOM     20  C   UNL     1       4.039   4.833  18.810  0.00  0.00    +0.000 A 
BRANCH  15  22
ATOM     21  C   UNL     1       3.424   1.630  18.528  0.00  0.00    +0.000 C 
ATOM     22  C   UNL     1       4.103   2.444  19.620  0.00  0.00    +0.000 C 
ENDBRANCH  15  22
ENDBRANCH   1  18
TORSDOF 2
ENDMDL
MODEL 8
REMARK VINA RESULT:      -6.9      2.537      7.640
REMARK  Name = 
REMARK  5 active torsions:
REMARK  status: ('A' for Active; 'I' for Inactive)
REMARK    1  A    between atoms: C_1  and  C_2
REMARK    2  A    between atoms: C_2  and  C_3
REMARK    3  A    between atoms: C_6  and  C_7
REMARK    4  A    between atoms: N_15  and  C_16
REMARK    5  A    between atoms: N_19  and  C_20
REMARK                            x       y       z     vdW  Elec       q    Type
REMARK                         _______ _______ _______ _____ _____    ______ ____
ROOT
ATOM      1  C   UNL     1       1.221   7.855  20.631  0.00  0.00    +0.000 A 
ATOM      2  C   UNL     1       1.238   6.575  21.178  0.00  0.00    +0.000 A 
ATOM      3  N   UNL     1       1.942   5.540  20.648  0.00  0.00    +0.000 NA
ATOM      4  C   UNL     1       2.655   5.810  19.526  0.00  0.00    +0.000 A 
ATOM      5  C   UNL     1       2.624   7.076  18.967  0.00  0.00    +0.000 A 
ATOM      6  N   UNL     1       1.912   8.113  19.494  0.00  0.00    +0.000 NA
ATOM      7  C   UNL     1       3.412   7.331  17.747  0.00  0.00    +0.000 A 
ATOM      8  O   UNL     1       3.377   8.437  17.210  0.00  0.00    +0.000 OA
ATOM      9  N   UNL     1       4.171   6.267  17.267  0.00  0.00    +0.000 N 
ATOM     10  C   UNL     1       4.988   6.483  16.087  0.00  0.00    +0.000 C 
ATOM     11  C   UNL     1       4.202   4.991  17.822  0.00  0.00    +0.000 A 
ATOM     12  O   UNL     1       4.887   4.092  17.329  0.00  0.00    +0.000 OA
ATOM     13  N   UNL     1       3.428   4.787  18.948  0.00  0.00    +0.000 N 
ATOM     14  C   UNL     1       3.408   3.486  19.599  0.00  0.00    +0.000 C 
ENDROOT
BRANCH   1  18
ATOM     15  C   UNL     1      -0.823  11.217  22.390  0.00  0.00    +0.000 A 
ATOM     16  C   UNL     1      -0.553  10.076  23.151  0.00  0.00    +0.000 A 
ATOM     17  C   UNL     1       0.098   8.979  22.579  0.00  0.00    +0.000 A 
ATOM     18  C   UNL     1       0.502   8.989  21.233  0.00  0.00    +0.000 A 
ATOM     19  C   UNL     1       0.226  10.144  20.482  0.00  0.00    +0.000 A 
ATOM     20  C   UNL     1      -0.430  11.242  21.049  0.00  0.00    +0.000 A 
BRANCH  15  22
ATOM     21  C   UNL     1      -2.952  12.206  23.244  0.00  0.00    +0.000 C 
ATOM     22  C   UNL     1      -1.462  12.425  23.024  0.00  0.00    +0.000 C 
ENDBRANCH  15  22
ENDBRANCH   1  18
TORSDOF 2
ENDMDL
MODEL 9
REMARK VINA RESULT:      -6.9      2.689      7.573
REMARK  Name = 
REMARK  5 active torsions:
REMARK  status: ('A' for Active; 'I' for Inactive)
REMARK    1  A    between atoms: C_1  and  C_2
REMARK    2  A    between atoms: C_2  and  C_3
REMARK    3  A    between atoms: C_6  and  C_7
REMARK    4  A    between atoms: N_15  and  C_16
REMARK    5  A    between atoms: N_19  and  C_20
REMARK                            x       y       z     vdW  Elec       q    Type
REMARK                         _______ _______ _______ _____ _____    ______ ____
ROOT
ATOM      1  C   UNL     1       1.497   7.522  20.511  0.00  0.00    +0.000 A 
ATOM      2  C   UNL     1       1.369   6.257  21.078  0.00  0.00    +0.000 A 
ATOM      3  N   UNL     1       1.973   5.145  20.582  0.00  0.00    +0.000 NA
ATOM      4  C   UNL     1       2.733   5.319  19.472  0.00  0.00    +0.000 A 
ATOM      5  C   UNL     1       2.846   6.571  18.892  0.00  0.00    +0.000 A 
ATOM      6  N   UNL     1       2.235   7.685  19.386  0.00  0.00    +0.000 NA
ATOM      7  C   UNL     1       3.682   6.720  17.687  0.00  0.00    +0.000 A 
ATOM      8  O   UNL     1       3.774   7.813  17.132  0.00  0.00    +0.000 OA
ATOM      9  N   UNL     1       4.336   5.574  17.242  0.00  0.00    +0.000 N 
ATOM     10  C   UNL     1       5.196   5.682  16.077  0.00  0.00    +0.000 C 
ATOM     11  C   UNL     1       4.222   4.312  17.818  0.00  0.00    +0.000 A 
ATOM     12  O   UNL     1       4.820   3.338  17.355  0.00  0.00    +0.000 OA
ATOM     13  N   UNL     1       3.408   4.211  18.929  0.00  0.00    +0.000 N 
ATOM     14  C   UNL     1       3.238   2.931  19.601  0.00  0.00    +0.000 C 
ENDROOT
BRANCH   1  18
ATOM     15  C   UNL     1      -0.357  11.040  22.172  0.00  0.00    +0.000 A 
ATOM     16  C   UNL     1       0.123  11.046  20.859  0.00  0.00    +0.000 A 
ATOM     17  C   UNL     1       0.737   9.911  20.322  0.00  0.00    +0.000 A 
ATOM     18  C   UNL     1       0.887   8.735  21.077  0.00  0.00    +0.000 A 
ATOM     19  C   UNL     1       0.397   8.744  22.395  0.00  0.00    +0.000 A 
ATOM     20  C   UNL     1      -0.213   9.879  22.937  0.00  0.00    +0.000 A 
BRANCH  15  22
ATOM     21  C   UNL     1      -2.462  11.861  23.237  0.00  0.00    +0.000 C 
ATOM     22  C   UNL     1      -1.079  12.240  22.727  0.00  0.00    +0.000 C 
ENDBRANCH  15  22
ENDBRANCH   1  18
TORSDOF 2
ENDMDL
