MODEL 1
REMARK VINA RESULT:      -9.3      0.000      0.000
REMARK  Name = 
REMARK  1 active torsions:
REMARK  status: ('A' for Active; 'I' for Inactive)
REMARK    1  A    between atoms: N_1  and  C_2
REMARK                            x       y       z     vdW  Elec       q    Type
REMARK                         _______ _______ _______ _____ _____    ______ ____
ROOT
ATOM      1  C   UNL     1       3.674   2.177  18.534  0.00  0.00    +0.000 A 
ATOM      2  C   UNL     1       3.222   2.149  19.854  0.00  0.00    +0.000 A 
ATOM      3  C   UNL     1       2.837   3.330  20.506  0.00  0.00    +0.000 A 
ATOM      4 CL   UNL     1       2.320   3.323  22.134  0.00  0.00    +0.000 Cl
ATOM      5  C   UNL     1       2.863   4.587  19.870  0.00  0.00    +0.000 A 
ATOM      6  N   UNL     1       2.426   5.842  20.369  0.00  0.00    +0.000 NA
ATOM      7  C   UNL     1       2.559   6.793  19.459  0.00  0.00    +0.000 A 
ATOM      8  N   UNL     1       2.087   8.095  19.449  0.00  0.00    +0.000 N 
ATOM      9  C   UNL     1       1.996   8.543  18.048  0.00  0.00    +0.000 C 
ATOM     10  C   UNL     1       1.383   9.860  17.798  0.00  0.00    +0.000 C 
ATOM     11  C   UNL     1       0.190  10.007  18.594  0.00  0.00    +0.000 A 
ATOM     12  C   UNL     1       0.079   9.681  19.915  0.00  0.00    +0.000 A 
ATOM     13  N   UNL     1      -1.040  10.471  20.290  0.00  0.00    +0.000 N 
ATOM     14  C   UNL     1      -1.756  10.828  19.104  0.00  0.00    +0.000 A 
ATOM     15  C   UNL     1      -2.847  11.628  18.693  0.00  0.00    +0.000 A 
ATOM     16  C   UNL     1      -3.229  11.554  17.301  0.00  0.00    +0.000 A 
ATOM     17  C   UNL     1      -2.637  10.659  16.413  0.00  0.00    +0.000 A 
ATOM     18 CL   UNL     1      -3.082  10.507  14.761  0.00  0.00    +0.000 Cl
ATOM     19  C   UNL     1      -1.570   9.910  16.833  0.00  0.00    +0.000 A 
ATOM     20  C   UNL     1      -1.089  10.132  18.131  0.00  0.00    +0.000 A 
ATOM     21  C   UNL     1       1.157   8.736  20.512  0.00  0.00    +0.000 C 
ATOM     22  S   UNL     1       3.489   6.173  18.050  0.00  0.00    +0.000 S 
ATOM     23  C   UNL     1       3.347   4.573  18.568  0.00  0.00    +0.000 A 
ATOM     24  C   UNL     1       3.690   3.403  17.860  0.00  0.00    +0.000 A 
ATOM     25  H   UNL     1      -1.330  10.741  21.228  0.00  0.00    +0.000 HD
ENDROOT
BRANCH   1  26
ATOM     26  N   UNL     1       3.907   0.989  17.835  0.00  0.00    +0.000 N 
ATOM     27  H   UNL     1       4.887   0.780  17.670  0.00  0.00    +0.000 HD
ATOM     28  H   UNL     1       3.342   0.859  17.000  0.00  0.00    +0.000 HD
ENDBRANCH   1  26
TORSDOF 1
ENDMDL
MODEL 2
REMARK VINA RESULT:      -7.0      8.997      9.839
REMARK  Name = 
REMARK  1 active torsions:
REMARK  status: ('A' for Active; 'I' for Inactive)
REMARK    1  A    between atoms: N_1  and  C_2
REMARK                            x       y       z     vdW  Elec       q    Type
REMARK                         _______ _______ _______ _____ _____    ______ ____
ROOT
ATOM      1  C   UNL     1      11.469  13.209  17.026  0.00  0.00    +0.000 A 
ATOM      2  C   UNL     1      11.089  12.082  17.757  0.00  0.00    +0.000 A 
ATOM      3  C   UNL     1      10.105  12.170  18.752  0.00  0.00    +0.000 A 
ATOM      4 CL   UNL     1       9.655  10.811  19.685  0.00  0.00    +0.000 Cl
ATOM      5  C   UNL     1       9.438  13.374  19.051  0.00  0.00    +0.000 A 
ATOM      6  N   UNL     1       8.370  13.594  19.960  0.00  0.00    +0.000 NA
ATOM      7  C   UNL     1       7.965  14.853  19.930  0.00  0.00    +0.000 A 
ATOM      8  N   UNL     1       6.850  15.449  20.494  0.00  0.00    +0.000 N 
ATOM      9  C   UNL     1       6.546  16.674  19.734  0.00  0.00    +0.000 C 
ATOM     10  C   UNL     1       5.308  17.396  20.081  0.00  0.00    +0.000 C 
ATOM     11  C   UNL     1       4.223  16.461  20.248  0.00  0.00    +0.000 A 
ATOM     12  C   UNL     1       4.293  15.287  20.941  0.00  0.00    +0.000 A 
ATOM     13  N   UNL     1       2.918  15.061  21.217  0.00  0.00    +0.000 N 
ATOM     14  C   UNL     1       2.141  15.839  20.303  0.00  0.00    +0.000 A 
ATOM     15  C   UNL     1       0.797  16.187  20.042  0.00  0.00    +0.000 A 
ATOM     16  C   UNL     1       0.539  16.986  18.865  0.00  0.00    +0.000 A 
ATOM     17  C   UNL     1       1.542  17.314  17.955  0.00  0.00    +0.000 A 
ATOM     18 CL   UNL     1       1.279  18.228  16.525  0.00  0.00    +0.000 Cl
ATOM     19  C   UNL     1       2.838  16.981  18.242  0.00  0.00    +0.000 A 
ATOM     20  C   UNL     1       3.097  16.374  19.479  0.00  0.00    +0.000 A 
ATOM     21  C   UNL     1       5.706  14.718  21.243  0.00  0.00    +0.000 C 
ATOM     22  S   UNL     1       9.103  15.843  18.950  0.00  0.00    +0.000 S 
ATOM     23  C   UNL     1       9.865  14.476  18.321  0.00  0.00    +0.000 A 
ATOM     24  C   UNL     1      10.811  14.418  17.276  0.00  0.00    +0.000 A 
ATOM     25  H   UNL     1       2.514  14.442  21.919  0.00  0.00    +0.000 HD
ENDROOT
BRANCH   1  26
ATOM     26  N   UNL     1      12.332  13.093  15.934  0.00  0.00    +0.000 N 
ATOM     27  H   UNL     1      12.066  12.384  15.256  0.00  0.00    +0.000 HD
ATOM     28  H   UNL     1      13.321  13.048  16.165  0.00  0.00    +0.000 HD
ENDBRANCH   1  26
TORSDOF 1
ENDMDL
MODEL 3
REMARK VINA RESULT:      -6.9      5.109      8.642
REMARK  Name = 
REMARK  1 active torsions:
REMARK  status: ('A' for Active; 'I' for Inactive)
REMARK    1  A    between atoms: N_1  and  C_2
REMARK                            x       y       z     vdW  Elec       q    Type
REMARK                         _______ _______ _______ _____ _____    ______ ____
ROOT
ATOM      1  C   UNL     1       5.180  16.325  19.142  0.00  0.00    +0.000 A 
ATOM      2  C   UNL     1       5.024  16.282  20.529  0.00  0.00    +0.000 A 
ATOM      3  C   UNL     1       4.144  15.365  21.124  0.00  0.00    +0.000 A 
ATOM      4 CL   UNL     1       3.909  15.324  22.815  0.00  0.00    +0.000 Cl
ATOM      5  C   UNL     1       3.398  14.437  20.372  0.00  0.00    +0.000 A 
ATOM      6  N   UNL     1       2.544  13.403  20.837  0.00  0.00    +0.000 NA
ATOM      7  C   UNL     1       2.056  12.695  19.831  0.00  0.00    +0.000 A 
ATOM      8  N   UNL     1       1.354  11.501  19.833  0.00  0.00    +0.000 N 
ATOM      9  C   UNL     1       1.534  10.857  18.520  0.00  0.00    +0.000 C 
ATOM     10  C   UNL     1       0.982   9.500  18.352  0.00  0.00    +0.000 C 
ATOM     11  C   UNL     1       1.293   8.695  19.506  0.00  0.00    +0.000 A 
ATOM     12  C   UNL     1       1.164   9.096  20.805  0.00  0.00    +0.000 A 
ATOM     13  N   UNL     1       1.090   7.840  21.463  0.00  0.00    +0.000 N 
ATOM     14  C   UNL     1       1.626   6.841  20.591  0.00  0.00    +0.000 A 
ATOM     15  C   UNL     1       1.789   5.440  20.514  0.00  0.00    +0.000 A 
ATOM     16  C   UNL     1       2.524   4.923  19.381  0.00  0.00    +0.000 A 
ATOM     17  C   UNL     1       3.148   5.757  18.457  0.00  0.00    +0.000 A 
ATOM     18 CL   UNL     1       4.063   5.192  17.117  0.00  0.00    +0.000 Cl
ATOM     19  C   UNL     1       2.958   7.110  18.544  0.00  0.00    +0.000 A 
ATOM     20  C   UNL     1       2.086   7.584  19.535  0.00  0.00    +0.000 A 
ATOM     21  C   UNL     1       1.056  10.621  21.075  0.00  0.00    +0.000 C 
ATOM     22  S   UNL     1       2.452  13.491  18.267  0.00  0.00    +0.000 S 
ATOM     23  C   UNL     1       3.561  14.533  18.996  0.00  0.00    +0.000 A 
ATOM     24  C   UNL     1       4.475  15.401  18.363  0.00  0.00    +0.000 A 
ATOM     25  H   UNL     1       0.745   7.644  22.402  0.00  0.00    +0.000 HD
ENDROOT
BRANCH   1  26
ATOM     26  N   UNL     1       6.167  17.125  18.560  0.00  0.00    +0.000 N 
ATOM     27  H   UNL     1       6.007  17.352  17.583  0.00  0.00    +0.000 HD
ATOM     28  H   UNL     1       7.124  16.827  18.732  0.00  0.00    +0.000 HD
ENDBRANCH   1  26
TORSDOF 1
ENDMDL
MODEL 4
REMARK VINA RESULT:      -6.9      8.639     12.071
REMARK  Name = 
REMARK  1 active torsions:
REMARK  status: ('A' for Active; 'I' for Inactive)
REMARK    1  A    between atoms: N_1  and  C_2
REMARK                            x       y       z     vdW  Elec       q    Type
REMARK                         _______ _______ _______ _____ _____    ______ ____
ROOT
ATOM      1  C   UNL     1      -0.264  15.846  19.491  0.00  0.00    +0.000 A 
ATOM      2  C   UNL     1      -0.045  16.673  18.387  0.00  0.00    +0.000 A 
ATOM      3  C   UNL     1       1.243  17.141  18.086  0.00  0.00    +0.000 A 
ATOM      4 CL   UNL     1       1.525  18.186  16.764  0.00  0.00    +0.000 Cl
ATOM      5  C   UNL     1       2.372  16.792  18.851  0.00  0.00    +0.000 A 
ATOM      6  N   UNL     1       3.735  17.114  18.618  0.00  0.00    +0.000 NA
ATOM      7  C   UNL     1       4.521  16.561  19.527  0.00  0.00    +0.000 A 
ATOM      8  N   UNL     1       5.901  16.452  19.572  0.00  0.00    +0.000 N 
ATOM      9  C   UNL     1       6.247  15.309  20.434  0.00  0.00    +0.000 C 
ATOM     10  C   UNL     1       7.669  14.926  20.511  0.00  0.00    +0.000 C 
ATOM     11  C   UNL     1       8.252  14.932  19.193  0.00  0.00    +0.000 A 
ATOM     12  C   UNL     1       8.080  15.912  18.258  0.00  0.00    +0.000 A 
ATOM     13  N   UNL     1       9.215  15.694  17.433  0.00  0.00    +0.000 N 
ATOM     14  C   UNL     1       9.693  14.367  17.667  0.00  0.00    +0.000 A 
ATOM     15  C   UNL     1      10.768  13.521  17.312  0.00  0.00    +0.000 A 
ATOM     16  C   UNL     1      10.717  12.156  17.786  0.00  0.00    +0.000 A 
ATOM     17  C   UNL     1       9.614  11.647  18.469  0.00  0.00    +0.000 A 
ATOM     18 CL   UNL     1       9.491  10.024  19.019  0.00  0.00    +0.000 Cl
ATOM     19  C   UNL     1       8.596  12.493  18.816  0.00  0.00    +0.000 A 
ATOM     20  C   UNL     1       8.747  13.854  18.516  0.00  0.00    +0.000 A 
ATOM     21  C   UNL     1       6.886  16.886  18.454  0.00  0.00    +0.000 C 
ATOM     22  S   UNL     1       3.530  15.848  20.848  0.00  0.00    +0.000 S 
ATOM     23  C   UNL     1       2.106  15.992  19.955  0.00  0.00    +0.000 A 
ATOM     24  C   UNL     1       0.837  15.456  20.260  0.00  0.00    +0.000 A 
ATOM     25  H   UNL     1       9.633  16.336  16.761  0.00  0.00    +0.000 HD
ENDROOT
BRANCH   1  26
ATOM     26  N   UNL     1      -1.512  15.254  19.701  0.00  0.00    +0.000 N 
ATOM     27  H   UNL     1      -1.683  14.417  19.153  0.00  0.00    +0.000 HD
ATOM     28  H   UNL     1      -2.304  15.892  19.681  0.00  0.00    +0.000 HD
ENDBRANCH   1  26
TORSDOF 1
ENDMDL
MODEL 5
REMARK VINA RESULT:      -6.8      7.342      8.722
REMARK  Name = 
REMARK  1 active torsions:
REMARK  status: ('A' for Active; 'I' for Inactive)
REMARK    1  A    between atoms: N_1  and  C_2
REMARK                            x       y       z     vdW  Elec       q    Type
REMARK                         _______ _______ _______ _____ _____    ______ ____
ROOT
ATOM      1  C   UNL     1      10.895  12.799  18.154  0.00  0.00    +0.000 A 
ATOM      2  C   UNL     1      11.007  13.171  19.494  0.00  0.00    +0.000 A 
ATOM      3  C   UNL     1       9.953  13.826  20.148  0.00  0.00    +0.000 A 
ATOM      4 CL   UNL     1      10.086  14.326  21.776  0.00  0.00    +0.000 Cl
ATOM      5  C   UNL     1       8.734  14.121  19.507  0.00  0.00    +0.000 A 
ATOM      6  N   UNL     1       7.558  14.693  20.059  0.00  0.00    +0.000 NA
ATOM      7  C   UNL     1       6.591  14.767  19.159  0.00  0.00    +0.000 A 
ATOM      8  N   UNL     1       5.249  15.070  19.309  0.00  0.00    +0.000 N 
ATOM      9  C   UNL     1       4.513  14.483  18.176  0.00  0.00    +0.000 C 
ATOM     10  C   UNL     1       3.041  14.567  18.209  0.00  0.00    +0.000 C 
ATOM     11  C   UNL     1       2.558  14.235  19.526  0.00  0.00    +0.000 A 
ATOM     12  C   UNL     1       3.081  14.698  20.698  0.00  0.00    +0.000 A 
ATOM     13  N   UNL     1       1.980  14.506  21.574  0.00  0.00    +0.000 N 
ATOM     14  C   UNL     1       1.092  13.555  20.979  0.00  0.00    +0.000 A 
ATOM     15  C   UNL     1      -0.177  12.971  21.194  0.00  0.00    +0.000 A 
ATOM     16  C   UNL     1      -0.587  11.932  20.277  0.00  0.00    +0.000 A 
ATOM     17  C   UNL     1       0.260  11.436  19.288  0.00  0.00    +0.000 A 
ATOM     18 CL   UNL     1      -0.168  10.177  18.200  0.00  0.00    +0.000 Cl
ATOM     19  C   UNL     1       1.475  12.033  19.090  0.00  0.00    +0.000 A 
ATOM     20  C   UNL     1       1.781  13.163  19.861  0.00  0.00    +0.000 A 
ATOM     21  C   UNL     1       4.511  15.302  20.654  0.00  0.00    +0.000 C 
ATOM     22  S   UNL     1       7.235  14.364  17.529  0.00  0.00    +0.000 S 
ATOM     23  C   UNL     1       8.675  13.759  18.167  0.00  0.00    +0.000 A 
ATOM     24  C   UNL     1       9.690  13.050  17.491  0.00  0.00    +0.000 A 
ATOM     25  H   UNL     1       1.822  14.934  22.485  0.00  0.00    +0.000 HD
ENDROOT
BRANCH   1  26
ATOM     26  N   UNL     1      11.878  12.011  17.548  0.00  0.00    +0.000 N 
ATOM     27  H   UNL     1      12.831  12.311  17.726  0.00  0.00    +0.000 HD
ATOM     28  H   UNL     1      11.720  11.800  16.566  0.00  0.00    +0.000 HD
ENDBRANCH   1  26
TORSDOF 1
ENDMDL
MODEL 6
REMARK VINA RESULT:      -6.8      2.251      8.564
REMARK  Name = 
REMARK  1 active torsions:
REMARK  status: ('A' for Active; 'I' for Inactive)
REMARK    1  A    between atoms: N_1  and  C_2
REMARK                            x       y       z     vdW  Elec       q    Type
REMARK                         _______ _______ _______ _____ _____    ______ ____
ROOT
ATOM      1  C   UNL     1      -5.184  11.337  18.068  0.00  0.00    +0.000 A 
ATOM      2  C   UNL     1      -4.768  11.293  16.736  0.00  0.00    +0.000 A 
ATOM      3  C   UNL     1      -3.432  11.018  16.410  0.00  0.00    +0.000 A 
ATOM      4 CL   UNL     1      -2.894  11.000  14.788  0.00  0.00    +0.000 Cl
ATOM      5  C   UNL     1      -2.455  10.753  17.389  0.00  0.00    +0.000 A 
ATOM      6  N   UNL     1      -1.098  10.377  17.208  0.00  0.00    +0.000 NA
ATOM      7  C   UNL     1      -0.501  10.160  18.369  0.00  0.00    +0.000 A 
ATOM      8  N   UNL     1       0.733   9.599  18.650  0.00  0.00    +0.000 N 
ATOM      9  C   UNL     1       0.698   9.067  20.024  0.00  0.00    +0.000 C 
ATOM     10  C   UNL     1       1.870   8.300  20.482  0.00  0.00    +0.000 C 
ATOM     11  C   UNL     1       2.292   7.384  19.453  0.00  0.00    +0.000 A 
ATOM     12  C   UNL     1       2.421   7.689  18.129  0.00  0.00    +0.000 A 
ATOM     13  N   UNL     1       3.310   6.667  17.706  0.00  0.00    +0.000 N 
ATOM     14  C   UNL     1       3.271   5.609  18.668  0.00  0.00    +0.000 A 
ATOM     15  C   UNL     1       3.910   4.383  18.962  0.00  0.00    +0.000 A 
ATOM     16  C   UNL     1       3.390   3.619  20.073  0.00  0.00    +0.000 A 
ATOM     17  C   UNL     1       2.242   4.000  20.765  0.00  0.00    +0.000 A 
ATOM     18 CL   UNL     1       1.565   3.107  22.067  0.00  0.00    +0.000 Cl
ATOM     19  C   UNL     1       1.654   5.201  20.472  0.00  0.00    +0.000 A 
ATOM     20  C   UNL     1       2.281   6.019  19.522  0.00  0.00    +0.000 A 
ATOM     21  C   UNL     1       1.705   8.970  17.618  0.00  0.00    +0.000 C 
ATOM     22  S   UNL     1      -1.566  10.688  19.719  0.00  0.00    +0.000 S 
ATOM     23  C   UNL     1      -2.904  10.835  18.701  0.00  0.00    +0.000 A 
ATOM     24  C   UNL     1      -4.248  11.054  19.068  0.00  0.00    +0.000 A 
ATOM     25  H   UNL     1       3.879   6.641  16.860  0.00  0.00    +0.000 HD
ENDROOT
BRANCH   1  26
ATOM     26  N   UNL     1      -6.540  11.454  18.388  0.00  0.00    +0.000 N 
ATOM     27  H   UNL     1      -6.829  12.385  18.674  0.00  0.00    +0.000 HD
ATOM     28  H   UNL     1      -6.903  10.734  19.006  0.00  0.00    +0.000 HD
ENDBRANCH   1  26
TORSDOF 1
ENDMDL
MODEL 7
REMARK VINA RESULT:      -6.7      4.149      9.436
REMARK  Name = 
REMARK  1 active torsions:
REMARK  status: ('A' for Active; 'I' for Inactive)
REMARK    1  A    between atoms: N_1  and  C_2
REMARK                            x       y       z     vdW  Elec       q    Type
REMARK                         _______ _______ _______ _____ _____    ______ ____
ROOT
ATOM      1  C   UNL     1      -6.162  13.066  23.568  0.00  0.00    +0.000 A 
ATOM      2  C   UNL     1      -6.525  13.377  22.257  0.00  0.00    +0.000 A 
ATOM      3  C   UNL     1      -5.559  13.442  21.242  0.00  0.00    +0.000 A 
ATOM      4 CL   UNL     1      -5.976  13.861  19.639  0.00  0.00    +0.000 Cl
ATOM      5  C   UNL     1      -4.196  13.180  21.477  0.00  0.00    +0.000 A 
ATOM      6  N   UNL     1      -3.129  13.122  20.542  0.00  0.00    +0.000 NA
ATOM      7  C   UNL     1      -1.991  12.792  21.131  0.00  0.00    +0.000 A 
ATOM      8  N   UNL     1      -0.769  12.439  20.585  0.00  0.00    +0.000 N 
ATOM      9  C   UNL     1      -0.031  11.641  21.579  0.00  0.00    +0.000 C 
ATOM     10  C   UNL     1       1.246  11.041  21.152  0.00  0.00    +0.000 C 
ATOM     11  C   UNL     1       1.101  10.456  19.843  0.00  0.00    +0.000 A 
ATOM     12  C   UNL     1       0.481  11.044  18.779  0.00  0.00    +0.000 A 
ATOM     13  N   UNL     1       1.061  10.324  17.702  0.00  0.00    +0.000 N 
ATOM     14  C   UNL     1       1.605   9.105  18.215  0.00  0.00    +0.000 A 
ATOM     15  C   UNL     1       2.371   7.995  17.795  0.00  0.00    +0.000 A 
ATOM     16  C   UNL     1       2.574   6.933  18.754  0.00  0.00    +0.000 A 
ATOM     17  C   UNL     1       1.958   6.932  20.003  0.00  0.00    +0.000 A 
ATOM     18 CL   UNL     1       2.138   5.676  21.162  0.00  0.00    +0.000 Cl
ATOM     19  C   UNL     1       1.237   8.028  20.393  0.00  0.00    +0.000 A 
ATOM     20  C   UNL     1       1.207   9.131  19.527  0.00  0.00    +0.000 A 
ATOM     21  C   UNL     1      -0.469  12.237  19.076  0.00  0.00    +0.000 C 
ATOM     22  S   UNL     1      -2.193  12.814  22.918  0.00  0.00    +0.000 S 
ATOM     23  C   UNL     1      -3.874  12.902  22.800  0.00  0.00    +0.000 A 
ATOM     24  C   UNL     1      -4.821  12.773  23.837  0.00  0.00    +0.000 A 
ATOM     25  H   UNL     1       1.087  10.584  16.717  0.00  0.00    +0.000 HD
ENDROOT
BRANCH   1  26
ATOM     26  N   UNL     1      -7.137  12.848  24.545  0.00  0.00    +0.000 N 
ATOM     27  H   UNL     1      -7.555  13.692  24.924  0.00  0.00    +0.000 HD
ATOM     28  H   UNL     1      -6.880  12.188  25.275  0.00  0.00    +0.000 HD
ENDBRANCH   1  26
TORSDOF 1
ENDMDL
MODEL 8
REMARK VINA RESULT:      -6.6      6.586      8.929
REMARK  Name = 
REMARK  1 active torsions:
REMARK  status: ('A' for Active; 'I' for Inactive)
REMARK    1  A    between atoms: N_1  and  C_2
REMARK                            x       y       z     vdW  Elec       q    Type
REMARK                         _______ _______ _______ _____ _____    ______ ____
ROOT
ATOM      1  C   UNL     1       2.635  14.000  18.365  0.00  0.00    +0.000 A 
ATOM      2  C   UNL     1       2.311  12.649  18.229  0.00  0.00    +0.000 A 
ATOM      3  C   UNL     1       1.495  12.008  19.172  0.00  0.00    +0.000 A 
ATOM      4 CL   UNL     1       1.120  10.346  19.046  0.00  0.00    +0.000 Cl
ATOM      5  C   UNL     1       0.945  12.684  20.279  0.00  0.00    +0.000 A 
ATOM      6  N   UNL     1       0.041  12.194  21.257  0.00  0.00    +0.000 NA
ATOM      7  C   UNL     1      -0.297  13.142  22.116  0.00  0.00    +0.000 A 
ATOM      8  N   UNL     1      -1.280  13.158  23.091  0.00  0.00    +0.000 N 
ATOM      9  C   UNL     1      -1.631  14.561  23.371  0.00  0.00    +0.000 C 
ATOM     10  C   UNL     1      -2.762  14.807  24.284  0.00  0.00    +0.000 C 
ATOM     11  C   UNL     1      -3.857  13.927  23.959  0.00  0.00    +0.000 A 
ATOM     12  C   UNL     1      -3.745  12.592  23.699  0.00  0.00    +0.000 A 
ATOM     13  N   UNL     1      -5.072  12.159  23.960  0.00  0.00    +0.000 N 
ATOM     14  C   UNL     1      -5.937  13.297  23.905  0.00  0.00    +0.000 A 
ATOM     15  C   UNL     1      -7.285  13.650  24.138  0.00  0.00    +0.000 A 
ATOM     16  C   UNL     1      -7.675  15.006  23.824  0.00  0.00    +0.000 A 
ATOM     17  C   UNL     1      -6.806  15.907  23.212  0.00  0.00    +0.000 A 
ATOM     18 CL   UNL     1      -7.233  17.515  22.785  0.00  0.00    +0.000 Cl
ATOM     19  C   UNL     1      -5.500  15.546  23.015  0.00  0.00    +0.000 A 
ATOM     20  C   UNL     1      -5.089  14.296  23.500  0.00  0.00    +0.000 A 
ATOM     21  C   UNL     1      -2.335  12.049  23.341  0.00  0.00    +0.000 C 
ATOM     22  S   UNL     1       0.731  14.597  21.865  0.00  0.00    +0.000 S 
ATOM     23  C   UNL     1       1.315  14.018  20.392  0.00  0.00    +0.000 A 
ATOM     24  C   UNL     1       2.087  14.712  19.437  0.00  0.00    +0.000 A 
ATOM     25  H   UNL     1      -5.398  11.210  24.138  0.00  0.00    +0.000 HD
ENDROOT
BRANCH   1  26
ATOM     26  N   UNL     1       3.315  14.676  17.348  0.00  0.00    +0.000 N 
ATOM     27  H   UNL     1       2.717  15.099  16.646  0.00  0.00    +0.000 HD
ATOM     28  H   UNL     1       4.091  14.167  16.933  0.00  0.00    +0.000 HD
ENDBRANCH   1  26
TORSDOF 1
ENDMDL
MODEL 9
REMARK VINA RESULT:      -6.6      8.610     12.048
REMARK  Name = 
REMARK  1 active torsions:
REMARK  status: ('A' for Active; 'I' for Inactive)
REMARK    1  A    between atoms: N_1  and  C_2
REMARK                            x       y       z     vdW  Elec       q    Type
REMARK                         _______ _______ _______ _____ _____    ______ ____
ROOT
ATOM      1  C   UNL     1      -0.121  14.818  19.279  0.00  0.00    +0.000 A 
ATOM      2  C   UNL     1      -0.068  15.956  18.472  0.00  0.00    +0.000 A 
ATOM      3  C   UNL     1       1.107  16.717  18.381  0.00  0.00    +0.000 A 
ATOM      4 CL   UNL     1       1.180  18.135  17.432  0.00  0.00    +0.000 Cl
ATOM      5  C   UNL     1       2.287  16.370  19.067  0.00  0.00    +0.000 A 
ATOM      6  N   UNL     1       3.564  16.987  19.003  0.00  0.00    +0.000 NA
ATOM      7  C   UNL     1       4.446  16.345  19.751  0.00  0.00    +0.000 A 
ATOM      8  N   UNL     1       5.822  16.480  19.829  0.00  0.00    +0.000 N 
ATOM      9  C   UNL     1       6.382  15.217  20.341  0.00  0.00    +0.000 C 
ATOM     10  C   UNL     1       7.851  15.093  20.372  0.00  0.00    +0.000 C 
ATOM     11  C   UNL     1       8.414  15.589  19.141  0.00  0.00    +0.000 A 
ATOM     12  C   UNL     1       8.054  16.751  18.522  0.00  0.00    +0.000 A 
ATOM     13  N   UNL     1       9.204  16.992  17.724  0.00  0.00    +0.000 N 
ATOM     14  C   UNL     1       9.925  15.764  17.589  0.00  0.00    +0.000 A 
ATOM     15  C   UNL     1      11.136  15.268  17.057  0.00  0.00    +0.000 A 
ATOM     16  C   UNL     1      11.345  13.839  17.116  0.00  0.00    +0.000 A 
ATOM     17  C   UNL     1      10.362  12.962  17.568  0.00  0.00    +0.000 A 
ATOM     18 CL   UNL     1      10.549  11.255  17.621  0.00  0.00    +0.000 Cl
ATOM     19  C   UNL     1       9.206  13.470  18.095  0.00  0.00    +0.000 A 
ATOM     20  C   UNL     1       9.097  14.863  18.208  0.00  0.00    +0.000 A 
ATOM     21  C   UNL     1       6.700  17.391  18.932  0.00  0.00    +0.000 C 
ATOM     22  S   UNL     1       3.615  15.110  20.761  0.00  0.00    +0.000 S 
ATOM     23  C   UNL     1       2.183  15.248  19.880  0.00  0.00    +0.000 A 
ATOM     24  C   UNL     1       1.039  14.426  19.956  0.00  0.00    +0.000 A 
ATOM     25  H   UNL     1       9.491  17.867  17.287  0.00  0.00    +0.000 HD
ENDROOT
BRANCH   1  26
ATOM     26  N   UNL     1      -1.235  13.975  19.250  0.00  0.00    +0.000 N 
ATOM     27  H   UNL     1      -1.965  14.259  18.605  0.00  0.00    +0.000 HD
ATOM     28  H   UNL     1      -1.608  13.717  20.160  0.00  0.00    +0.000 HD
ENDBRANCH   1  26
TORSDOF 1
ENDMDL
