MODEL 1
REMARK VINA RESULT:      -7.7      0.000      0.000
REMARK  Name = 
REMARK  8 active torsions:
REMARK  status: ('A' for Active; 'I' for Inactive)
REMARK    1  A    between atoms: C_1  and  O_2
REMARK    2  A    between atoms: O_2  and  C_3
REMARK    3  A    between atoms: C_12  and  C_13
REMARK    4  A    between atoms: C_13  and  N_14
REMARK    5  A    between atoms: N_14  and  C_15
REMARK    6  A    between atoms: N_14  and  C_16
REMARK    7  A    between atoms: C_16  and  C_17
REMARK    8  A    between atoms: C_17  and  C_18
REMARK                            x       y       z     vdW  Elec       q    Type
REMARK                         _______ _______ _______ _____ _____    ______ ____
ROOT
ATOM      1  C   UNL     1       5.833   5.750  18.553  0.00  0.00    +0.000 C 
ENDROOT
BRANCH   1  11
ATOM      2  C   UNL     1       2.019   3.112  19.318  0.00  0.00    +0.000 A 
ATOM      3  C   UNL     1       2.450   1.935  18.701  0.00  0.00    +0.000 A 
ATOM      4  C   UNL     1       3.548   1.952  17.845  0.00  0.00    +0.000 A 
ATOM      5  C   UNL     1       4.204   3.151  17.571  0.00  0.00    +0.000 A 
ATOM      6  C   UNL     1       3.764   4.357  18.142  0.00  0.00    +0.000 A 
ATOM      7  C   UNL     1       2.671   4.333  19.043  0.00  0.00    +0.000 A 
ATOM      8  C   UNL     1       2.131   5.605  19.668  0.00  0.00    +0.000 C 
ATOM      9  C   UNL     1       3.005   6.830  19.430  0.00  0.00    +0.000 C 
ATOM     10  C   UNL     1       3.492   6.821  17.990  0.00  0.00    +0.000 C 
ATOM     11  C   UNL     1       4.481   5.668  17.773  0.00  0.00    +0.000 C 
BRANCH   2  13
ATOM     12  C   UNL     1       1.189   2.771  21.512  0.00  0.00    +0.000 C 
ATOM     13  O   UNL     1       0.944   3.174  20.169  0.00  0.00    +0.000 OA
ENDBRANCH   2  13
ENDBRANCH   1  11
BRANCH   1  14
ATOM     14  N   UNL     1       7.124   5.908  17.828  0.00  0.00    +0.000 NA
ATOM     15  C   UNL     1       6.955   6.130  16.391  0.00  0.00    +0.000 C 
BRANCH  14  16
ATOM     16  C   UNL     1       7.909   7.044  18.390  0.00  0.00    +0.000 C 
BRANCH  16  17
ATOM     17  C   UNL     1       7.757   8.338  17.576  0.00  0.00    +0.000 C 
BRANCH  17  18
ATOM     18  C   UNL     1       8.452   9.554  18.145  0.00  0.00    +0.000 A 
ATOM     19  C   UNL     1       9.140   9.507  19.378  0.00  0.00    +0.000 A 
ATOM     20  C   UNL     1       9.656  10.666  19.961  0.00  0.00    +0.000 A 
ATOM     21  C   UNL     1       9.460  11.867  19.305  0.00  0.00    +0.000 A 
ATOM     22  C   UNL     1       8.811  11.913  18.087  0.00  0.00    +0.000 A 
ATOM     23  C   UNL     1       8.318  10.782  17.481  0.00  0.00    +0.000 A 
ATOM     24  O   UNL     1       8.700  13.177  17.566  0.00  0.00    +0.000 OA
ATOM     25  C   UNL     1       9.016  14.025  18.694  0.00  0.00    +0.000 C 
ATOM     26  C   UNL     1       9.875  13.235  19.685  0.00  0.00    +0.000 C 
ENDBRANCH  17  18
ENDBRANCH  16  17
ENDBRANCH  14  16
ENDBRANCH   1  14
TORSDOF 6
ENDMDL
MODEL 2
REMARK VINA RESULT:      -7.7      0.963      1.433
REMARK  Name = 
REMARK  8 active torsions:
REMARK  status: ('A' for Active; 'I' for Inactive)
REMARK    1  A    between atoms: C_1  and  O_2
REMARK    2  A    between atoms: O_2  and  C_3
REMARK    3  A    between atoms: C_12  and  C_13
REMARK    4  A    between atoms: C_13  and  N_14
REMARK    5  A    between atoms: N_14  and  C_15
REMARK    6  A    between atoms: N_14  and  C_16
REMARK    7  A    between atoms: C_16  and  C_17
REMARK    8  A    between atoms: C_17  and  C_18
REMARK                            x       y       z     vdW  Elec       q    Type
REMARK                         _______ _______ _______ _____ _____    ______ ____
ROOT
ATOM      1  C   UNL     1       5.353   6.206  18.401  0.00  0.00    +0.000 C 
ENDROOT
BRANCH   1  11
ATOM      2  C   UNL     1       2.018   3.078  19.486  0.00  0.00    +0.000 A 
ATOM      3  C   UNL     1       2.533   1.974  18.801  0.00  0.00    +0.000 A 
ATOM      4  C   UNL     1       3.525   2.145  17.839  0.00  0.00    +0.000 A 
ATOM      5  C   UNL     1       3.987   3.423  17.528  0.00  0.00    +0.000 A 
ATOM      6  C   UNL     1       3.454   4.554  18.169  0.00  0.00    +0.000 A 
ATOM      7  C   UNL     1       2.472   4.377  19.174  0.00  0.00    +0.000 A 
ATOM      8  C   UNL     1       1.838   5.560  19.880  0.00  0.00    +0.000 C 
ATOM      9  C   UNL     1       2.514   6.893  19.584  0.00  0.00    +0.000 C 
ATOM     10  C   UNL     1       2.847   6.962  18.101  0.00  0.00    +0.000 C 
ATOM     11  C   UNL     1       3.951   5.952  17.760  0.00  0.00    +0.000 C 
BRANCH   2  13
ATOM     12  C   UNL     1       1.453   2.512  21.717  0.00  0.00    +0.000 C 
ATOM     13  O   UNL     1       1.037   2.988  20.442  0.00  0.00    +0.000 OA
ENDBRANCH   2  13
ENDBRANCH   1  11
BRANCH   1  14
ATOM     14  N   UNL     1       6.562   6.380  17.548  0.00  0.00    +0.000 NA
ATOM     15  C   UNL     1       6.385   5.875  16.186  0.00  0.00    +0.000 C 
BRANCH  14  16
ATOM     16  C   UNL     1       6.949   7.817  17.470  0.00  0.00    +0.000 C 
BRANCH  16  17
ATOM     17  C   UNL     1       8.295   8.113  18.150  0.00  0.00    +0.000 C 
BRANCH  17  18
ATOM     18  C   UNL     1       8.584   9.573  18.418  0.00  0.00    +0.000 A 
ATOM     19  C   UNL     1       8.163  10.590  17.531  0.00  0.00    +0.000 A 
ATOM     20  C   UNL     1       8.557  11.917  17.716  0.00  0.00    +0.000 A 
ATOM     21  C   UNL     1       9.386  12.207  18.784  0.00  0.00    +0.000 A 
ATOM     22  C   UNL     1       9.777  11.221  19.668  0.00  0.00    +0.000 A 
ATOM     23  C   UNL     1       9.381   9.912  19.522  0.00  0.00    +0.000 A 
ATOM     24  O   UNL     1      10.594  11.671  20.673  0.00  0.00    +0.000 OA
ATOM     25  C   UNL     1      11.009  12.972  20.199  0.00  0.00    +0.000 C 
ATOM     26  C   UNL     1       9.965  13.499  19.211  0.00  0.00    +0.000 C 
ENDBRANCH  17  18
ENDBRANCH  16  17
ENDBRANCH  14  16
ENDBRANCH   1  14
TORSDOF 6
ENDMDL
MODEL 3
REMARK VINA RESULT:      -7.6      5.946      8.646
REMARK  Name = 
REMARK  8 active torsions:
REMARK  status: ('A' for Active; 'I' for Inactive)
REMARK    1  A    between atoms: C_1  and  O_2
REMARK    2  A    between atoms: O_2  and  C_3
REMARK    3  A    between atoms: C_12  and  C_13
REMARK    4  A    between atoms: C_13  and  N_14
REMARK    5  A    between atoms: N_14  and  C_15
REMARK    6  A    between atoms: N_14  and  C_16
REMARK    7  A    between atoms: C_16  and  C_17
REMARK    8  A    between atoms: C_17  and  C_18
REMARK                            x       y       z     vdW  Elec       q    Type
REMARK                         _______ _______ _______ _____ _____    ______ ____
ROOT
ATOM      1  C   UNL     1      -0.202   9.489  19.789  0.00  0.00    +0.000 C 
ENDROOT
BRANCH   1  11
ATOM      2  C   UNL     1      -4.033  11.477  17.929  0.00  0.00    +0.000 A 
ATOM      3  C   UNL     1      -4.134  10.699  16.772  0.00  0.00    +0.000 A 
ATOM      4  C   UNL     1      -3.057   9.921  16.353  0.00  0.00    +0.000 A 
ATOM      5  C   UNL     1      -1.859   9.942  17.064  0.00  0.00    +0.000 A 
ATOM      6  C   UNL     1      -1.715  10.750  18.205  0.00  0.00    +0.000 A 
ATOM      7  C   UNL     1      -2.823  11.511  18.653  0.00  0.00    +0.000 A 
ATOM      8  C   UNL     1      -2.720  12.425  19.859  0.00  0.00    +0.000 C 
ATOM      9  C   UNL     1      -1.430  12.261  20.652  0.00  0.00    +0.000 C 
ATOM     10  C   UNL     1      -0.266  12.121  19.684  0.00  0.00    +0.000 C 
ATOM     11  C   UNL     1      -0.360  10.787  18.932  0.00  0.00    +0.000 C 
BRANCH   2  13
ATOM     12  C   UNL     1      -6.009  12.690  17.439  0.00  0.00    +0.000 C 
ATOM     13  O   UNL     1      -5.049  12.271  18.401  0.00  0.00    +0.000 OA
ENDBRANCH   2  13
ENDBRANCH   1  11
BRANCH   1  14
ATOM     14  N   UNL     1       1.032   9.246  20.586  0.00  0.00    +0.000 NA
ATOM     15  C   UNL     1       0.764   8.996  22.003  0.00  0.00    +0.000 C 
BRANCH  14  16
ATOM     16  C   UNL     1       1.792   8.086  20.040  0.00  0.00    +0.000 C 
BRANCH  16  17
ATOM     17  C   UNL     1       2.152   8.251  18.556  0.00  0.00    +0.000 C 
BRANCH  17  18
ATOM     18  C   UNL     1       2.883   7.086  17.927  0.00  0.00    +0.000 A 
ATOM     19  C   UNL     1       2.483   5.749  18.150  0.00  0.00    +0.000 A 
ATOM     20  C   UNL     1       3.246   4.679  17.681  0.00  0.00    +0.000 A 
ATOM     21  C   UNL     1       4.418   4.963  17.004  0.00  0.00    +0.000 A 
ATOM     22  C   UNL     1       4.799   6.268  16.760  0.00  0.00    +0.000 A 
ATOM     23  C   UNL     1       4.050   7.338  17.189  0.00  0.00    +0.000 A 
ATOM     24  O   UNL     1       5.981   6.381  16.075  0.00  0.00    +0.000 OA
ATOM     25  C   UNL     1       6.548   5.055  16.180  0.00  0.00    +0.000 C 
ATOM     26  C   UNL     1       5.419   4.048  16.415  0.00  0.00    +0.000 C 
ENDBRANCH  17  18
ENDBRANCH  16  17
ENDBRANCH  14  16
ENDBRANCH   1  14
TORSDOF 6
ENDMDL
MODEL 4
REMARK VINA RESULT:      -7.6      5.832      9.555
REMARK  Name = 
REMARK  8 active torsions:
REMARK  status: ('A' for Active; 'I' for Inactive)
REMARK    1  A    between atoms: C_1  and  O_2
REMARK    2  A    between atoms: O_2  and  C_3
REMARK    3  A    between atoms: C_12  and  C_13
REMARK    4  A    between atoms: C_13  and  N_14
REMARK    5  A    between atoms: N_14  and  C_15
REMARK    6  A    between atoms: N_14  and  C_16
REMARK    7  A    between atoms: C_16  and  C_17
REMARK    8  A    between atoms: C_17  and  C_18
REMARK                            x       y       z     vdW  Elec       q    Type
REMARK                         _______ _______ _______ _____ _____    ______ ____
ROOT
ATOM      1  C   UNL     1      -0.345   9.635  20.140  0.00  0.00    +0.000 C 
ENDROOT
BRANCH   1  11
ATOM      2  C   UNL     1      -3.924  11.350  17.623  0.00  0.00    +0.000 A 
ATOM      3  C   UNL     1      -3.794  10.540  16.492  0.00  0.00    +0.000 A 
ATOM      4  C   UNL     1      -2.624   9.817  16.277  0.00  0.00    +0.000 A 
ATOM      5  C   UNL     1      -1.560   9.924  17.171  0.00  0.00    +0.000 A 
ATOM      6  C   UNL     1      -1.647  10.767  18.292  0.00  0.00    +0.000 A 
ATOM      7  C   UNL     1      -2.852  11.472  18.531  0.00  0.00    +0.000 A 
ATOM      8  C   UNL     1      -2.996  12.419  19.707  0.00  0.00    +0.000 C 
ATOM      9  C   UNL     1      -1.844  12.349  20.702  0.00  0.00    +0.000 C 
ATOM     10  C   UNL     1      -0.533  12.255  19.939  0.00  0.00    +0.000 C 
ATOM     11  C   UNL     1      -0.431  10.900  19.226  0.00  0.00    +0.000 C 
BRANCH   2  13
ATOM     12  C   UNL     1      -6.256  11.363  18.049  0.00  0.00    +0.000 C 
ATOM     13  O   UNL     1      -5.044  12.094  17.899  0.00  0.00    +0.000 OA
ENDBRANCH   2  13
ENDBRANCH   1  11
BRANCH   1  14
ATOM     14  N   UNL     1       0.690   9.531  21.205  0.00  0.00    +0.000 NA
ATOM     15  C   UNL     1       0.207   9.947  22.522  0.00  0.00    +0.000 C 
BRANCH  14  16
ATOM     16  C   UNL     1       1.198   8.133  21.311  0.00  0.00    +0.000 C 
BRANCH  16  17
ATOM     17  C   UNL     1       1.962   7.677  20.059  0.00  0.00    +0.000 C 
BRANCH  17  18
ATOM     18  C   UNL     1       1.877   6.200  19.743  0.00  0.00    +0.000 A 
ATOM     19  C   UNL     1       1.361   5.270  20.673  0.00  0.00    +0.000 A 
ATOM     20  C   UNL     1       1.417   3.897  20.427  0.00  0.00    +0.000 A 
ATOM     21  C   UNL     1       2.008   3.470  19.251  0.00  0.00    +0.000 A 
ATOM     22  C   UNL     1       2.489   4.378  18.328  0.00  0.00    +0.000 A 
ATOM     23  C   UNL     1       2.421   5.735  18.537  0.00  0.00    +0.000 A 
ATOM     24  O   UNL     1       3.040   3.796  17.215  0.00  0.00    +0.000 OA
ATOM     25  C   UNL     1       3.211   2.418  17.618  0.00  0.00    +0.000 C 
ATOM     26  C   UNL     1       2.218   2.099  18.739  0.00  0.00    +0.000 C 
ENDBRANCH  17  18
ENDBRANCH  16  17
ENDBRANCH  14  16
ENDBRANCH   1  14
TORSDOF 6
ENDMDL
MODEL 5
REMARK VINA RESULT:      -7.5      3.911      7.386
REMARK  Name = 
REMARK  8 active torsions:
REMARK  status: ('A' for Active; 'I' for Inactive)
REMARK    1  A    between atoms: C_1  and  O_2
REMARK    2  A    between atoms: O_2  and  C_3
REMARK    3  A    between atoms: C_12  and  C_13
REMARK    4  A    between atoms: C_13  and  N_14
REMARK    5  A    between atoms: N_14  and  C_15
REMARK    6  A    between atoms: N_14  and  C_16
REMARK    7  A    between atoms: C_16  and  C_17
REMARK    8  A    between atoms: C_17  and  C_18
REMARK                            x       y       z     vdW  Elec       q    Type
REMARK                         _______ _______ _______ _____ _____    ______ ____
ROOT
ATOM      1  C   UNL     1       6.971   4.994  16.090  0.00  0.00    +0.000 C 
ENDROOT
BRANCH   1  11
ATOM      2  C   UNL     1       3.553   6.478  18.954  0.00  0.00    +0.000 A 
ATOM      3  C   UNL     1       2.784   7.178  18.019  0.00  0.00    +0.000 A 
ATOM      4  C   UNL     1       3.320   7.513  16.778  0.00  0.00    +0.000 A 
ATOM      5  C   UNL     1       4.639   7.183  16.473  0.00  0.00    +0.000 A 
ATOM      6  C   UNL     1       5.449   6.519  17.411  0.00  0.00    +0.000 A 
ATOM      7  C   UNL     1       4.891   6.145  18.659  0.00  0.00    +0.000 A 
ATOM      8  C   UNL     1       5.722   5.454  19.723  0.00  0.00    +0.000 C 
ATOM      9  C   UNL     1       7.095   5.003  19.240  0.00  0.00    +0.000 C 
ATOM     10  C   UNL     1       7.700   6.094  18.371  0.00  0.00    +0.000 C 
ATOM     11  C   UNL     1       6.916   6.220  17.058  0.00  0.00    +0.000 C 
BRANCH   2  13
ATOM     12  C   UNL     1       1.863   6.705  20.600  0.00  0.00    +0.000 C 
ATOM     13  O   UNL     1       3.095   6.118  20.197  0.00  0.00    +0.000 OA
ENDBRANCH   2  13
ENDBRANCH   1  11
BRANCH   1  14
ATOM     14  N   UNL     1       6.038   4.891  14.934  0.00  0.00    +0.000 NA
ATOM     15  C   UNL     1       6.701   4.488  13.693  0.00  0.00    +0.000 C 
BRANCH  14  16
ATOM     16  C   UNL     1       4.947   3.918  15.222  0.00  0.00    +0.000 C 
BRANCH  16  17
ATOM     17  C   UNL     1       5.151   3.162  16.543  0.00  0.00    +0.000 C 
BRANCH  17  18
ATOM     18  C   UNL     1       3.939   3.078  17.443  0.00  0.00    +0.000 A 
ATOM     19  C   UNL     1       2.668   3.533  17.023  0.00  0.00    +0.000 A 
ATOM     20  C   UNL     1       1.590   3.580  17.908  0.00  0.00    +0.000 A 
ATOM     21  C   UNL     1       1.804   3.185  19.216  0.00  0.00    +0.000 A 
ATOM     22  C   UNL     1       3.037   2.715  19.623  0.00  0.00    +0.000 A 
ATOM     23  C   UNL     1       4.106   2.634  18.763  0.00  0.00    +0.000 A 
ATOM     24  O   UNL     1       3.084   2.360  20.947  0.00  0.00    +0.000 OA
ATOM     25  C   UNL     1       1.883   2.956  21.489  0.00  0.00    +0.000 C 
ATOM     26  C   UNL     1       0.867   3.143  20.359  0.00  0.00    +0.000 C 
ENDBRANCH  17  18
ENDBRANCH  16  17
ENDBRANCH  14  16
ENDBRANCH   1  14
TORSDOF 6
ENDMDL
MODEL 6
REMARK VINA RESULT:      -7.4      6.022      9.835
REMARK  Name = 
REMARK  8 active torsions:
REMARK  status: ('A' for Active; 'I' for Inactive)
REMARK    1  A    between atoms: C_1  and  O_2
REMARK    2  A    between atoms: O_2  and  C_3
REMARK    3  A    between atoms: C_12  and  C_13
REMARK    4  A    between atoms: C_13  and  N_14
REMARK    5  A    between atoms: N_14  and  C_15
REMARK    6  A    between atoms: N_14  and  C_16
REMARK    7  A    between atoms: C_16  and  C_17
REMARK    8  A    between atoms: C_17  and  C_18
REMARK                            x       y       z     vdW  Elec       q    Type
REMARK                         _______ _______ _______ _____ _____    ______ ____
ROOT
ATOM      1  C   UNL     1      -0.463  10.460  20.892  0.00  0.00    +0.000 C 
ENDROOT
BRANCH   1  11
ATOM      2  C   UNL     1      -4.101  11.454  18.088  0.00  0.00    +0.000 A 
ATOM      3  C   UNL     1      -3.805  10.579  17.040  0.00  0.00    +0.000 A 
ATOM      4  C   UNL     1      -2.539  10.008  16.938  0.00  0.00    +0.000 A 
ATOM      5  C   UNL     1      -1.547  10.334  17.862  0.00  0.00    +0.000 A 
ATOM      6  C   UNL     1      -1.805  11.246  18.899  0.00  0.00    +0.000 A 
ATOM      7  C   UNL     1      -3.104  11.797  19.024  0.00  0.00    +0.000 A 
ATOM      8  C   UNL     1      -3.435  12.809  20.105  0.00  0.00    +0.000 C 
ATOM      9  C   UNL     1      -2.338  12.980  21.149  0.00  0.00    +0.000 C 
ATOM     10  C   UNL     1      -0.987  13.004  20.452  0.00  0.00    +0.000 C 
ATOM     11  C   UNL     1      -0.669  11.621  19.867  0.00  0.00    +0.000 C 
BRANCH   2  13
ATOM     12  C   UNL     1      -5.939  12.547  17.065  0.00  0.00    +0.000 C 
ATOM     13  O   UNL     1      -5.323  12.058  18.251  0.00  0.00    +0.000 OA
ENDBRANCH   2  13
ENDBRANCH   1  11
BRANCH   1  14
ATOM     14  N   UNL     1       0.897   9.922  21.174  0.00  0.00    +0.000 NA
ATOM     15  C   UNL     1       1.053   9.439  22.547  0.00  0.00    +0.000 C 
BRANCH  14  16
ATOM     16  C   UNL     1       1.225   8.805  20.244  0.00  0.00    +0.000 C 
BRANCH  16  17
ATOM     17  C   UNL     1       1.673   7.529  20.973  0.00  0.00    +0.000 C 
BRANCH  17  18
ATOM     18  C   UNL     1       1.972   6.341  20.087  0.00  0.00    +0.000 A 
ATOM     19  C   UNL     1       2.499   6.497  18.785  0.00  0.00    +0.000 A 
ATOM     20  C   UNL     1       2.638   5.405  17.927  0.00  0.00    +0.000 A 
ATOM     21  C   UNL     1       2.229   4.164  18.381  0.00  0.00    +0.000 A 
ATOM     22  C   UNL     1       1.738   4.003  19.661  0.00  0.00    +0.000 A 
ATOM     23  C   UNL     1       1.616   5.059  20.533  0.00  0.00    +0.000 A 
ATOM     24  O   UNL     1       1.379   2.713  19.958  0.00  0.00    +0.000 OA
ATOM     25  C   UNL     1       1.339   2.078  18.660  0.00  0.00    +0.000 C 
ATOM     26  C   UNL     1       2.243   2.853  17.698  0.00  0.00    +0.000 C 
ENDBRANCH  17  18
ENDBRANCH  16  17
ENDBRANCH  14  16
ENDBRANCH   1  14
TORSDOF 6
ENDMDL
MODEL 7
REMARK VINA RESULT:      -7.4      5.916      9.206
REMARK  Name = 
REMARK  8 active torsions:
REMARK  status: ('A' for Active; 'I' for Inactive)
REMARK    1  A    between atoms: C_1  and  O_2
REMARK    2  A    between atoms: O_2  and  C_3
REMARK    3  A    between atoms: C_12  and  C_13
REMARK    4  A    between atoms: C_13  and  N_14
REMARK    5  A    between atoms: N_14  and  C_15
REMARK    6  A    between atoms: N_14  and  C_16
REMARK    7  A    between atoms: C_16  and  C_17
REMARK    8  A    between atoms: C_17  and  C_18
REMARK                            x       y       z     vdW  Elec       q    Type
REMARK                         _______ _______ _______ _____ _____    ______ ____
ROOT
ATOM      1  C   UNL     1      -0.495   9.869  20.310  0.00  0.00    +0.000 C 
ENDROOT
BRANCH   1  11
ATOM      2  C   UNL     1      -4.072  11.427  17.689  0.00  0.00    +0.000 A 
ATOM      3  C   UNL     1      -3.873  10.624  16.563  0.00  0.00    +0.000 A 
ATOM      4  C   UNL     1      -2.667   9.953  16.382  0.00  0.00    +0.000 A 
ATOM      5  C   UNL     1      -1.635  10.107  17.306  0.00  0.00    +0.000 A 
ATOM      6  C   UNL     1      -1.791  10.944  18.424  0.00  0.00    +0.000 A 
ATOM      7  C   UNL     1      -3.032  11.596  18.627  0.00  0.00    +0.000 A 
ATOM      8  C   UNL     1      -3.252  12.535  19.798  0.00  0.00    +0.000 C 
ATOM      9  C   UNL     1      -2.128  12.515  20.826  0.00  0.00    +0.000 C 
ATOM     10  C   UNL     1      -0.791  12.479  20.101  0.00  0.00    +0.000 C 
ATOM     11  C   UNL     1      -0.610  11.130  19.393  0.00  0.00    +0.000 C 
BRANCH   2  13
ATOM     12  C   UNL     1      -6.400  11.333  18.122  0.00  0.00    +0.000 C 
ATOM     13  O   UNL     1      -5.231  12.121  17.933  0.00  0.00    +0.000 OA
ENDBRANCH   2  13
ENDBRANCH   1  11
BRANCH   1  14
ATOM     14  N   UNL     1       0.635   9.722  21.269  0.00  0.00    +0.000 NA
ATOM     15  C   UNL     1       0.198   9.599  22.660  0.00  0.00    +0.000 C 
BRANCH  14  16
ATOM     16  C   UNL     1       1.463   8.531  20.929  0.00  0.00    +0.000 C 
BRANCH  16  17
ATOM     17  C   UNL     1       1.685   8.367  19.417  0.00  0.00    +0.000 C 
BRANCH  17  18
ATOM     18  C   UNL     1       2.508   7.167  19.004  0.00  0.00    +0.000 A 
ATOM     19  C   UNL     1       3.345   7.196  17.866  0.00  0.00    +0.000 A 
ATOM     20  C   UNL     1       3.989   6.043  17.414  0.00  0.00    +0.000 A 
ATOM     21  C   UNL     1       3.771   4.864  18.103  0.00  0.00    +0.000 A 
ATOM     22  C   UNL     1       2.975   4.837  19.231  0.00  0.00    +0.000 A 
ATOM     23  C   UNL     1       2.352   5.965  19.710  0.00  0.00    +0.000 A 
ATOM     24  O   UNL     1       2.863   3.595  19.800  0.00  0.00    +0.000 OA
ATOM     25  C   UNL     1       3.363   2.715  18.766  0.00  0.00    +0.000 C 
ATOM     26  C   UNL     1       4.300   3.506  17.850  0.00  0.00    +0.000 C 
ENDBRANCH  17  18
ENDBRANCH  16  17
ENDBRANCH  14  16
ENDBRANCH   1  14
TORSDOF 6
ENDMDL
MODEL 8
REMARK VINA RESULT:      -7.4      1.030      1.434
REMARK  Name = 
REMARK  8 active torsions:
REMARK  status: ('A' for Active; 'I' for Inactive)
REMARK    1  A    between atoms: C_1  and  O_2
REMARK    2  A    between atoms: O_2  and  C_3
REMARK    3  A    between atoms: C_12  and  C_13
REMARK    4  A    between atoms: C_13  and  N_14
REMARK    5  A    between atoms: N_14  and  C_15
REMARK    6  A    between atoms: N_14  and  C_16
REMARK    7  A    between atoms: C_16  and  C_17
REMARK    8  A    between atoms: C_17  and  C_18
REMARK                            x       y       z     vdW  Elec       q    Type
REMARK                         _______ _______ _______ _____ _____    ______ ____
ROOT
ATOM      1  C   UNL     1       6.783   5.891  16.854  0.00  0.00    +0.000 C 
ENDROOT
BRANCH   1  11
ATOM      2  C   UNL     1       2.721   4.416  18.701  0.00  0.00    +0.000 A 
ATOM      3  C   UNL     1       2.910   3.040  18.553  0.00  0.00    +0.000 A 
ATOM      4  C   UNL     1       3.907   2.554  17.711  0.00  0.00    +0.000 A 
ATOM      5  C   UNL     1       4.701   3.438  16.982  0.00  0.00    +0.000 A 
ATOM      6  C   UNL     1       4.502   4.826  17.077  0.00  0.00    +0.000 A 
ATOM      7  C   UNL     1       3.513   5.320  17.962  0.00  0.00    +0.000 A 
ATOM      8  C   UNL     1       3.232   6.806  18.086  0.00  0.00    +0.000 C 
ATOM      9  C   UNL     1       4.247   7.689  17.372  0.00  0.00    +0.000 C 
ATOM     10  C   UNL     1       4.580   7.073  16.022  0.00  0.00    +0.000 C 
ATOM     11  C   UNL     1       5.362   5.767  16.216  0.00  0.00    +0.000 C 
BRANCH   2  13
ATOM     12  C   UNL     1       0.955   4.048  20.237  0.00  0.00    +0.000 C 
ATOM     13  O   UNL     1       1.758   4.969  19.508  0.00  0.00    +0.000 OA
ENDBRANCH   2  13
ENDBRANCH   1  11
BRANCH   1  14
ATOM     14  N   UNL     1       6.965   6.497  18.202  0.00  0.00    +0.000 NA
ATOM     15  C   UNL     1       7.145   5.504  19.262  0.00  0.00    +0.000 C 
BRANCH  14  16
ATOM     16  C   UNL     1       8.139   7.415  18.214  0.00  0.00    +0.000 C 
BRANCH  16  17
ATOM     17  C   UNL     1       7.812   8.814  17.671  0.00  0.00    +0.000 C 
BRANCH  17  18
ATOM     18  C   UNL     1       8.586   9.955  18.293  0.00  0.00    +0.000 A 
ATOM     19  C   UNL     1       9.191   9.836  19.564  0.00  0.00    +0.000 A 
ATOM     20  C   UNL     1       9.781  10.937  20.188  0.00  0.00    +0.000 A 
ATOM     21  C   UNL     1       9.742  12.155  19.533  0.00  0.00    +0.000 A 
ATOM     22  C   UNL     1       9.175  12.268  18.278  0.00  0.00    +0.000 A 
ATOM     23  C   UNL     1       8.612  11.193  17.633  0.00  0.00    +0.000 A 
ATOM     24  O   UNL     1       9.219  13.538  17.764  0.00  0.00    +0.000 OA
ATOM     25  C   UNL     1       9.547  14.347  18.917  0.00  0.00    +0.000 C 
ATOM     26  C   UNL     1      10.264  13.473  19.950  0.00  0.00    +0.000 C 
ENDBRANCH  17  18
ENDBRANCH  16  17
ENDBRANCH  14  16
ENDBRANCH   1  14
TORSDOF 6
ENDMDL
MODEL 9
REMARK VINA RESULT:      -7.4      4.029      6.922
REMARK  Name = 
REMARK  8 active torsions:
REMARK  status: ('A' for Active; 'I' for Inactive)
REMARK    1  A    between atoms: C_1  and  O_2
REMARK    2  A    between atoms: O_2  and  C_3
REMARK    3  A    between atoms: C_12  and  C_13
REMARK    4  A    between atoms: C_13  and  N_14
REMARK    5  A    between atoms: N_14  and  C_15
REMARK    6  A    between atoms: N_14  and  C_16
REMARK    7  A    between atoms: C_16  and  C_17
REMARK    8  A    between atoms: C_17  and  C_18
REMARK                            x       y       z     vdW  Elec       q    Type
REMARK                         _______ _______ _______ _____ _____    ______ ____
ROOT
ATOM      1  C   UNL     1       4.569   5.682  19.013  0.00  0.00    +0.000 C 
ENDROOT
BRANCH   1  11
ATOM      2  C   UNL     1       6.951   4.941  15.030  0.00  0.00    +0.000 A 
ATOM      3  C   UNL     1       6.203   3.871  14.533  0.00  0.00    +0.000 A 
ATOM      4  C   UNL     1       5.328   3.178  15.366  0.00  0.00    +0.000 A 
ATOM      5  C   UNL     1       5.221   3.525  16.711  0.00  0.00    +0.000 A 
ATOM      6  C   UNL     1       5.995   4.567  17.248  0.00  0.00    +0.000 A 
ATOM      7  C   UNL     1       6.856   5.297  16.391  0.00  0.00    +0.000 A 
ATOM      8  C   UNL     1       7.739   6.412  16.918  0.00  0.00    +0.000 C 
ATOM      9  C   UNL     1       7.436   6.814  18.356  0.00  0.00    +0.000 C 
ATOM     10  C   UNL     1       7.196   5.560  19.182  0.00  0.00    +0.000 C 
ATOM     11  C   UNL     1       5.888   4.885  18.750  0.00  0.00    +0.000 C 
BRANCH   2  13
ATOM     12  C   UNL     1       7.947   5.282  12.906  0.00  0.00    +0.000 C 
ATOM     13  O   UNL     1       7.835   5.668  14.271  0.00  0.00    +0.000 OA
ENDBRANCH   2  13
ENDBRANCH   1  11
BRANCH   1  14
ATOM     14  N   UNL     1       3.243   5.005  18.953  0.00  0.00    +0.000 NA
ATOM     15  C   UNL     1       2.700   4.685  20.274  0.00  0.00    +0.000 C 
BRANCH  14  16
ATOM     16  C   UNL     1       2.252   5.852  18.230  0.00  0.00    +0.000 C 
BRANCH  16  17
ATOM     17  C   UNL     1       2.698   7.316  18.098  0.00  0.00    +0.000 C 
BRANCH  17  18
ATOM     18  C   UNL     1       1.920   8.313  18.928  0.00  0.00    +0.000 A 
ATOM     19  C   UNL     1       1.689   8.112  20.308  0.00  0.00    +0.000 A 
ATOM     20  C   UNL     1       0.853   8.965  21.031  0.00  0.00    +0.000 A 
ATOM     21  C   UNL     1       0.242  10.005  20.354  0.00  0.00    +0.000 A 
ATOM     22  C   UNL     1       0.486  10.220  19.012  0.00  0.00    +0.000 A 
ATOM     23  C   UNL     1       1.326   9.410  18.285  0.00  0.00    +0.000 A 
ATOM     24  O   UNL     1      -0.192  11.291  18.490  0.00  0.00    +0.000 OA
ATOM     25  C   UNL     1      -1.186  11.573  19.502  0.00  0.00    +0.000 C 
ATOM     26  C   UNL     1      -0.690  11.040  20.849  0.00  0.00    +0.000 C 
ENDBRANCH  17  18
ENDBRANCH  16  17
ENDBRANCH  14  16
ENDBRANCH   1  14
TORSDOF 6
ENDMDL
