MODEL 1
REMARK VINA RESULT:      -8.3      0.000      0.000
REMARK  Name = 
REMARK  6 active torsions:
REMARK  status: ('A' for Active; 'I' for Inactive)
REMARK    1  A    between atoms: C_2  and  C_3
REMARK    2  A    between atoms: C_3  and  C_4
REMARK    3  A    between atoms: N_14  and  C_15
REMARK    4  A    between atoms: C_15  and  C_16
REMARK    5  A    between atoms: N_21  and  C_22
REMARK    6  A    between atoms: C_22  and  C_23
REMARK                            x       y       z     vdW  Elec       q    Type
REMARK                         _______ _______ _______ _____ _____    ______ ____
ROOT
ATOM      1  C   UNL     1       1.015   9.324  17.852  0.00  0.00    +0.000 C 
ENDROOT
BRANCH   1   2
ATOM      2  C   UNL     1       1.606  10.641  18.357  0.00  0.00    +0.000 C 
ATOM      3  O   UNL     1       2.599  11.141  17.811  0.00  0.00    +0.000 OA
ATOM      4  N   UNL     1       1.024  11.192  19.476  0.00  0.00    +0.000 N 
ATOM      5  C   UNL     1       1.473  12.496  19.968  0.00  0.00    +0.000 C 
ATOM      6  C   UNL     1       0.278  13.469  20.104  0.00  0.00    +0.000 C 
ATOM      7  N   UNL     1      -0.887  12.937  20.869  0.00  0.00    +0.000 NA
ATOM      8  C   UNL     1      -1.276  11.655  20.223  0.00  0.00    +0.000 C 
ATOM      9  C   UNL     1      -0.130  10.629  20.176  0.00  0.00    +0.000 C 
BRANCH   7  10
ATOM     10  C   UNL     1      -0.515  12.765  22.304  0.00  0.00    +0.000 C 
BRANCH  10  11
ATOM     11  C   UNL     1      -1.458  13.429  23.306  0.00  0.00    +0.000 A 
ATOM     12  C   UNL     1      -2.775  13.000  23.464  0.00  0.00    +0.000 A 
ATOM     13  C   UNL     1      -3.638  13.728  24.280  0.00  0.00    +0.000 A 
ATOM     14  C   UNL     1      -3.145  14.816  24.987  0.00  0.00    +0.000 A 
ATOM     15  C   UNL     1      -1.803  15.124  24.852  0.00  0.00    +0.000 A 
ATOM     16  N   UNL     1      -0.959  14.476  24.016  0.00  0.00    +0.000 NA
ENDBRANCH  10  11
ENDBRANCH   7  10
ENDBRANCH   1   2
BRANCH   1  19
ATOM     17  O   UNL     1       1.895   7.762  20.044  0.00  0.00    +0.000 OA
ATOM     18  C   UNL     1       2.383   7.558  18.960  0.00  0.00    +0.000 C 
ATOM     19  N   UNL     1       2.018   8.275  17.836  0.00  0.00    +0.000 N 
ATOM     20  H   UNL     1       2.636   8.261  17.051  0.00  0.00    +0.000 HD
BRANCH  18  21
ATOM     21  C   UNL     1       3.451   6.483  18.702  0.00  0.00    +0.000 C 
BRANCH  21  22
ATOM     22  C   UNL     1       2.998   5.022  18.933  0.00  0.00    +0.000 C 
ATOM     23  C   UNL     1       4.138   4.015  18.630  0.00  0.00    +0.000 C 
ATOM     24  C   UNL     1       3.676   2.572  18.895  0.00  0.00    +0.000 C 
ATOM     25  C   UNL     1       3.244   2.445  20.365  0.00  0.00    +0.000 C 
ATOM     26  C   UNL     1       2.070   3.392  20.658  0.00  0.00    +0.000 C 
ATOM     27  C   UNL     1       0.897   3.060  19.722  0.00  0.00    +0.000 C 
ATOM     28  C   UNL     1       1.334   3.222  18.258  0.00  0.00    +0.000 C 
ATOM     29  C   UNL     1       2.492   2.252  17.973  0.00  0.00    +0.000 C 
ATOM     30  C   UNL     1       1.799   4.669  18.020  0.00  0.00    +0.000 C 
ATOM     31  C   UNL     1       2.525   4.841  20.409  0.00  0.00    +0.000 C 
ENDBRANCH  21  22
ENDBRANCH  18  21
ENDBRANCH   1  19
TORSDOF 6
ENDMDL
MODEL 2
REMARK VINA RESULT:      -8.1      0.608      1.730
REMARK  Name = 
REMARK  6 active torsions:
REMARK  status: ('A' for Active; 'I' for Inactive)
REMARK    1  A    between atoms: C_2  and  C_3
REMARK    2  A    between atoms: C_3  and  C_4
REMARK    3  A    between atoms: N_14  and  C_15
REMARK    4  A    between atoms: C_15  and  C_16
REMARK    5  A    between atoms: N_21  and  C_22
REMARK    6  A    between atoms: C_22  and  C_23
REMARK                            x       y       z     vdW  Elec       q    Type
REMARK                         _______ _______ _______ _____ _____    ______ ____
ROOT
ATOM      1  C   UNL     1       0.966   9.286  17.868  0.00  0.00    +0.000 C 
ENDROOT
BRANCH   1   2
ATOM      2  C   UNL     1       1.580  10.594  18.366  0.00  0.00    +0.000 C 
ATOM      3  O   UNL     1       2.598  11.059  17.835  0.00  0.00    +0.000 OA
ATOM      4  N   UNL     1       0.990  11.176  19.465  0.00  0.00    +0.000 N 
ATOM      5  C   UNL     1       1.463  12.474  19.948  0.00  0.00    +0.000 C 
ATOM      6  C   UNL     1       0.291  13.480  20.045  0.00  0.00    +0.000 C 
ATOM      7  N   UNL     1      -0.903  12.990  20.792  0.00  0.00    +0.000 NA
ATOM      8  C   UNL     1      -1.312  11.709  20.156  0.00  0.00    +0.000 C 
ATOM      9  C   UNL     1      -0.193  10.653  20.148  0.00  0.00    +0.000 C 
BRANCH   7  10
ATOM     10  C   UNL     1      -0.566  12.829  22.238  0.00  0.00    +0.000 C 
BRANCH  10  11
ATOM     11  C   UNL     1      -1.508  13.537  23.210  0.00  0.00    +0.000 A 
ATOM     12  C   UNL     1      -1.106  14.663  23.926  0.00  0.00    +0.000 A 
ATOM     13  C   UNL     1      -1.946  15.186  24.907  0.00  0.00    +0.000 A 
ATOM     14  C   UNL     1      -3.202  14.625  25.091  0.00  0.00    +0.000 A 
ATOM     15  C   UNL     1      -3.568  13.568  24.277  0.00  0.00    +0.000 A 
ATOM     16  N   UNL     1      -2.748  12.999  23.363  0.00  0.00    +0.000 NA
ENDBRANCH  10  11
ENDBRANCH   7  10
ENDBRANCH   1   2
BRANCH   1  19
ATOM     17  O   UNL     1       1.831   7.868  20.161  0.00  0.00    +0.000 OA
ATOM     18  C   UNL     1       2.292   7.563  19.089  0.00  0.00    +0.000 C 
ATOM     19  N   UNL     1       1.931   8.203  17.918  0.00  0.00    +0.000 N 
ATOM     20  H   UNL     1       2.535   8.106  17.127  0.00  0.00    +0.000 HD
BRANCH  18  21
ATOM     21  C   UNL     1       3.317   6.434  18.899  0.00  0.00    +0.000 C 
BRANCH  21  22
ATOM     22  C   UNL     1       2.827   5.016  19.277  0.00  0.00    +0.000 C 
ATOM     23  C   UNL     1       2.092   5.009  20.643  0.00  0.00    +0.000 C 
ATOM     24  C   UNL     1       1.588   3.597  20.984  0.00  0.00    +0.000 C 
ATOM     25  C   UNL     1       0.633   3.123  19.876  0.00  0.00    +0.000 C 
ATOM     26  C   UNL     1       1.372   3.063  18.529  0.00  0.00    +0.000 C 
ATOM     27  C   UNL     1       2.575   2.114  18.646  0.00  0.00    +0.000 C 
ATOM     28  C   UNL     1       3.535   2.617  19.734  0.00  0.00    +0.000 C 
ATOM     29  C   UNL     1       2.791   2.649  21.079  0.00  0.00    +0.000 C 
ATOM     30  C   UNL     1       4.018   4.032  19.375  0.00  0.00    +0.000 C 
ATOM     31  C   UNL     1       1.870   4.474  18.171  0.00  0.00    +0.000 C 
ENDBRANCH  21  22
ENDBRANCH  18  21
ENDBRANCH   1  19
TORSDOF 6
ENDMDL
MODEL 3
REMARK VINA RESULT:      -8.1      1.191      1.934
REMARK  Name = 
REMARK  6 active torsions:
REMARK  status: ('A' for Active; 'I' for Inactive)
REMARK    1  A    between atoms: C_2  and  C_3
REMARK    2  A    between atoms: C_3  and  C_4
REMARK    3  A    between atoms: N_14  and  C_15
REMARK    4  A    between atoms: C_15  and  C_16
REMARK    5  A    between atoms: N_21  and  C_22
REMARK    6  A    between atoms: C_22  and  C_23
REMARK                            x       y       z     vdW  Elec       q    Type
REMARK                         _______ _______ _______ _____ _____    ______ ____
ROOT
ATOM      1  C   UNL     1       1.060   9.217  17.791  0.00  0.00    +0.000 C 
ENDROOT
BRANCH   1   2
ATOM      2  C   UNL     1       1.513  10.568  18.347  0.00  0.00    +0.000 C 
ATOM      3  O   UNL     1       2.593  11.065  18.002  0.00  0.00    +0.000 OA
ATOM      4  N   UNL     1       0.698  11.154  19.289  0.00  0.00    +0.000 N 
ATOM      5  C   UNL     1       1.015  12.487  19.803  0.00  0.00    +0.000 C 
ATOM      6  C   UNL     1      -0.194  13.438  19.635  0.00  0.00    +0.000 C 
ATOM      7  N   UNL     1      -1.489  12.914  20.159  0.00  0.00    +0.000 NA
ATOM      8  C   UNL     1      -1.714  11.596  19.506  0.00  0.00    +0.000 C 
ATOM      9  C   UNL     1      -0.572  10.595  19.753  0.00  0.00    +0.000 C 
BRANCH   7  10
ATOM     10  C   UNL     1      -1.430  12.812  21.647  0.00  0.00    +0.000 C 
BRANCH  10  11
ATOM     11  C   UNL     1      -2.781  12.867  22.358  0.00  0.00    +0.000 A 
ATOM     12  C   UNL     1      -3.866  13.549  21.810  0.00  0.00    +0.000 A 
ATOM     13  C   UNL     1      -5.031  13.696  22.561  0.00  0.00    +0.000 A 
ATOM     14  C   UNL     1      -5.116  13.086  23.805  0.00  0.00    +0.000 A 
ATOM     15  C   UNL     1      -4.031  12.347  24.241  0.00  0.00    +0.000 A 
ATOM     16  N   UNL     1      -2.864  12.242  23.563  0.00  0.00    +0.000 NA
ENDBRANCH  10  11
ENDBRANCH   7  10
ENDBRANCH   1   2
BRANCH   1  19
ATOM     17  O   UNL     1       1.608   7.866  20.219  0.00  0.00    +0.000 OA
ATOM     18  C   UNL     1       2.260   7.584  19.244  0.00  0.00    +0.000 C 
ATOM     19  N   UNL     1       2.066   8.196  18.019  0.00  0.00    +0.000 N 
ATOM     20  H   UNL     1       2.799   8.131  17.343  0.00  0.00    +0.000 HD
BRANCH  18  21
ATOM     21  C   UNL     1       3.368   6.519  19.248  0.00  0.00    +0.000 C 
BRANCH  21  22
ATOM     22  C   UNL     1       2.894   5.063  19.465  0.00  0.00    +0.000 C 
ATOM     23  C   UNL     1       2.182   4.890  20.832  0.00  0.00    +0.000 C 
ATOM     24  C   UNL     1       1.693   3.444  21.014  0.00  0.00    +0.000 C 
ATOM     25  C   UNL     1       0.722   3.094  19.873  0.00  0.00    +0.000 C 
ATOM     26  C   UNL     1       1.439   3.198  18.517  0.00  0.00    +0.000 C 
ATOM     27  C   UNL     1       2.649   2.252  18.502  0.00  0.00    +0.000 C 
ATOM     28  C   UNL     1       3.625   2.633  19.627  0.00  0.00    +0.000 C 
ATOM     29  C   UNL     1       2.903   2.501  20.978  0.00  0.00    +0.000 C 
ATOM     30  C   UNL     1       4.093   4.084  19.428  0.00  0.00    +0.000 C 
ATOM     31  C   UNL     1       1.922   4.646  18.318  0.00  0.00    +0.000 C 
ENDBRANCH  21  22
ENDBRANCH  18  21
ENDBRANCH   1  19
TORSDOF 6
ENDMDL
MODEL 4
REMARK VINA RESULT:      -8.0      2.108      3.285
REMARK  Name = 
REMARK  6 active torsions:
REMARK  status: ('A' for Active; 'I' for Inactive)
REMARK    1  A    between atoms: C_2  and  C_3
REMARK    2  A    between atoms: C_3  and  C_4
REMARK    3  A    between atoms: N_14  and  C_15
REMARK    4  A    between atoms: C_15  and  C_16
REMARK    5  A    between atoms: N_21  and  C_22
REMARK    6  A    between atoms: C_22  and  C_23
REMARK                            x       y       z     vdW  Elec       q    Type
REMARK                         _______ _______ _______ _____ _____    ______ ____
ROOT
ATOM      1  C   UNL     1       1.883   7.918  20.020  0.00  0.00    +0.000 C 
ENDROOT
BRANCH   1   2
ATOM      2  C   UNL     1       1.343   9.175  19.338  0.00  0.00    +0.000 C 
ATOM      3  O   UNL     1       1.415   9.309  18.109  0.00  0.00    +0.000 OA
ATOM      4  N   UNL     1       0.846  10.161  20.160  0.00  0.00    +0.000 N 
ATOM      5  C   UNL     1       0.229  11.355  19.580  0.00  0.00    +0.000 C 
ATOM      6  C   UNL     1      -1.194  11.565  20.150  0.00  0.00    +0.000 C 
ATOM      7  N   UNL     1      -1.290  11.534  21.638  0.00  0.00    +0.000 NA
ATOM      8  C   UNL     1      -0.691  10.247  22.081  0.00  0.00    +0.000 C 
ATOM      9  C   UNL     1       0.764  10.065  21.617  0.00  0.00    +0.000 C 
BRANCH   7  10
ATOM     10  C   UNL     1      -0.590  12.720  22.216  0.00  0.00    +0.000 C 
BRANCH  10  11
ATOM     11  C   UNL     1      -1.365  13.472  23.297  0.00  0.00    +0.000 A 
ATOM     12  C   UNL     1      -2.664  13.108  23.650  0.00  0.00    +0.000 A 
ATOM     13  C   UNL     1      -3.382  13.912  24.532  0.00  0.00    +0.000 A 
ATOM     14  C   UNL     1      -2.760  15.010  25.109  0.00  0.00    +0.000 A 
ATOM     15  C   UNL     1      -1.438  15.253  24.781  0.00  0.00    +0.000 A 
ATOM     16  N   UNL     1      -0.737  14.529  23.877  0.00  0.00    +0.000 NA
ENDBRANCH  10  11
ENDBRANCH   7  10
ENDBRANCH   1   2
BRANCH   1  19
ATOM     17  O   UNL     1       2.726   5.255  20.489  0.00  0.00    +0.000 OA
ATOM     18  C   UNL     1       2.786   5.688  19.365  0.00  0.00    +0.000 C 
ATOM     19  N   UNL     1       2.402   6.977  19.045  0.00  0.00    +0.000 N 
ATOM     20  H   UNL     1       2.729   7.362  18.182  0.00  0.00    +0.000 HD
BRANCH  18  21
ATOM     21  C   UNL     1       3.285   4.864  18.168  0.00  0.00    +0.000 C 
BRANCH  21  22
ATOM     22  C   UNL     1       4.729   5.168  17.703  0.00  0.00    +0.000 C 
ATOM     23  C   UNL     1       4.788   6.432  16.806  0.00  0.00    +0.000 C 
ATOM     24  C   UNL     1       6.234   6.733  16.381  0.00  0.00    +0.000 C 
ATOM     25  C   UNL     1       7.094   6.945  17.638  0.00  0.00    +0.000 C 
ATOM     26  C   UNL     1       7.095   5.673  18.500  0.00  0.00    +0.000 C 
ATOM     27  C   UNL     1       7.633   4.494  17.674  0.00  0.00    +0.000 C 
ATOM     28  C   UNL     1       6.746   4.274  16.439  0.00  0.00    +0.000 C 
ATOM     29  C   UNL     1       6.772   5.544  15.574  0.00  0.00    +0.000 C 
ATOM     30  C   UNL     1       5.304   3.983  16.889  0.00  0.00    +0.000 C 
ATOM     31  C   UNL     1       5.654   5.369  18.943  0.00  0.00    +0.000 C 
ENDBRANCH  21  22
ENDBRANCH  18  21
ENDBRANCH   1  19
TORSDOF 6
ENDMDL
MODEL 5
REMARK VINA RESULT:      -8.0      0.891      1.709
REMARK  Name = 
REMARK  6 active torsions:
REMARK  status: ('A' for Active; 'I' for Inactive)
REMARK    1  A    between atoms: C_2  and  C_3
REMARK    2  A    between atoms: C_3  and  C_4
REMARK    3  A    between atoms: N_14  and  C_15
REMARK    4  A    between atoms: C_15  and  C_16
REMARK    5  A    between atoms: N_21  and  C_22
REMARK    6  A    between atoms: C_22  and  C_23
REMARK                            x       y       z     vdW  Elec       q    Type
REMARK                         _______ _______ _______ _____ _____    ______ ____
ROOT
ATOM      1  C   UNL     1       1.506   8.967  17.815  0.00  0.00    +0.000 C 
ENDROOT
BRANCH   1   2
ATOM      2  C   UNL     1       1.831  10.386  18.282  0.00  0.00    +0.000 C 
ATOM      3  O   UNL     1       2.704  11.056  17.715  0.00  0.00    +0.000 OA
ATOM      4  N   UNL     1       1.157  10.841  19.393  0.00  0.00    +0.000 N 
ATOM      5  C   UNL     1       1.346  12.220  19.849  0.00  0.00    +0.000 C 
ATOM      6  C   UNL     1      -0.017  12.943  19.973  0.00  0.00    +0.000 C 
ATOM      7  N   UNL     1      -1.052  12.214  20.762  0.00  0.00    +0.000 NA
ATOM      8  C   UNL     1      -1.185  10.864  20.151  0.00  0.00    +0.000 C 
ATOM      9  C   UNL     1       0.139  10.081  20.117  0.00  0.00    +0.000 C 
BRANCH   7  10
ATOM     10  C   UNL     1      -0.646  12.154  22.198  0.00  0.00    +0.000 C 
BRANCH  10  11
ATOM     11  C   UNL     1      -1.521  12.959  23.156  0.00  0.00    +0.000 A 
ATOM     12  C   UNL     1      -2.833  12.581  23.438  0.00  0.00    +0.000 A 
ATOM     13  C   UNL     1      -3.639  13.424  24.200  0.00  0.00    +0.000 A 
ATOM     14  C   UNL     1      -3.092  14.582  24.735  0.00  0.00    +0.000 A 
ATOM     15  C   UNL     1      -1.756  14.843  24.489  0.00  0.00    +0.000 A 
ATOM     16  N   UNL     1      -0.969  14.077  23.698  0.00  0.00    +0.000 NA
ENDBRANCH  10  11
ENDBRANCH   7  10
ENDBRANCH   1   2
BRANCH   1  19
ATOM     17  O   UNL     1       3.611   7.303  16.909  0.00  0.00    +0.000 OA
ATOM     18  C   UNL     1       3.264   7.215  18.060  0.00  0.00    +0.000 C 
ATOM     19  N   UNL     1       2.242   7.983  18.588  0.00  0.00    +0.000 N 
ATOM     20  H   UNL     1       1.819   7.677  19.440  0.00  0.00    +0.000 HD
BRANCH  18  21
ATOM     21  C   UNL     1       3.913   6.253  19.068  0.00  0.00    +0.000 C 
BRANCH  21  22
ATOM     22  C   UNL     1       3.139   4.940  19.333  0.00  0.00    +0.000 C 
ATOM     23  C   UNL     1       2.273   5.035  20.616  0.00  0.00    +0.000 C 
ATOM     24  C   UNL     1       1.490   3.732  20.844  0.00  0.00    +0.000 C 
ATOM     25  C   UNL     1       0.589   3.467  19.626  0.00  0.00    +0.000 C 
ATOM     26  C   UNL     1       1.445   3.306  18.359  0.00  0.00    +0.000 C 
ATOM     27  C   UNL     1       2.438   2.149  18.555  0.00  0.00    +0.000 C 
ATOM     28  C   UNL     1       3.351   2.442  19.755  0.00  0.00    +0.000 C 
ATOM     29  C   UNL     1       2.486   2.577  21.018  0.00  0.00    +0.000 C 
ATOM     30  C   UNL     1       4.117   3.753  19.508  0.00  0.00    +0.000 C 
ATOM     31  C   UNL     1       2.224   4.609  18.114  0.00  0.00    +0.000 C 
ENDBRANCH  21  22
ENDBRANCH  18  21
ENDBRANCH   1  19
TORSDOF 6
ENDMDL
MODEL 6
REMARK VINA RESULT:      -8.0      1.093      1.705
REMARK  Name = 
REMARK  6 active torsions:
REMARK  status: ('A' for Active; 'I' for Inactive)
REMARK    1  A    between atoms: C_2  and  C_3
REMARK    2  A    between atoms: C_3  and  C_4
REMARK    3  A    between atoms: N_14  and  C_15
REMARK    4  A    between atoms: C_15  and  C_16
REMARK    5  A    between atoms: N_21  and  C_22
REMARK    6  A    between atoms: C_22  and  C_23
REMARK                            x       y       z     vdW  Elec       q    Type
REMARK                         _______ _______ _______ _____ _____    ______ ____
ROOT
ATOM      1  C   UNL     1       0.827   9.526  18.014  0.00  0.00    +0.000 C 
ENDROOT
BRANCH   1   2
ATOM      2  C   UNL     1       1.480  10.859  18.380  0.00  0.00    +0.000 C 
ATOM      3  O   UNL     1       2.582  11.175  17.910  0.00  0.00    +0.000 OA
ATOM      4  N   UNL     1       0.819  11.642  19.299  0.00  0.00    +0.000 N 
ATOM      5  C   UNL     1       1.333  12.971  19.633  0.00  0.00    +0.000 C 
ATOM      6  C   UNL     1       0.237  14.045  19.435  0.00  0.00    +0.000 C 
ATOM      7  N   UNL     1      -1.066  13.750  20.099  0.00  0.00    +0.000 NA
ATOM      8  C   UNL     1      -1.498  12.410  19.620  0.00  0.00    +0.000 C 
ATOM      9  C   UNL     1      -0.468  11.303  19.905  0.00  0.00    +0.000 C 
BRANCH   7  10
ATOM     10  C   UNL     1      -0.902  13.801  21.582  0.00  0.00    +0.000 C 
BRANCH  10  11
ATOM     11  C   UNL     1      -2.184  13.591  22.387  0.00  0.00    +0.000 A 
ATOM     12  C   UNL     1      -2.335  12.504  23.246  0.00  0.00    +0.000 A 
ATOM     13  C   UNL     1      -3.572  12.273  23.845  0.00  0.00    +0.000 A 
ATOM     14  C   UNL     1      -4.603  13.179  23.640  0.00  0.00    +0.000 A 
ATOM     15  C   UNL     1      -4.348  14.285  22.849  0.00  0.00    +0.000 A 
ATOM     16  N   UNL     1      -3.179  14.499  22.202  0.00  0.00    +0.000 NA
ENDBRANCH  10  11
ENDBRANCH   7  10
ENDBRANCH   1   2
BRANCH   1  19
ATOM     17  O   UNL     1       1.996   7.789  19.921  0.00  0.00    +0.000 OA
ATOM     18  C   UNL     1       2.341   7.694  18.769  0.00  0.00    +0.000 C 
ATOM     19  N   UNL     1       1.828   8.504  17.772  0.00  0.00    +0.000 N 
ATOM     20  H   UNL     1       2.340   8.574  16.916  0.00  0.00    +0.000 HD
BRANCH  18  21
ATOM     21  C   UNL     1       3.376   6.670  18.277  0.00  0.00    +0.000 C 
BRANCH  21  22
ATOM     22  C   UNL     1       3.049   5.190  18.586  0.00  0.00    +0.000 C 
ATOM     23  C   UNL     1       2.990   4.922  20.113  0.00  0.00    +0.000 C 
ATOM     24  C   UNL     1       2.634   3.454  20.397  0.00  0.00    +0.000 C 
ATOM     25  C   UNL     1       1.272   3.134  19.758  0.00  0.00    +0.000 C 
ATOM     26  C   UNL     1       1.341   3.332  18.235  0.00  0.00    +0.000 C 
ATOM     27  C   UNL     1       2.436   2.427  17.649  0.00  0.00    +0.000 C 
ATOM     28  C   UNL     1       3.795   2.779  18.272  0.00  0.00    +0.000 C 
ATOM     29  C   UNL     1       3.720   2.554  19.791  0.00  0.00    +0.000 C 
ATOM     30  C   UNL     1       4.124   4.253  17.982  0.00  0.00    +0.000 C 
ATOM     31  C   UNL     1       1.683   4.802  17.939  0.00  0.00    +0.000 C 
ENDBRANCH  21  22
ENDBRANCH  18  21
ENDBRANCH   1  19
TORSDOF 6
ENDMDL
MODEL 7
REMARK VINA RESULT:      -7.9      2.301      3.655
REMARK  Name = 
REMARK  6 active torsions:
REMARK  status: ('A' for Active; 'I' for Inactive)
REMARK    1  A    between atoms: C_2  and  C_3
REMARK    2  A    between atoms: C_3  and  C_4
REMARK    3  A    between atoms: N_14  and  C_15
REMARK    4  A    between atoms: C_15  and  C_16
REMARK    5  A    between atoms: N_21  and  C_22
REMARK    6  A    between atoms: C_22  and  C_23
REMARK                            x       y       z     vdW  Elec       q    Type
REMARK                         _______ _______ _______ _____ _____    ______ ____
ROOT
ATOM      1  C   UNL     1       1.942   6.423  20.663  0.00  0.00    +0.000 C 
ENDROOT
BRANCH   1   2
ATOM      2  C   UNL     1       1.870   7.723  19.862  0.00  0.00    +0.000 C 
ATOM      3  O   UNL     1       2.354   7.794  18.724  0.00  0.00    +0.000 OA
ATOM      4  N   UNL     1       1.309   8.810  20.494  0.00  0.00    +0.000 N 
ATOM      5  C   UNL     1       1.122  10.065  19.763  0.00  0.00    +0.000 C 
ATOM      6  C   UNL     1      -0.352  10.529  19.846  0.00  0.00    +0.000 C 
ATOM      7  N   UNL     1      -0.924  10.576  21.223  0.00  0.00    +0.000 NA
ATOM      8  C   UNL     1      -0.725   9.226  21.816  0.00  0.00    +0.000 C 
ATOM      9  C   UNL     1       0.749   8.789  21.845  0.00  0.00    +0.000 C 
BRANCH   7  10
ATOM     10  C   UNL     1      -0.257  11.652  22.014  0.00  0.00    +0.000 C 
BRANCH  10  11
ATOM     11  C   UNL     1      -1.192  12.514  22.860  0.00  0.00    +0.000 A 
ATOM     12  C   UNL     1      -2.480  12.092  23.184  0.00  0.00    +0.000 A 
ATOM     13  C   UNL     1      -3.346  12.971  23.830  0.00  0.00    +0.000 A 
ATOM     14  C   UNL     1      -2.879  14.220  24.215  0.00  0.00    +0.000 A 
ATOM     15  C   UNL     1      -1.560  14.533  23.942  0.00  0.00    +0.000 A 
ATOM     16  N   UNL     1      -0.717  13.725  23.257  0.00  0.00    +0.000 NA
ENDBRANCH  10  11
ENDBRANCH   7  10
ENDBRANCH   1   2
BRANCH   1  19
ATOM     17  O   UNL     1       1.495   4.284  18.862  0.00  0.00    +0.000 OA
ATOM     18  C   UNL     1       2.624   4.503  19.226  0.00  0.00    +0.000 C 
ATOM     19  N   UNL     1       2.935   5.522  20.107  0.00  0.00    +0.000 N 
ATOM     20  H   UNL     1       3.814   5.480  20.580  0.00  0.00    +0.000 HD
BRANCH  18  21
ATOM     21  C   UNL     1       3.839   3.688  18.753  0.00  0.00    +0.000 C 
BRANCH  21  22
ATOM     22  C   UNL     1       4.823   4.435  17.823  0.00  0.00    +0.000 C 
ATOM     23  C   UNL     1       5.257   3.555  16.622  0.00  0.00    +0.000 C 
ATOM     24  C   UNL     1       6.211   4.327  15.695  0.00  0.00    +0.000 C 
ATOM     25  C   UNL     1       5.502   5.592  15.185  0.00  0.00    +0.000 C 
ATOM     26  C   UNL     1       5.127   6.503  16.365  0.00  0.00    +0.000 C 
ATOM     27  C   UNL     1       6.396   6.876  17.148  0.00  0.00    +0.000 C 
ATOM     28  C   UNL     1       7.077   5.604  17.678  0.00  0.00    +0.000 C 
ATOM     29  C   UNL     1       7.467   4.714  16.487  0.00  0.00    +0.000 C 
ATOM     30  C   UNL     1       6.101   4.846  18.594  0.00  0.00    +0.000 C 
ATOM     31  C   UNL     1       4.162   5.745  17.293  0.00  0.00    +0.000 C 
ENDBRANCH  21  22
ENDBRANCH  18  21
ENDBRANCH   1  19
TORSDOF 6
ENDMDL
MODEL 8
REMARK VINA RESULT:      -7.9      1.090      1.847
REMARK  Name = 
REMARK  6 active torsions:
REMARK  status: ('A' for Active; 'I' for Inactive)
REMARK    1  A    between atoms: C_2  and  C_3
REMARK    2  A    between atoms: C_3  and  C_4
REMARK    3  A    between atoms: N_14  and  C_15
REMARK    4  A    between atoms: C_15  and  C_16
REMARK    5  A    between atoms: N_21  and  C_22
REMARK    6  A    between atoms: C_22  and  C_23
REMARK                            x       y       z     vdW  Elec       q    Type
REMARK                         _______ _______ _______ _____ _____    ______ ____
ROOT
ATOM      1  C   UNL     1       0.797   9.378  17.896  0.00  0.00    +0.000 C 
ENDROOT
BRANCH   1   2
ATOM      2  C   UNL     1       1.352  10.704  18.415  0.00  0.00    +0.000 C 
ATOM      3  O   UNL     1       2.459  11.118  18.044  0.00  0.00    +0.000 OA
ATOM      4  N   UNL     1       0.596  11.366  19.357  0.00  0.00    +0.000 N 
ATOM      5  C   UNL     1       1.014  12.685  19.836  0.00  0.00    +0.000 C 
ATOM      6  C   UNL     1      -0.129  13.714  19.665  0.00  0.00    +0.000 C 
ATOM      7  N   UNL     1      -1.448  13.293  20.219  0.00  0.00    +0.000 NA
ATOM      8  C   UNL     1      -1.776  11.981  19.600  0.00  0.00    +0.000 C 
ATOM      9  C   UNL     1      -0.702  10.908  19.851  0.00  0.00    +0.000 C 
BRANCH   7  10
ATOM     10  C   UNL     1      -1.372  13.219  21.709  0.00  0.00    +0.000 C 
BRANCH  10  11
ATOM     11  C   UNL     1      -2.719  13.198  22.430  0.00  0.00    +0.000 A 
ATOM     12  C   UNL     1      -3.793  13.969  21.990  0.00  0.00    +0.000 A 
ATOM     13  C   UNL     1      -4.952  14.031  22.762  0.00  0.00    +0.000 A 
ATOM     14  C   UNL     1      -5.042  13.255  23.910  0.00  0.00    +0.000 A 
ATOM     15  C   UNL     1      -3.970  12.443  24.231  0.00  0.00    +0.000 A 
ATOM     16  N   UNL     1      -2.809  12.413  23.537  0.00  0.00    +0.000 NA
ENDBRANCH  10  11
ENDBRANCH   7  10
ENDBRANCH   1   2
BRANCH   1  19
ATOM     17  O   UNL     1       1.782   7.773  20.012  0.00  0.00    +0.000 OA
ATOM     18  C   UNL     1       2.255   7.627  18.912  0.00  0.00    +0.000 C 
ATOM     19  N   UNL     1       1.840   8.370  17.822  0.00  0.00    +0.000 N 
ATOM     20  H   UNL     1       2.442   8.409  17.025  0.00  0.00    +0.000 HD
BRANCH  18  21
ATOM     21  C   UNL     1       3.358   6.606  18.594  0.00  0.00    +0.000 C 
BRANCH  21  22
ATOM     22  C   UNL     1       2.982   5.123  18.825  0.00  0.00    +0.000 C 
ATOM     23  C   UNL     1       1.729   4.716  18.007  0.00  0.00    +0.000 C 
ATOM     24  C   UNL     1       1.391   3.232  18.227  0.00  0.00    +0.000 C 
ATOM     25  C   UNL     1       2.594   2.375  17.799  0.00  0.00    +0.000 C 
ATOM     26  C   UNL     1       3.824   2.725  18.650  0.00  0.00    +0.000 C 
ATOM     27  C   UNL     1       3.503   2.497  20.136  0.00  0.00    +0.000 C 
ATOM     28  C   UNL     1       2.320   3.383  20.557  0.00  0.00    +0.000 C 
ATOM     29  C   UNL     1       1.091   3.007  19.715  0.00  0.00    +0.000 C 
ATOM     30  C   UNL     1       2.679   4.860  20.319  0.00  0.00    +0.000 C 
ATOM     31  C   UNL     1       4.180   4.205  18.428  0.00  0.00    +0.000 C 
ENDBRANCH  21  22
ENDBRANCH  18  21
ENDBRANCH   1  19
TORSDOF 6
ENDMDL
MODEL 9
REMARK VINA RESULT:      -7.8      1.569      2.370
REMARK  Name = 
REMARK  6 active torsions:
REMARK  status: ('A' for Active; 'I' for Inactive)
REMARK    1  A    between atoms: C_2  and  C_3
REMARK    2  A    between atoms: C_3  and  C_4
REMARK    3  A    between atoms: N_14  and  C_15
REMARK    4  A    between atoms: C_15  and  C_16
REMARK    5  A    between atoms: N_21  and  C_22
REMARK    6  A    between atoms: C_22  and  C_23
REMARK                            x       y       z     vdW  Elec       q    Type
REMARK                         _______ _______ _______ _____ _____    ______ ____
ROOT
ATOM      1  C   UNL     1       1.991   8.714  18.129  0.00  0.00    +0.000 C 
ENDROOT
BRANCH   1   2
ATOM      2  C   UNL     1       1.462   8.806  19.560  0.00  0.00    +0.000 C 
ATOM      3  O   UNL     1       1.855   8.021  20.433  0.00  0.00    +0.000 OA
ATOM      4  N   UNL     1       0.489   9.750  19.801  0.00  0.00    +0.000 N 
ATOM      5  C   UNL     1      -0.004   9.962  21.163  0.00  0.00    +0.000 C 
ATOM      6  C   UNL     1       0.119  11.452  21.562  0.00  0.00    +0.000 C 
ATOM      7  N   UNL     1      -0.462  12.418  20.584  0.00  0.00    +0.000 NA
ATOM      8  C   UNL     1       0.173  12.133  19.270  0.00  0.00    +0.000 C 
ATOM      9  C   UNL     1      -0.030  10.682  18.801  0.00  0.00    +0.000 C 
BRANCH   7  10
ATOM     10  C   UNL     1      -1.947  12.270  20.546  0.00  0.00    +0.000 C 
BRANCH  10  11
ATOM     11  C   UNL     1      -2.694  12.887  21.727  0.00  0.00    +0.000 A 
ATOM     12  C   UNL     1      -2.889  12.184  22.915  0.00  0.00    +0.000 A 
ATOM     13  C   UNL     1      -3.701  12.729  23.907  0.00  0.00    +0.000 A 
ATOM     14  C   UNL     1      -4.229  14.000  23.727  0.00  0.00    +0.000 A 
ATOM     15  C   UNL     1      -3.914  14.675  22.561  0.00  0.00    +0.000 A 
ATOM     16  N   UNL     1      -3.184  14.144  21.553  0.00  0.00    +0.000 NA
ENDBRANCH  10  11
ENDBRANCH   7  10
ENDBRANCH   1   2
BRANCH   1  19
ATOM     17  O   UNL     1       4.570   7.584  17.825  0.00  0.00    +0.000 OA
ATOM     18  C   UNL     1       3.609   6.875  17.658  0.00  0.00    +0.000 C 
ATOM     19  N   UNL     1       2.313   7.343  17.779  0.00  0.00    +0.000 N 
ATOM     20  H   UNL     1       1.581   6.804  17.364  0.00  0.00    +0.000 HD
BRANCH  18  21
ATOM     21  C   UNL     1       3.709   5.384  17.299  0.00  0.00    +0.000 C 
BRANCH  21  22
ATOM     22  C   UNL     1       3.041   4.410  18.298  0.00  0.00    +0.000 C 
ATOM     23  C   UNL     1       1.550   4.166  17.949  0.00  0.00    +0.000 C 
ATOM     24  C   UNL     1       0.914   3.173  18.935  0.00  0.00    +0.000 C 
ATOM     25  C   UNL     1       1.686   1.845  18.878  0.00  0.00    +0.000 C 
ATOM     26  C   UNL     1       3.151   2.065  19.288  0.00  0.00    +0.000 C 
ATOM     27  C   UNL     1       3.205   2.659  20.704  0.00  0.00    +0.000 C 
ATOM     28  C   UNL     1       2.456   4.000  20.738  0.00  0.00    +0.000 C 
ATOM     29  C   UNL     1       0.988   3.761  20.350  0.00  0.00    +0.000 C 
ATOM     30  C   UNL     1       3.105   4.973  19.738  0.00  0.00    +0.000 C 
ATOM     31  C   UNL     1       3.802   3.048  18.299  0.00  0.00    +0.000 C 
ENDBRANCH  21  22
ENDBRANCH  18  21
ENDBRANCH   1  19
TORSDOF 6
ENDMDL
