MODEL 1
REMARK VINA RESULT:      -8.6      0.000      0.000
REMARK  Name = 
REMARK  6 active torsions:
REMARK  status: ('A' for Active; 'I' for Inactive)
REMARK    1  A    between atoms: C_2  and  C_3
REMARK    2  A    between atoms: C_2  and  C_13
REMARK    3  A    between atoms: C_6  and  C_7
REMARK    4  A    between atoms: C_15  and  O_16
REMARK    5  A    between atoms: C_17  and  C_18
REMARK    6  A    between atoms: C_26  and  O_27
REMARK                            x       y       z     vdW  Elec       q    Type
REMARK                         _______ _______ _______ _____ _____    ______ ____
ROOT
ATOM      1  C   UNL     1       2.416   7.111  19.472  0.00  0.00    +0.000 A 
ATOM      2  C   UNL     1       2.355   7.961  18.372  0.00  0.00    +0.000 A 
ATOM      3  C   UNL     1       1.638   9.155  18.473  0.00  0.00    +0.000 A 
ATOM      4  C   UNL     1       0.914   9.523  19.637  0.00  0.00    +0.000 A 
ATOM      5  C   UNL     1       1.028   8.640  20.732  0.00  0.00    +0.000 A 
ATOM      6  C   UNL     1       1.799   7.481  20.663  0.00  0.00    +0.000 A 
ENDROOT
BRANCH   4   7
ATOM      7  C   UNL     1       0.080  10.766  19.663  0.00  0.00    +0.000 A 
ATOM      8  C   UNL     1      -1.268  10.744  19.242  0.00  0.00    +0.000 A 
ATOM      9  C   UNL     1      -2.045  11.898  19.193  0.00  0.00    +0.000 A 
ATOM     10 CL   UNL     1      -3.640  11.822  18.550  0.00  0.00    +0.000 Cl
ATOM     11  C   UNL     1      -1.541  13.107  19.645  0.00  0.00    +0.000 A 
ATOM     12  C   UNL     1      -0.230  13.151  20.109  0.00  0.00    +0.000 A 
ATOM     13 CL   UNL     1       0.400  14.628  20.728  0.00  0.00    +0.000 Cl
ATOM     14  C   UNL     1       0.583  12.012  20.081  0.00  0.00    +0.000 A 
ENDBRANCH   4   7
BRANCH   1  16
ATOM     15  O   UNL     1       3.183   5.054  20.302  0.00  0.00    +0.000 OA
ATOM     16  C   UNL     1       3.151   5.828  19.346  0.00  0.00    +0.000 C 
BRANCH  16  17
ATOM     17  C   UNL     1       3.861   5.480  18.089  0.00  0.00    +0.000 A 
ATOM     18  C   UNL     1       3.677   4.205  17.547  0.00  0.00    +0.000 A 
ATOM     19  C   UNL     1       4.322   3.853  16.359  0.00  0.00    +0.000 A 
ATOM     20  C   UNL     1       5.162   4.768  15.703  0.00  0.00    +0.000 A 
ATOM     21  C   UNL     1       5.344   6.043  16.258  0.00  0.00    +0.000 A 
ATOM     22  C   UNL     1       4.711   6.392  17.452  0.00  0.00    +0.000 A 
BRANCH  20  23
ATOM     23  C   UNL     1       5.884   4.396  14.430  0.00  0.00    +0.000 C 
ATOM     24  F   UNL     1       6.767   5.340  14.007  0.00  0.00    +0.000 F 
ATOM     25  F   UNL     1       6.598   3.243  14.557  0.00  0.00    +0.000 F 
ATOM     26  F   UNL     1       5.027   4.192  13.392  0.00  0.00    +0.000 F 
ENDBRANCH  20  23
ENDBRANCH  16  17
ENDBRANCH   1  16
BRANCH   3  27
ATOM     27  O   UNL     1       1.669  10.000  17.384  0.00  0.00    +0.000 OA
ATOM     28  H   UNL     1       1.935  10.890  17.669  0.00  0.00    +0.000 HD
ENDBRANCH   3  27
BRANCH   5  29
ATOM     29  O   UNL     1       0.394   8.804  21.939  0.00  0.00    +0.000 OA
ATOM     30  H   UNL     1       0.698   8.130  22.565  0.00  0.00    +0.000 HD
ENDBRANCH   5  29
TORSDOF 6
ENDMDL
MODEL 2
REMARK VINA RESULT:      -8.6      0.136      1.840
REMARK  Name = 
REMARK  6 active torsions:
REMARK  status: ('A' for Active; 'I' for Inactive)
REMARK    1  A    between atoms: C_2  and  C_3
REMARK    2  A    between atoms: C_2  and  C_13
REMARK    3  A    between atoms: C_6  and  C_7
REMARK    4  A    between atoms: C_15  and  O_16
REMARK    5  A    between atoms: C_17  and  C_18
REMARK    6  A    between atoms: C_26  and  O_27
REMARK                            x       y       z     vdW  Elec       q    Type
REMARK                         _______ _______ _______ _____ _____    ______ ____
ROOT
ATOM      1  C   UNL     1       2.370   7.130  19.522  0.00  0.00    +0.000 A 
ATOM      2  C   UNL     1       2.315   7.972  18.416  0.00  0.00    +0.000 A 
ATOM      3  C   UNL     1       1.607   9.172  18.507  0.00  0.00    +0.000 A 
ATOM      4  C   UNL     1       0.886   9.554  19.667  0.00  0.00    +0.000 A 
ATOM      5  C   UNL     1       0.993   8.679  20.770  0.00  0.00    +0.000 A 
ATOM      6  C   UNL     1       1.755   7.513  20.710  0.00  0.00    +0.000 A 
ENDROOT
BRANCH   4   7
ATOM      7  C   UNL     1       0.061  10.803  19.683  0.00  0.00    +0.000 A 
ATOM      8  C   UNL     1       0.623  12.040  20.069  0.00  0.00    +0.000 A 
ATOM      9  C   UNL     1      -0.138  13.202  20.156  0.00  0.00    +0.000 A 
ATOM     10 CL   UNL     1       0.581  14.647  20.754  0.00  0.00    +0.000 Cl
ATOM     11  C   UNL     1      -1.472  13.201  19.779  0.00  0.00    +0.000 A 
ATOM     12  C   UNL     1      -2.042  12.007  19.351  0.00  0.00    +0.000 A 
ATOM     13 CL   UNL     1      -3.681  11.993  18.824  0.00  0.00    +0.000 Cl
ATOM     14  C   UNL     1      -1.304  10.818  19.342  0.00  0.00    +0.000 A 
ENDBRANCH   4   7
BRANCH   1  16
ATOM     15  O   UNL     1       3.103   5.064  20.360  0.00  0.00    +0.000 OA
ATOM     16  C   UNL     1       3.096   5.841  19.406  0.00  0.00    +0.000 C 
BRANCH  16  17
ATOM     17  C   UNL     1       3.826   5.490  18.162  0.00  0.00    +0.000 A 
ATOM     18  C   UNL     1       3.524   4.283  17.526  0.00  0.00    +0.000 A 
ATOM     19  C   UNL     1       4.186   3.931  16.347  0.00  0.00    +0.000 A 
ATOM     20  C   UNL     1       5.160   4.777  15.794  0.00  0.00    +0.000 A 
ATOM     21  C   UNL     1       5.460   5.984  16.443  0.00  0.00    +0.000 A 
ATOM     22  C   UNL     1       4.810   6.331  17.629  0.00  0.00    +0.000 A 
BRANCH  20  23
ATOM     23  C   UNL     1       5.901   4.402  14.533  0.00  0.00    +0.000 C 
ATOM     24  F   UNL     1       6.680   3.295  14.667  0.00  0.00    +0.000 F 
ATOM     25  F   UNL     1       5.060   4.147  13.493  0.00  0.00    +0.000 F 
ATOM     26  F   UNL     1       6.730   5.395  14.108  0.00  0.00    +0.000 F 
ENDBRANCH  20  23
ENDBRANCH  16  17
ENDBRANCH   1  16
BRANCH   3  27
ATOM     27  O   UNL     1       1.646  10.008  17.412  0.00  0.00    +0.000 OA
ATOM     28  H   UNL     1       1.419   9.508  16.611  0.00  0.00    +0.000 HD
ENDBRANCH   3  27
BRANCH   5  29
ATOM     29  O   UNL     1       0.360   8.856  21.975  0.00  0.00    +0.000 OA
ATOM     30  H   UNL     1      -0.461   8.343  21.995  0.00  0.00    +0.000 HD
ENDBRANCH   5  29
TORSDOF 6
ENDMDL
MODEL 3
REMARK VINA RESULT:      -8.6      0.078      1.163
REMARK  Name = 
REMARK  6 active torsions:
REMARK  status: ('A' for Active; 'I' for Inactive)
REMARK    1  A    between atoms: C_2  and  C_3
REMARK    2  A    between atoms: C_2  and  C_13
REMARK    3  A    between atoms: C_6  and  C_7
REMARK    4  A    between atoms: C_15  and  O_16
REMARK    5  A    between atoms: C_17  and  C_18
REMARK    6  A    between atoms: C_26  and  O_27
REMARK                            x       y       z     vdW  Elec       q    Type
REMARK                         _______ _______ _______ _____ _____    ______ ____
ROOT
ATOM      1  C   UNL     1       2.386   7.082  19.503  0.00  0.00    +0.000 A 
ATOM      2  C   UNL     1       2.322   7.913  18.390  0.00  0.00    +0.000 A 
ATOM      3  C   UNL     1       1.620   9.117  18.477  0.00  0.00    +0.000 A 
ATOM      4  C   UNL     1       0.914   9.514  19.642  0.00  0.00    +0.000 A 
ATOM      5  C   UNL     1       1.029   8.649  20.752  0.00  0.00    +0.000 A 
ATOM      6  C   UNL     1       1.785   7.480  20.695  0.00  0.00    +0.000 A 
ENDROOT
BRANCH   4   7
ATOM      7  C   UNL     1       0.094  10.766  19.656  0.00  0.00    +0.000 A 
ATOM      8  C   UNL     1      -1.256  10.755  19.240  0.00  0.00    +0.000 A 
ATOM      9  C   UNL     1      -2.020  11.918  19.180  0.00  0.00    +0.000 A 
ATOM     10 CL   UNL     1      -3.618  11.852  18.544  0.00  0.00    +0.000 Cl
ATOM     11  C   UNL     1      -1.499  13.126  19.613  0.00  0.00    +0.000 A 
ATOM     12  C   UNL     1      -0.186  13.160  20.072  0.00  0.00    +0.000 A 
ATOM     13 CL   UNL     1       0.463  14.639  20.669  0.00  0.00    +0.000 Cl
ATOM     14  C   UNL     1       0.613  12.012  20.056  0.00  0.00    +0.000 A 
ENDBRANCH   4   7
BRANCH   1  16
ATOM     15  O   UNL     1       3.131   5.027  20.359  0.00  0.00    +0.000 OA
ATOM     16  C   UNL     1       3.104   5.788  19.393  0.00  0.00    +0.000 C 
BRANCH  16  17
ATOM     17  C   UNL     1       3.803   5.414  18.137  0.00  0.00    +0.000 A 
ATOM     18  C   UNL     1       4.723   6.312  17.590  0.00  0.00    +0.000 A 
ATOM     19  C   UNL     1       5.406   5.983  16.416  0.00  0.00    +0.000 A 
ATOM     20  C   UNL     1       5.173   4.756  15.774  0.00  0.00    +0.000 A 
ATOM     21  C   UNL     1       4.244   3.863  16.329  0.00  0.00    +0.000 A 
ATOM     22  C   UNL     1       3.551   4.196  17.494  0.00  0.00    +0.000 A 
BRANCH  20  23
ATOM     23  C   UNL     1       5.885   4.394  14.492  0.00  0.00    +0.000 C 
ATOM     24  F   UNL     1       5.045   4.162  13.448  0.00  0.00    +0.000 F 
ATOM     25  F   UNL     1       6.739   5.371  14.079  0.00  0.00    +0.000 F 
ATOM     26  F   UNL     1       6.640   3.269  14.624  0.00  0.00    +0.000 F 
ENDBRANCH  20  23
ENDBRANCH  16  17
ENDBRANCH   1  16
BRANCH   3  27
ATOM     27  O   UNL     1       1.649   9.942  17.374  0.00  0.00    +0.000 OA
ATOM     28  H   UNL     1       2.529   9.911  16.965  0.00  0.00    +0.000 HD
ENDBRANCH   3  27
BRANCH   5  29
ATOM     29  O   UNL     1       0.411   8.841  21.962  0.00  0.00    +0.000 OA
ATOM     30  H   UNL     1      -0.420   8.344  21.991  0.00  0.00    +0.000 HD
ENDBRANCH   5  29
TORSDOF 6
ENDMDL
MODEL 4
REMARK VINA RESULT:      -8.5      5.561      9.123
REMARK  Name = 
REMARK  6 active torsions:
REMARK  status: ('A' for Active; 'I' for Inactive)
REMARK    1  A    between atoms: C_2  and  C_3
REMARK    2  A    between atoms: C_2  and  C_13
REMARK    3  A    between atoms: C_6  and  C_7
REMARK    4  A    between atoms: C_15  and  O_16
REMARK    5  A    between atoms: C_17  and  C_18
REMARK    6  A    between atoms: C_26  and  O_27
REMARK                            x       y       z     vdW  Elec       q    Type
REMARK                         _______ _______ _______ _____ _____    ______ ____
ROOT
ATOM      1  C   UNL     1       1.126   9.526  19.478  0.00  0.00    +0.000 A 
ATOM      2  C   UNL     1       1.200   8.487  20.399  0.00  0.00    +0.000 A 
ATOM      3  C   UNL     1       1.949   7.350  20.087  0.00  0.00    +0.000 A 
ATOM      4  C   UNL     1       2.600   7.177  18.839  0.00  0.00    +0.000 A 
ATOM      5  C   UNL     1       2.516   8.268  17.947  0.00  0.00    +0.000 A 
ATOM      6  C   UNL     1       1.829   9.435  18.279  0.00  0.00    +0.000 A 
ENDROOT
BRANCH   4   7
ATOM      7  C   UNL     1       3.309   5.899  18.512  0.00  0.00    +0.000 A 
ATOM      8  C   UNL     1       4.719   5.834  18.498  0.00  0.00    +0.000 A 
ATOM      9  C   UNL     1       5.402   4.677  18.133  0.00  0.00    +0.000 A 
ATOM     10 CL   UNL     1       7.119   4.704  18.014  0.00  0.00    +0.000 Cl
ATOM     11  C   UNL     1       4.710   3.510  17.851  0.00  0.00    +0.000 A 
ATOM     12  C   UNL     1       3.320   3.531  17.902  0.00  0.00    +0.000 A 
ATOM     13 CL   UNL     1       2.441   2.079  17.612  0.00  0.00    +0.000 Cl
ATOM     14  C   UNL     1       2.626   4.712  18.186  0.00  0.00    +0.000 A 
ENDBRANCH   4   7
BRANCH   1  16
ATOM     15  O   UNL     1       0.723  11.543  20.608  0.00  0.00    +0.000 OA
ATOM     16  C   UNL     1       0.300  10.715  19.802  0.00  0.00    +0.000 C 
BRANCH  16  17
ATOM     17  C   UNL     1      -1.035  10.905  19.180  0.00  0.00    +0.000 A 
ATOM     18  C   UNL     1      -1.385  10.103  18.090  0.00  0.00    +0.000 A 
ATOM     19  C   UNL     1      -2.639  10.250  17.491  0.00  0.00    +0.000 A 
ATOM     20  C   UNL     1      -3.553  11.203  17.970  0.00  0.00    +0.000 A 
ATOM     21  C   UNL     1      -3.189  12.006  19.061  0.00  0.00    +0.000 A 
ATOM     22  C   UNL     1      -1.932  11.870  19.652  0.00  0.00    +0.000 A 
BRANCH  20  23
ATOM     23  C   UNL     1      -4.903  11.390  17.320  0.00  0.00    +0.000 C 
ATOM     24  F   UNL     1      -5.905  10.706  17.936  0.00  0.00    +0.000 F 
ATOM     25  F   UNL     1      -5.294  12.695  17.303  0.00  0.00    +0.000 F 
ATOM     26  F   UNL     1      -4.911  10.981  16.022  0.00  0.00    +0.000 F 
ENDBRANCH  20  23
ENDBRANCH  16  17
ENDBRANCH   1  16
BRANCH   3  27
ATOM     27  O   UNL     1       2.055   6.381  21.062  0.00  0.00    +0.000 OA
ATOM     28  H   UNL     1       2.692   6.667  21.738  0.00  0.00    +0.000 HD
ENDBRANCH   3  27
BRANCH   5  29
ATOM     29  O   UNL     1       3.059   8.294  16.687  0.00  0.00    +0.000 OA
ATOM     30  H   UNL     1       2.804   7.496  16.202  0.00  0.00    +0.000 HD
ENDBRANCH   5  29
TORSDOF 6
ENDMDL
MODEL 5
REMARK VINA RESULT:      -8.5      0.422      1.791
REMARK  Name = 
REMARK  6 active torsions:
REMARK  status: ('A' for Active; 'I' for Inactive)
REMARK    1  A    between atoms: C_2  and  C_3
REMARK    2  A    between atoms: C_2  and  C_13
REMARK    3  A    between atoms: C_6  and  C_7
REMARK    4  A    between atoms: C_15  and  O_16
REMARK    5  A    between atoms: C_17  and  C_18
REMARK    6  A    between atoms: C_26  and  O_27
REMARK                            x       y       z     vdW  Elec       q    Type
REMARK                         _______ _______ _______ _____ _____    ______ ____
ROOT
ATOM      1  C   UNL     1       2.325   7.151  19.457  0.00  0.00    +0.000 A 
ATOM      2  C   UNL     1       1.706   7.475  20.660  0.00  0.00    +0.000 A 
ATOM      3  C   UNL     1       1.010   8.681  20.766  0.00  0.00    +0.000 A 
ATOM      4  C   UNL     1       0.949   9.629  19.712  0.00  0.00    +0.000 A 
ATOM      5  C   UNL     1       1.571   9.244  18.505  0.00  0.00    +0.000 A 
ATOM      6  C   UNL     1       2.208   8.012  18.369  0.00  0.00    +0.000 A 
ENDROOT
BRANCH   4   7
ATOM      7  C   UNL     1       0.274  10.951  19.907  0.00  0.00    +0.000 A 
ATOM      8  C   UNL     1      -1.128  11.075  19.793  0.00  0.00    +0.000 A 
ATOM      9  C   UNL     1      -1.773  12.304  19.903  0.00  0.00    +0.000 A 
ATOM     10 CL   UNL     1      -3.469  12.402  19.628  0.00  0.00    +0.000 Cl
ATOM     11  C   UNL     1      -1.059  13.448  20.218  0.00  0.00    +0.000 A 
ATOM     12  C   UNL     1       0.319  13.350  20.381  0.00  0.00    +0.000 A 
ATOM     13 CL   UNL     1       1.220  14.748  20.829  0.00  0.00    +0.000 Cl
ATOM     14  C   UNL     1       0.984  12.134  20.189  0.00  0.00    +0.000 A 
ENDBRANCH   4   7
BRANCH   1  16
ATOM     15  O   UNL     1       3.141   5.133  20.335  0.00  0.00    +0.000 OA
ATOM     16  C   UNL     1       3.092   5.884  19.362  0.00  0.00    +0.000 C 
BRANCH  16  17
ATOM     17  C   UNL     1       3.813   5.525  18.115  0.00  0.00    +0.000 A 
ATOM     18  C   UNL     1       3.695   4.223  17.624  0.00  0.00    +0.000 A 
ATOM     19  C   UNL     1       4.353   3.859  16.446  0.00  0.00    +0.000 A 
ATOM     20  C   UNL     1       5.140   4.791  15.750  0.00  0.00    +0.000 A 
ATOM     21  C   UNL     1       5.256   6.095  16.254  0.00  0.00    +0.000 A 
ATOM     22  C   UNL     1       4.611   6.456  17.438  0.00  0.00    +0.000 A 
BRANCH  20  23
ATOM     23  C   UNL     1       5.876   4.408  14.488  0.00  0.00    +0.000 C 
ATOM     24  F   UNL     1       6.608   3.268  14.607  0.00  0.00    +0.000 F 
ATOM     25  F   UNL     1       5.033   4.206  13.437  0.00  0.00    +0.000 F 
ATOM     26  F   UNL     1       6.747   5.374  14.087  0.00  0.00    +0.000 F 
ENDBRANCH  20  23
ENDBRANCH  16  17
ENDBRANCH   1  16
BRANCH   3  27
ATOM     27  O   UNL     1       0.350   8.922  21.951  0.00  0.00    +0.000 OA
ATOM     28  H   UNL     1       0.988   8.942  22.683  0.00  0.00    +0.000 HD
ENDBRANCH   3  27
BRANCH   5  29
ATOM     29  O   UNL     1       1.640  10.022  17.377  0.00  0.00    +0.000 OA
ATOM     30  H   UNL     1       1.390   9.501  16.600  0.00  0.00    +0.000 HD
ENDBRANCH   5  29
TORSDOF 6
ENDMDL
MODEL 6
REMARK VINA RESULT:      -8.5      0.500      2.360
REMARK  Name = 
REMARK  6 active torsions:
REMARK  status: ('A' for Active; 'I' for Inactive)
REMARK    1  A    between atoms: C_2  and  C_3
REMARK    2  A    between atoms: C_2  and  C_13
REMARK    3  A    between atoms: C_6  and  C_7
REMARK    4  A    between atoms: C_15  and  O_16
REMARK    5  A    between atoms: C_17  and  C_18
REMARK    6  A    between atoms: C_26  and  O_27
REMARK                            x       y       z     vdW  Elec       q    Type
REMARK                         _______ _______ _______ _____ _____    ______ ____
ROOT
ATOM      1  C   UNL     1       2.311   7.169  19.481  0.00  0.00    +0.000 A 
ATOM      2  C   UNL     1       1.697   7.495  20.685  0.00  0.00    +0.000 A 
ATOM      3  C   UNL     1       1.010   8.706  20.794  0.00  0.00    +0.000 A 
ATOM      4  C   UNL     1       0.953   9.656  19.741  0.00  0.00    +0.000 A 
ATOM      5  C   UNL     1       1.570   9.268  18.533  0.00  0.00    +0.000 A 
ATOM      6  C   UNL     1       2.198   8.031  18.394  0.00  0.00    +0.000 A 
ENDROOT
BRANCH   4   7
ATOM      7  C   UNL     1       0.288  10.982  19.938  0.00  0.00    +0.000 A 
ATOM      8  C   UNL     1       1.044  12.136  20.242  0.00  0.00    +0.000 A 
ATOM      9  C   UNL     1       0.445  13.367  20.495  0.00  0.00    +0.000 A 
ATOM     10 CL   UNL     1       1.416  14.701  20.984  0.00  0.00    +0.000 Cl
ATOM     11  C   UNL     1      -0.926  13.522  20.371  0.00  0.00    +0.000 A 
ATOM     12  C   UNL     1      -1.694  12.413  20.028  0.00  0.00    +0.000 A 
ATOM     13 CL   UNL     1      -3.392  12.594  19.811  0.00  0.00    +0.000 Cl
ATOM     14  C   UNL     1      -1.106  11.155  19.854  0.00  0.00    +0.000 A 
ENDBRANCH   4   7
BRANCH   1  16
ATOM     15  O   UNL     1       3.105   5.138  20.352  0.00  0.00    +0.000 OA
ATOM     16  C   UNL     1       3.069   5.896  19.384  0.00  0.00    +0.000 C 
BRANCH  16  17
ATOM     17  C   UNL     1       3.798   5.541  18.139  0.00  0.00    +0.000 A 
ATOM     18  C   UNL     1       3.652   4.250  17.624  0.00  0.00    +0.000 A 
ATOM     19  C   UNL     1       4.316   3.890  16.449  0.00  0.00    +0.000 A 
ATOM     20  C   UNL     1       5.136   4.812  15.778  0.00  0.00    +0.000 A 
ATOM     21  C   UNL     1       5.279   6.104  16.307  0.00  0.00    +0.000 A 
ATOM     22  C   UNL     1       4.628   6.462  17.489  0.00  0.00    +0.000 A 
BRANCH  20  23
ATOM     23  C   UNL     1       5.878   4.433  14.519  0.00  0.00    +0.000 C 
ATOM     24  F   UNL     1       6.733   5.394  14.079  0.00  0.00    +0.000 F 
ATOM     25  F   UNL     1       6.627   3.306  14.678  0.00  0.00    +0.000 F 
ATOM     26  F   UNL     1       5.034   4.177  13.482  0.00  0.00    +0.000 F 
ENDBRANCH  20  23
ENDBRANCH  16  17
ENDBRANCH   1  16
BRANCH   3  27
ATOM     27  O   UNL     1       0.354   8.951  21.981  0.00  0.00    +0.000 OA
ATOM     28  H   UNL     1       0.857   9.595  22.506  0.00  0.00    +0.000 HD
ENDBRANCH   3  27
BRANCH   5  29
ATOM     29  O   UNL     1       1.642  10.046  17.405  0.00  0.00    +0.000 OA
ATOM     30  H   UNL     1       0.944  10.718  17.422  0.00  0.00    +0.000 HD
ENDBRANCH   5  29
TORSDOF 6
ENDMDL
MODEL 7
REMARK VINA RESULT:      -8.5      5.554      8.968
REMARK  Name = 
REMARK  6 active torsions:
REMARK  status: ('A' for Active; 'I' for Inactive)
REMARK    1  A    between atoms: C_2  and  C_3
REMARK    2  A    between atoms: C_2  and  C_13
REMARK    3  A    between atoms: C_6  and  C_7
REMARK    4  A    between atoms: C_15  and  O_16
REMARK    5  A    between atoms: C_17  and  C_18
REMARK    6  A    between atoms: C_26  and  O_27
REMARK                            x       y       z     vdW  Elec       q    Type
REMARK                         _______ _______ _______ _____ _____    ______ ____
ROOT
ATOM      1  C   UNL     1       1.092   9.529  19.486  0.00  0.00    +0.000 A 
ATOM      2  C   UNL     1       1.188   8.479  20.392  0.00  0.00    +0.000 A 
ATOM      3  C   UNL     1       1.955   7.360  20.061  0.00  0.00    +0.000 A 
ATOM      4  C   UNL     1       2.605   7.216  18.808  0.00  0.00    +0.000 A 
ATOM      5  C   UNL     1       2.498   8.319  17.933  0.00  0.00    +0.000 A 
ATOM      6  C   UNL     1       1.791   9.468  18.284  0.00  0.00    +0.000 A 
ENDROOT
BRANCH   4   7
ATOM      7  C   UNL     1       3.334   5.956  18.460  0.00  0.00    +0.000 A 
ATOM      8  C   UNL     1       2.630   4.774  18.141  0.00  0.00    +0.000 A 
ATOM      9  C   UNL     1       3.284   3.573  17.879  0.00  0.00    +0.000 A 
ATOM     10 CL   UNL     1       2.362   2.142  17.621  0.00  0.00    +0.000 Cl
ATOM     11  C   UNL     1       4.667   3.518  17.838  0.00  0.00    +0.000 A 
ATOM     12  C   UNL     1       5.388   4.678  18.104  0.00  0.00    +0.000 A 
ATOM     13 CL   UNL     1       7.107   4.647  18.003  0.00  0.00    +0.000 Cl
ATOM     14  C   UNL     1       4.739   5.868  18.450  0.00  0.00    +0.000 A 
ENDBRANCH   4   7
BRANCH   1  16
ATOM     15  O   UNL     1       0.643  11.505  20.672  0.00  0.00    +0.000 OA
ATOM     16  C   UNL     1       0.247  10.700  19.831  0.00  0.00    +0.000 C 
BRANCH  16  17
ATOM     17  C   UNL     1      -1.077  10.896  19.186  0.00  0.00    +0.000 A 
ATOM     18  C   UNL     1      -1.394  10.130  18.061  0.00  0.00    +0.000 A 
ATOM     19  C   UNL     1      -2.636  10.284  17.440  0.00  0.00    +0.000 A 
ATOM     20  C   UNL     1      -3.572  11.207  17.933  0.00  0.00    +0.000 A 
ATOM     21  C   UNL     1      -3.242  11.975  19.060  0.00  0.00    +0.000 A 
ATOM     22  C   UNL     1      -1.996  11.832  19.674  0.00  0.00    +0.000 A 
BRANCH  20  23
ATOM     23  C   UNL     1      -4.910  11.402  17.261  0.00  0.00    +0.000 C 
ATOM     24  F   UNL     1      -5.933  10.755  17.882  0.00  0.00    +0.000 F 
ATOM     25  F   UNL     1      -5.275  12.713  17.201  0.00  0.00    +0.000 F 
ATOM     26  F   UNL     1      -4.910  10.955  15.975  0.00  0.00    +0.000 F 
ENDBRANCH  20  23
ENDBRANCH  16  17
ENDBRANCH   1  16
BRANCH   3  27
ATOM     27  O   UNL     1       2.082   6.379  21.021  0.00  0.00    +0.000 OA
ATOM     28  H   UNL     1       1.207   6.016  21.235  0.00  0.00    +0.000 HD
ENDBRANCH   3  27
BRANCH   5  29
ATOM     29  O   UNL     1       3.036   8.373  16.672  0.00  0.00    +0.000 OA
ATOM     30  H   UNL     1       2.330   8.339  16.010  0.00  0.00    +0.000 HD
ENDBRANCH   5  29
TORSDOF 6
ENDMDL
MODEL 8
REMARK VINA RESULT:      -8.5      0.411      2.012
REMARK  Name = 
REMARK  6 active torsions:
REMARK  status: ('A' for Active; 'I' for Inactive)
REMARK    1  A    between atoms: C_2  and  C_3
REMARK    2  A    between atoms: C_2  and  C_13
REMARK    3  A    between atoms: C_6  and  C_7
REMARK    4  A    between atoms: C_15  and  O_16
REMARK    5  A    between atoms: C_17  and  C_18
REMARK    6  A    between atoms: C_26  and  O_27
REMARK                            x       y       z     vdW  Elec       q    Type
REMARK                         _______ _______ _______ _____ _____    ______ ____
ROOT
ATOM      1  C   UNL     1       2.326   7.144  19.491  0.00  0.00    +0.000 A 
ATOM      2  C   UNL     1       1.710   7.488  20.689  0.00  0.00    +0.000 A 
ATOM      3  C   UNL     1       1.010   8.694  20.775  0.00  0.00    +0.000 A 
ATOM      4  C   UNL     1       0.943   9.622  19.703  0.00  0.00    +0.000 A 
ATOM      5  C   UNL     1       1.563   9.216  18.502  0.00  0.00    +0.000 A 
ATOM      6  C   UNL     1       2.203   7.984  18.387  0.00  0.00    +0.000 A 
ENDROOT
BRANCH   4   7
ATOM      7  C   UNL     1       0.265  10.945  19.875  0.00  0.00    +0.000 A 
ATOM      8  C   UNL     1      -1.138  11.062  19.767  0.00  0.00    +0.000 A 
ATOM      9  C   UNL     1      -1.787  12.291  19.856  0.00  0.00    +0.000 A 
ATOM     10 CL   UNL     1      -3.485  12.377  19.590  0.00  0.00    +0.000 Cl
ATOM     11  C   UNL     1      -1.075  13.444  20.143  0.00  0.00    +0.000 A 
ATOM     12  C   UNL     1       0.305  13.354  20.300  0.00  0.00    +0.000 A 
ATOM     13 CL   UNL     1       1.203  14.763  20.713  0.00  0.00    +0.000 Cl
ATOM     14  C   UNL     1       0.972  12.136  20.129  0.00  0.00    +0.000 A 
ENDBRANCH   4   7
BRANCH   1  16
ATOM     15  O   UNL     1       3.164   5.153  20.410  0.00  0.00    +0.000 OA
ATOM     16  C   UNL     1       3.096   5.877  19.418  0.00  0.00    +0.000 C 
BRANCH  16  17
ATOM     17  C   UNL     1       3.800   5.488  18.169  0.00  0.00    +0.000 A 
ATOM     18  C   UNL     1       4.741   6.368  17.629  0.00  0.00    +0.000 A 
ATOM     19  C   UNL     1       5.428   6.024  16.462  0.00  0.00    +0.000 A 
ATOM     20  C   UNL     1       5.177   4.801  15.819  0.00  0.00    +0.000 A 
ATOM     21  C   UNL     1       4.227   3.927  16.366  0.00  0.00    +0.000 A 
ATOM     22  C   UNL     1       3.530   4.275  17.525  0.00  0.00    +0.000 A 
BRANCH  20  23
ATOM     23  C   UNL     1       5.894   4.424  14.544  0.00  0.00    +0.000 C 
ATOM     24  F   UNL     1       5.057   4.133  13.512  0.00  0.00    +0.000 F 
ATOM     25  F   UNL     1       6.713   5.415  14.097  0.00  0.00    +0.000 F 
ATOM     26  F   UNL     1       6.686   3.328  14.704  0.00  0.00    +0.000 F 
ENDBRANCH  20  23
ENDBRANCH  16  17
ENDBRANCH   1  16
BRANCH   3  27
ATOM     27  O   UNL     1       0.353   8.956  21.957  0.00  0.00    +0.000 OA
ATOM     28  H   UNL     1       0.355   8.161  22.515  0.00  0.00    +0.000 HD
ENDBRANCH   3  27
BRANCH   5  29
ATOM     29  O   UNL     1       1.626   9.973  17.359  0.00  0.00    +0.000 OA
ATOM     30  H   UNL     1       1.699   9.396  16.585  0.00  0.00    +0.000 HD
ENDBRANCH   5  29
TORSDOF 6
ENDMDL
MODEL 9
REMARK VINA RESULT:      -8.5      0.604      2.135
REMARK  Name = 
REMARK  6 active torsions:
REMARK  status: ('A' for Active; 'I' for Inactive)
REMARK    1  A    between atoms: C_2  and  C_3
REMARK    2  A    between atoms: C_2  and  C_13
REMARK    3  A    between atoms: C_6  and  C_7
REMARK    4  A    between atoms: C_15  and  O_16
REMARK    5  A    between atoms: C_17  and  C_18
REMARK    6  A    between atoms: C_26  and  O_27
REMARK                            x       y       z     vdW  Elec       q    Type
REMARK                         _______ _______ _______ _____ _____    ______ ____
ROOT
ATOM      1  C   UNL     1       2.278   7.064  19.673  0.00  0.00    +0.000 A 
ATOM      2  C   UNL     1       2.258   7.864  18.536  0.00  0.00    +0.000 A 
ATOM      3  C   UNL     1       1.600   9.094  18.578  0.00  0.00    +0.000 A 
ATOM      4  C   UNL     1       0.894   9.550  19.722  0.00  0.00    +0.000 A 
ATOM      5  C   UNL     1       0.963   8.714  20.857  0.00  0.00    +0.000 A 
ATOM      6  C   UNL     1       1.677   7.517  20.844  0.00  0.00    +0.000 A 
ENDROOT
BRANCH   4   7
ATOM      7  C   UNL     1       0.120  10.831  19.688  0.00  0.00    +0.000 A 
ATOM      8  C   UNL     1       0.758  12.070  19.915  0.00  0.00    +0.000 A 
ATOM      9  C   UNL     1       0.050  13.269  19.955  0.00  0.00    +0.000 A 
ATOM     10 CL   UNL     1       0.869  14.727  20.362  0.00  0.00    +0.000 Cl
ATOM     11  C   UNL     1      -1.308  13.295  19.683  0.00  0.00    +0.000 A 
ATOM     12  C   UNL     1      -1.956  12.094  19.410  0.00  0.00    +0.000 A 
ATOM     13 CL   UNL     1      -3.631  12.107  19.013  0.00  0.00    +0.000 Cl
ATOM     14  C   UNL     1      -1.267  10.877  19.451  0.00  0.00    +0.000 A 
ENDBRANCH   4   7
BRANCH   1  16
ATOM     15  O   UNL     1       2.785   4.935  20.524  0.00  0.00    +0.000 OA
ATOM     16  C   UNL     1       2.950   5.742  19.610  0.00  0.00    +0.000 C 
BRANCH  16  17
ATOM     17  C   UNL     1       3.832   5.394  18.467  0.00  0.00    +0.000 A 
ATOM     18  C   UNL     1       5.074   6.025  18.363  0.00  0.00    +0.000 A 
ATOM     19  C   UNL     1       5.930   5.709  17.305  0.00  0.00    +0.000 A 
ATOM     20  C   UNL     1       5.553   4.764  16.337  0.00  0.00    +0.000 A 
ATOM     21  C   UNL     1       4.302   4.139  16.448  0.00  0.00    +0.000 A 
ATOM     22  C   UNL     1       3.439   4.463  17.497  0.00  0.00    +0.000 A 
BRANCH  20  23
ATOM     23  C   UNL     1       6.457   4.427  15.175  0.00  0.00    +0.000 C 
ATOM     24  F   UNL     1       6.196   3.216  14.614  0.00  0.00    +0.000 F 
ATOM     25  F   UNL     1       6.366   5.337  14.166  0.00  0.00    +0.000 F 
ATOM     26  F   UNL     1       7.769   4.399  15.536  0.00  0.00    +0.000 F 
ENDBRANCH  20  23
ENDBRANCH  16  17
ENDBRANCH   1  16
BRANCH   3  27
ATOM     27  O   UNL     1       1.673   9.885  17.452  0.00  0.00    +0.000 OA
ATOM     28  H   UNL     1       2.567   9.834  17.075  0.00  0.00    +0.000 HD
ENDBRANCH   3  27
BRANCH   5  29
ATOM     29  O   UNL     1       0.337   8.964  22.053  0.00  0.00    +0.000 OA
ATOM     30  H   UNL     1      -0.547   9.326  21.893  0.00  0.00    +0.000 HD
ENDBRANCH   5  29
TORSDOF 6
ENDMDL
