MODEL 1
REMARK VINA RESULT:      -7.8      0.000      0.000
REMARK  Name = 
REMARK  3 active torsions:
REMARK  status: ('A' for Active; 'I' for Inactive)
REMARK    1  A    between atoms: C_2  and  C_5
REMARK    2  A    between atoms: C_7  and  C_8
REMARK    3  A    between atoms: C_16  and  C_17
REMARK                            x       y       z     vdW  Elec       q    Type
REMARK                         _______ _______ _______ _____ _____    ______ ____
ROOT
ATOM      1  C   UNL     1       2.517   4.883  19.769  0.00  0.00    +0.000 A 
ATOM      2  C   UNL     1       3.277   4.478  18.729  0.00  0.00    +0.000 A 
ATOM      3  C   UNL     1       3.766   5.531  17.773  0.00  0.00    +0.000 A 
ATOM      4  N   UNL     1       3.419   6.788  17.868  0.00  0.00    +0.000 NA
ATOM      5  C   UNL     1       2.612   7.140  18.908  0.00  0.00    +0.000 A 
ATOM      6  C   UNL     1       2.055   8.353  19.243  0.00  0.00    +0.000 A 
ATOM      7  C   UNL     1       1.363   8.125  20.445  0.00  0.00    +0.000 A 
ATOM      8  N   UNL     1       1.460   6.850  20.839  0.00  0.00    +0.000 NA
ATOM      9  N   UNL     1       2.183   6.226  19.881  0.00  0.00    +0.000 N 
ENDROOT
BRANCH   3  10
ATOM     10  C   UNL     1       4.680   5.095  16.724  0.00  0.00    +0.000 A 
ATOM     11  N   UNL     1       5.045   3.836  16.569  0.00  0.00    +0.000 NA
ATOM     12  C   UNL     1       5.959   3.742  15.536  0.00  0.00    +0.000 A 
ATOM     13  C   UNL     1       6.285   4.929  14.919  0.00  0.00    +0.000 A 
ATOM     14  S   UNL     1       5.400   6.211  15.632  0.00  0.00    +0.000 S 
ENDBRANCH   3  10
BRANCH   7  15
ATOM     15  C   UNL     1       0.587   9.137  21.233  0.00  0.00    +0.000 A 
ATOM     16  C   UNL     1       0.192   8.954  22.543  0.00  0.00    +0.000 A 
ATOM     17  C   UNL     1      -0.556  10.061  23.042  0.00  0.00    +0.000 A 
ATOM     18  C   UNL     1      -0.703  11.049  22.096  0.00  0.00    +0.000 A 
ATOM     19  S   UNL     1       0.077  10.650  20.626  0.00  0.00    +0.000 S 
ENDBRANCH   7  15
BRANCH   1  21
ATOM     20  F   UNL     1       2.375   4.141  22.062  0.00  0.00    +0.000 F 
ATOM     21  C   UNL     1       2.019   3.918  20.777  0.00  0.00    +0.000 C 
ATOM     22  F   UNL     1       2.435   2.657  20.479  0.00  0.00    +0.000 F 
ATOM     23  F   UNL     1       0.657   3.871  20.763  0.00  0.00    +0.000 F 
ENDBRANCH   1  21
TORSDOF 3
ENDMDL
MODEL 2
REMARK VINA RESULT:      -7.5      4.600      5.659
REMARK  Name = 
REMARK  3 active torsions:
REMARK  status: ('A' for Active; 'I' for Inactive)
REMARK    1  A    between atoms: C_2  and  C_5
REMARK    2  A    between atoms: C_7  and  C_8
REMARK    3  A    between atoms: C_16  and  C_17
REMARK                            x       y       z     vdW  Elec       q    Type
REMARK                         _______ _______ _______ _____ _____    ______ ____
ROOT
ATOM      1  C   UNL     1       6.900   5.087  17.774  0.00  0.00    +0.000 A 
ATOM      2  C   UNL     1       7.369   5.100  16.507  0.00  0.00    +0.000 A 
ATOM      3  C   UNL     1       6.482   4.536  15.432  0.00  0.00    +0.000 A 
ATOM      4  N   UNL     1       5.331   3.972  15.687  0.00  0.00    +0.000 NA
ATOM      5  C   UNL     1       4.922   3.941  16.988  0.00  0.00    +0.000 A 
ATOM      6  C   UNL     1       3.801   3.391  17.565  0.00  0.00    +0.000 A 
ATOM      7  C   UNL     1       3.885   3.717  18.928  0.00  0.00    +0.000 A 
ATOM      8  N   UNL     1       4.993   4.414  19.203  0.00  0.00    +0.000 NA
ATOM      9  N   UNL     1       5.660   4.518  18.031  0.00  0.00    +0.000 N 
ENDROOT
BRANCH   3  10
ATOM     10  C   UNL     1       6.952   4.663  14.058  0.00  0.00    +0.000 A 
ATOM     11  N   UNL     1       7.861   5.548  13.689  0.00  0.00    +0.000 NA
ATOM     12  C   UNL     1       8.056   5.470  12.322  0.00  0.00    +0.000 A 
ATOM     13  C   UNL     1       7.292   4.532  11.664  0.00  0.00    +0.000 A 
ATOM     14  S   UNL     1       6.310   3.695  12.790  0.00  0.00    +0.000 S 
ENDBRANCH   3  10
BRANCH   7  15
ATOM     15  C   UNL     1       2.897   3.353  19.996  0.00  0.00    +0.000 A 
ATOM     16  C   UNL     1       3.200   2.572  21.092  0.00  0.00    +0.000 A 
ATOM     17  C   UNL     1       2.069   2.359  21.934  0.00  0.00    +0.000 A 
ATOM     18  C   UNL     1       0.944   2.987  21.451  0.00  0.00    +0.000 A 
ATOM     19  S   UNL     1       1.260   3.845  20.004  0.00  0.00    +0.000 S 
ENDBRANCH   7  15
BRANCH   1  21
ATOM     20  F   UNL     1       7.045   5.839  20.064  0.00  0.00    +0.000 F 
ATOM     21  C   UNL     1       7.693   5.651  18.892  0.00  0.00    +0.000 C 
ATOM     22  F   UNL     1       8.216   6.858  18.546  0.00  0.00    +0.000 F 
ATOM     23  F   UNL     1       8.761   4.852  19.172  0.00  0.00    +0.000 F 
ENDBRANCH   1  21
TORSDOF 3
ENDMDL
MODEL 3
REMARK VINA RESULT:      -7.5      0.799      1.003
REMARK  Name = 
REMARK  3 active torsions:
REMARK  status: ('A' for Active; 'I' for Inactive)
REMARK    1  A    between atoms: C_2  and  C_5
REMARK    2  A    between atoms: C_7  and  C_8
REMARK    3  A    between atoms: C_16  and  C_17
REMARK                            x       y       z     vdW  Elec       q    Type
REMARK                         _______ _______ _______ _____ _____    ______ ____
ROOT
ATOM      1  C   UNL     1       2.674   5.004  19.712  0.00  0.00    +0.000 A 
ATOM      2  C   UNL     1       3.507   4.568  18.742  0.00  0.00    +0.000 A 
ATOM      3  C   UNL     1       4.031   5.584  17.767  0.00  0.00    +0.000 A 
ATOM      4  N   UNL     1       3.651   6.836  17.776  0.00  0.00    +0.000 NA
ATOM      5  C   UNL     1       2.773   7.218  18.746  0.00  0.00    +0.000 A 
ATOM      6  C   UNL     1       2.169   8.431  18.985  0.00  0.00    +0.000 A 
ATOM      7  C   UNL     1       1.408   8.245  20.152  0.00  0.00    +0.000 A 
ATOM      8  N   UNL     1       1.509   6.994  20.615  0.00  0.00    +0.000 NA
ATOM      9  N   UNL     1       2.305   6.342  19.736  0.00  0.00    +0.000 N 
ENDROOT
BRANCH   3  10
ATOM     10  C   UNL     1       5.018   5.121  16.799  0.00  0.00    +0.000 A 
ATOM     11  N   UNL     1       4.806   4.095  15.995  0.00  0.00    +0.000 NA
ATOM     12  C   UNL     1       5.940   3.857  15.238  0.00  0.00    +0.000 A 
ATOM     13  C   UNL     1       7.002   4.700  15.477  0.00  0.00    +0.000 A 
ATOM     14  S   UNL     1       6.570   5.850  16.670  0.00  0.00    +0.000 S 
ENDBRANCH   3  10
BRANCH   7  15
ATOM     15  C   UNL     1       0.563   9.275  20.839  0.00  0.00    +0.000 A 
ATOM     16  C   UNL     1      -0.113  10.281  20.179  0.00  0.00    +0.000 A 
ATOM     17  C   UNL     1      -0.817  11.138  21.075  0.00  0.00    +0.000 A 
ATOM     18  C   UNL     1      -0.654  10.753  22.387  0.00  0.00    +0.000 A 
ATOM     19  S   UNL     1       0.322   9.355  22.529  0.00  0.00    +0.000 S 
ENDBRANCH   7  15
BRANCH   1  21
ATOM     20  F   UNL     1       2.456   4.338  22.023  0.00  0.00    +0.000 F 
ATOM     21  C   UNL     1       2.135   4.077  20.735  0.00  0.00    +0.000 C 
ATOM     22  F   UNL     1       2.546   2.803  20.490  0.00  0.00    +0.000 F 
ATOM     23  F   UNL     1       0.774   4.044  20.682  0.00  0.00    +0.000 F 
ENDBRANCH   1  21
TORSDOF 3
ENDMDL
MODEL 4
REMARK VINA RESULT:      -7.5      0.791      1.178
REMARK  Name = 
REMARK  3 active torsions:
REMARK  status: ('A' for Active; 'I' for Inactive)
REMARK    1  A    between atoms: C_2  and  C_5
REMARK    2  A    between atoms: C_7  and  C_8
REMARK    3  A    between atoms: C_16  and  C_17
REMARK                            x       y       z     vdW  Elec       q    Type
REMARK                         _______ _______ _______ _____ _____    ______ ____
ROOT
ATOM      1  C   UNL     1       2.494   5.022  19.739  0.00  0.00    +0.000 A 
ATOM      2  C   UNL     1       3.262   4.639  18.696  0.00  0.00    +0.000 A 
ATOM      3  C   UNL     1       3.745   5.710  17.758  0.00  0.00    +0.000 A 
ATOM      4  N   UNL     1       3.387   6.963  17.870  0.00  0.00    +0.000 NA
ATOM      5  C   UNL     1       2.573   7.293  18.912  0.00  0.00    +0.000 A 
ATOM      6  C   UNL     1       2.004   8.495  19.263  0.00  0.00    +0.000 A 
ATOM      7  C   UNL     1       1.310   8.244  20.458  0.00  0.00    +0.000 A 
ATOM      8  N   UNL     1       1.417   6.965  20.834  0.00  0.00    +0.000 NA
ATOM      9  N   UNL     1       2.149   6.361  19.870  0.00  0.00    +0.000 N 
ENDROOT
BRANCH   3  10
ATOM     10  C   UNL     1       4.666   5.297  16.706  0.00  0.00    +0.000 A 
ATOM     11  N   UNL     1       5.161   6.137  15.816  0.00  0.00    +0.000 NA
ATOM     12  C   UNL     1       5.951   5.447  14.915  0.00  0.00    +0.000 A 
ATOM     13  C   UNL     1       6.045   4.089  15.125  0.00  0.00    +0.000 A 
ATOM     14  S   UNL     1       5.138   3.655  16.511  0.00  0.00    +0.000 S 
ENDBRANCH   3  10
BRANCH   7  15
ATOM     15  C   UNL     1       0.523   9.238  21.259  0.00  0.00    +0.000 A 
ATOM     16  C   UNL     1       0.065   9.005  22.540  0.00  0.00    +0.000 A 
ATOM     17  C   UNL     1      -0.679  10.106  23.057  0.00  0.00    +0.000 A 
ATOM     18  C   UNL     1      -0.761  11.140  22.152  0.00  0.00    +0.000 A 
ATOM     19  S   UNL     1       0.075  10.790  20.701  0.00  0.00    +0.000 S 
ENDBRANCH   7  15
BRANCH   1  21
ATOM     20  F   UNL     1       2.381   2.752  20.554  0.00  0.00    +0.000 F 
ATOM     21  C   UNL     1       2.000   4.038  20.731  0.00  0.00    +0.000 C 
ATOM     22  F   UNL     1       0.640   4.033  20.763  0.00  0.00    +0.000 F 
ATOM     23  F   UNL     1       2.399   4.382  21.988  0.00  0.00    +0.000 F 
ENDBRANCH   1  21
TORSDOF 3
ENDMDL
MODEL 5
REMARK VINA RESULT:      -7.4      4.619      5.685
REMARK  Name = 
REMARK  3 active torsions:
REMARK  status: ('A' for Active; 'I' for Inactive)
REMARK    1  A    between atoms: C_2  and  C_5
REMARK    2  A    between atoms: C_7  and  C_8
REMARK    3  A    between atoms: C_16  and  C_17
REMARK                            x       y       z     vdW  Elec       q    Type
REMARK                         _______ _______ _______ _____ _____    ______ ____
ROOT
ATOM      1  C   UNL     1       6.846   5.066  17.701  0.00  0.00    +0.000 A 
ATOM      2  C   UNL     1       7.347   5.091  16.447  0.00  0.00    +0.000 A 
ATOM      3  C   UNL     1       6.485   4.546  15.343  0.00  0.00    +0.000 A 
ATOM      4  N   UNL     1       5.323   3.986  15.562  0.00  0.00    +0.000 NA
ATOM      5  C   UNL     1       4.881   3.943  16.851  0.00  0.00    +0.000 A 
ATOM      6  C   UNL     1       3.743   3.393  17.393  0.00  0.00    +0.000 A 
ATOM      7  C   UNL     1       3.795   3.702  18.762  0.00  0.00    +0.000 A 
ATOM      8  N   UNL     1       4.900   4.389  19.074  0.00  0.00    +0.000 NA
ATOM      9  N   UNL     1       5.596   4.502  17.920  0.00  0.00    +0.000 N 
ENDROOT
BRANCH   3  10
ATOM     10  C   UNL     1       6.990   4.686  13.982  0.00  0.00    +0.000 A 
ATOM     11  N   UNL     1       7.908   5.573  13.646  0.00  0.00    +0.000 NA
ATOM     12  C   UNL     1       8.138   5.509  12.284  0.00  0.00    +0.000 A 
ATOM     13  C   UNL     1       7.391   4.578  11.597  0.00  0.00    +0.000 A 
ATOM     14  S   UNL     1       6.381   3.730  12.689  0.00  0.00    +0.000 S 
ENDBRANCH   3  10
BRANCH   7  15
ATOM     15  C   UNL     1       2.777   3.333  19.800  0.00  0.00    +0.000 A 
ATOM     16  C   UNL     1       1.434   3.633  19.701  0.00  0.00    +0.000 A 
ATOM     17  C   UNL     1       0.696   3.192  20.839  0.00  0.00    +0.000 A 
ATOM     18  C   UNL     1       1.503   2.570  21.764  0.00  0.00    +0.000 A 
ATOM     19  S   UNL     1       3.133   2.500  21.249  0.00  0.00    +0.000 S 
ENDBRANCH   7  15
BRANCH   1  21
ATOM     20  F   UNL     1       8.660   4.872  19.283  0.00  0.00    +0.000 F 
ATOM     21  C   UNL     1       7.615   5.611  18.845  0.00  0.00    +0.000 C 
ATOM     22  F   UNL     1       6.802   5.799  19.920  0.00  0.00    +0.000 F 
ATOM     23  F   UNL     1       8.119   6.840  18.542  0.00  0.00    +0.000 F 
ENDBRANCH   1  21
TORSDOF 3
ENDMDL
MODEL 6
REMARK VINA RESULT:      -7.2      1.295      6.858
REMARK  Name = 
REMARK  3 active torsions:
REMARK  status: ('A' for Active; 'I' for Inactive)
REMARK    1  A    between atoms: C_2  and  C_5
REMARK    2  A    between atoms: C_7  and  C_8
REMARK    3  A    between atoms: C_16  and  C_17
REMARK                            x       y       z     vdW  Elec       q    Type
REMARK                         _______ _______ _______ _____ _____    ______ ____
ROOT
ATOM      1  C   UNL     1       2.190   5.307  19.951  0.00  0.00    +0.000 A 
ATOM      2  C   UNL     1       1.563   6.275  20.654  0.00  0.00    +0.000 A 
ATOM      3  C   UNL     1       1.716   7.692  20.174  0.00  0.00    +0.000 A 
ATOM      4  N   UNL     1       2.484   8.020  19.169  0.00  0.00    +0.000 NA
ATOM      5  C   UNL     1       3.134   7.012  18.520  0.00  0.00    +0.000 A 
ATOM      6  C   UNL     1       4.027   7.044  17.474  0.00  0.00    +0.000 A 
ATOM      7  C   UNL     1       4.320   5.699  17.193  0.00  0.00    +0.000 A 
ATOM      8  N   UNL     1       3.669   4.868  18.015  0.00  0.00    +0.000 NA
ATOM      9  N   UNL     1       2.976   5.661  18.863  0.00  0.00    +0.000 N 
ENDROOT
BRANCH   3  10
ATOM     10  C   UNL     1       0.940   8.711  20.872  0.00  0.00    +0.000 A 
ATOM     11  N   UNL     1       0.796   8.728  22.184  0.00  0.00    +0.000 NA
ATOM     12  C   UNL     1      -0.037   9.771  22.546  0.00  0.00    +0.000 A 
ATOM     13  C   UNL     1      -0.523  10.532  21.506  0.00  0.00    +0.000 A 
ATOM     14  S   UNL     1       0.101   9.948  20.022  0.00  0.00    +0.000 S 
ENDBRANCH   3  10
BRANCH   7  15
ATOM     15  C   UNL     1       5.242   5.191  16.125  0.00  0.00    +0.000 A 
ATOM     16  C   UNL     1       4.819   4.488  15.015  0.00  0.00    +0.000 A 
ATOM     17  C   UNL     1       5.905   4.101  14.175  0.00  0.00    +0.000 A 
ATOM     18  C   UNL     1       7.116   4.524  14.674  0.00  0.00    +0.000 A 
ATOM     19  S   UNL     1       6.937   5.401  16.132  0.00  0.00    +0.000 S 
ENDBRANCH   7  15
BRANCH   1  21
ATOM     20  F   UNL     1       3.220   3.223  20.604  0.00  0.00    +0.000 F 
ATOM     21  C   UNL     1       2.069   3.881  20.334  0.00  0.00    +0.000 C 
ATOM     22  F   UNL     1       1.446   3.173  19.353  0.00  0.00    +0.000 F 
ATOM     23  F   UNL     1       1.286   3.746  21.441  0.00  0.00    +0.000 F 
ENDBRANCH   1  21
TORSDOF 3
ENDMDL
MODEL 7
REMARK VINA RESULT:      -7.0      1.145      1.474
REMARK  Name = 
REMARK  3 active torsions:
REMARK  status: ('A' for Active; 'I' for Inactive)
REMARK    1  A    between atoms: C_2  and  C_5
REMARK    2  A    between atoms: C_7  and  C_8
REMARK    3  A    between atoms: C_16  and  C_17
REMARK                            x       y       z     vdW  Elec       q    Type
REMARK                         _______ _______ _______ _____ _____    ______ ____
ROOT
ATOM      1  C   UNL     1       2.678   5.421  19.413  0.00  0.00    +0.000 A 
ATOM      2  C   UNL     1       3.526   4.931  18.483  0.00  0.00    +0.000 A 
ATOM      3  C   UNL     1       4.074   5.894  17.467  0.00  0.00    +0.000 A 
ATOM      4  N   UNL     1       3.702   7.146  17.405  0.00  0.00    +0.000 NA
ATOM      5  C   UNL     1       2.808   7.581  18.337  0.00  0.00    +0.000 A 
ATOM      6  C   UNL     1       2.207   8.808  18.502  0.00  0.00    +0.000 A 
ATOM      7  C   UNL     1       1.423   8.686  19.661  0.00  0.00    +0.000 A 
ATOM      8  N   UNL     1       1.508   7.460  20.190  0.00  0.00    +0.000 NA
ATOM      9  N   UNL     1       2.316   6.760  19.361  0.00  0.00    +0.000 N 
ENDROOT
BRANCH   3  10
ATOM     10  C   UNL     1       5.077   5.376  16.543  0.00  0.00    +0.000 A 
ATOM     11  N   UNL     1       5.882   6.157  15.848  0.00  0.00    +0.000 NA
ATOM     12  C   UNL     1       6.676   5.385  15.019  0.00  0.00    +0.000 A 
ATOM     13  C   UNL     1       6.463   4.026  15.089  0.00  0.00    +0.000 A 
ATOM     14  S   UNL     1       5.248   3.690  16.248  0.00  0.00    +0.000 S 
ENDBRANCH   3  10
BRANCH   7  15
ATOM     15  C   UNL     1       0.571   9.754  20.279  0.00  0.00    +0.000 A 
ATOM     16  C   UNL     1       0.672  10.154  21.596  0.00  0.00    +0.000 A 
ATOM     17  C   UNL     1      -0.276  11.166  21.928  0.00  0.00    +0.000 A 
ATOM     18  C   UNL     1      -1.065  11.503  20.852  0.00  0.00    +0.000 A 
ATOM     19  S   UNL     1      -0.646  10.620  19.448  0.00  0.00    +0.000 S 
ENDBRANCH   7  15
BRANCH   1  21
ATOM     20  F   UNL     1       0.765   4.454  20.526  0.00  0.00    +0.000 F 
ATOM     21  C   UNL     1       2.114   4.550  20.472  0.00  0.00    +0.000 C 
ATOM     22  F   UNL     1       2.517   4.970  21.702  0.00  0.00    +0.000 F 
ATOM     23  F   UNL     1       2.581   3.276  20.344  0.00  0.00    +0.000 F 
ENDBRANCH   1  21
TORSDOF 3
ENDMDL
MODEL 8
REMARK VINA RESULT:      -7.0      1.392      1.809
REMARK  Name = 
REMARK  3 active torsions:
REMARK  status: ('A' for Active; 'I' for Inactive)
REMARK    1  A    between atoms: C_2  and  C_5
REMARK    2  A    between atoms: C_7  and  C_8
REMARK    3  A    between atoms: C_16  and  C_17
REMARK                            x       y       z     vdW  Elec       q    Type
REMARK                         _______ _______ _______ _____ _____    ______ ____
ROOT
ATOM      1  C   UNL     1       2.730   5.622  19.355  0.00  0.00    +0.000 A 
ATOM      2  C   UNL     1       3.645   5.125  18.495  0.00  0.00    +0.000 A 
ATOM      3  C   UNL     1       4.211   6.061  17.464  0.00  0.00    +0.000 A 
ATOM      4  N   UNL     1       3.797   7.292  17.323  0.00  0.00    +0.000 NA
ATOM      5  C   UNL     1       2.837   7.735  18.185  0.00  0.00    +0.000 A 
ATOM      6  C   UNL     1       2.183   8.943  18.259  0.00  0.00    +0.000 A 
ATOM      7  C   UNL     1       1.343   8.843  19.381  0.00  0.00    +0.000 A 
ATOM      8  N   UNL     1       1.445   7.647  19.971  0.00  0.00    +0.000 NA
ATOM      9  N   UNL     1       2.322   6.943  19.220  0.00  0.00    +0.000 N 
ENDROOT
BRANCH   3  10
ATOM     10  C   UNL     1       5.281   5.541  16.620  0.00  0.00    +0.000 A 
ATOM     11  N   UNL     1       5.270   5.646  15.304  0.00  0.00    +0.000 NA
ATOM     12  C   UNL     1       6.381   5.010  14.779  0.00  0.00    +0.000 A 
ATOM     13  C   UNL     1       7.221   4.424  15.699  0.00  0.00    +0.000 A 
ATOM     14  S   UNL     1       6.624   4.695  17.281  0.00  0.00    +0.000 S 
ENDBRANCH   3  10
BRANCH   7  15
ATOM     15  C   UNL     1       0.419   9.904  19.901  0.00  0.00    +0.000 A 
ATOM     16  C   UNL     1      -0.557  10.514  19.140  0.00  0.00    +0.000 A 
ATOM     17  C   UNL     1      -1.273  11.505  19.874  0.00  0.00    +0.000 A 
ATOM     18  C   UNL     1      -0.818  11.615  21.168  0.00  0.00    +0.000 A 
ATOM     19  S   UNL     1       0.448  10.511  21.497  0.00  0.00    +0.000 S 
ENDBRANCH   7  15
BRANCH   1  21
ATOM     20  F   UNL     1       0.795   4.667  20.438  0.00  0.00    +0.000 F 
ATOM     21  C   UNL     1       2.143   4.779  20.423  0.00  0.00    +0.000 C 
ATOM     22  F   UNL     1       2.500   5.244  21.651  0.00  0.00    +0.000 F 
ATOM     23  F   UNL     1       2.629   3.508  20.353  0.00  0.00    +0.000 F 
ENDBRANCH   1  21
TORSDOF 3
ENDMDL
MODEL 9
REMARK VINA RESULT:      -7.0      1.917      2.751
REMARK  Name = 
REMARK  3 active torsions:
REMARK  status: ('A' for Active; 'I' for Inactive)
REMARK    1  A    between atoms: C_2  and  C_5
REMARK    2  A    between atoms: C_7  and  C_8
REMARK    3  A    between atoms: C_16  and  C_17
REMARK                            x       y       z     vdW  Elec       q    Type
REMARK                         _______ _______ _______ _____ _____    ______ ____
ROOT
ATOM      1  C   UNL     1       3.810   4.143  17.519  0.00  0.00    +0.000 A 
ATOM      2  C   UNL     1       4.625   3.937  16.462  0.00  0.00    +0.000 A 
ATOM      3  C   UNL     1       5.176   5.148  15.761  0.00  0.00    +0.000 A 
ATOM      4  N   UNL     1       4.835   6.368  16.084  0.00  0.00    +0.000 NA
ATOM      5  C   UNL     1       3.972   6.523  17.129  0.00  0.00    +0.000 A 
ATOM      6  C   UNL     1       3.407   7.656  17.667  0.00  0.00    +0.000 A 
ATOM      7  C   UNL     1       2.646   7.209  18.760  0.00  0.00    +0.000 A 
ATOM      8  N   UNL     1       2.710   5.880  18.899  0.00  0.00    +0.000 NA
ATOM      9  N   UNL     1       3.482   5.444  17.877  0.00  0.00    +0.000 N 
ENDROOT
BRANCH   3  10
ATOM     10  C   UNL     1       6.144   4.910  14.698  0.00  0.00    +0.000 A 
ATOM     11  N   UNL     1       7.306   5.533  14.634  0.00  0.00    +0.000 NA
ATOM     12  C   UNL     1       7.977   5.146  13.488  0.00  0.00    +0.000 A 
ATOM     13  C   UNL     1       7.317   4.238  12.689  0.00  0.00    +0.000 A 
ATOM     14  S   UNL     1       5.816   3.827  13.402  0.00  0.00    +0.000 S 
ENDBRANCH   3  10
BRANCH   7  15
ATOM     15  C   UNL     1       1.835   8.061  19.691  0.00  0.00    +0.000 A 
ATOM     16  C   UNL     1       1.554   7.719  20.998  0.00  0.00    +0.000 A 
ATOM     17  C   UNL     1       0.741   8.694  21.648  0.00  0.00    +0.000 A 
ATOM     18  C   UNL     1       0.433   9.745  20.814  0.00  0.00    +0.000 A 
ATOM     19  S   UNL     1       1.140   9.563  19.267  0.00  0.00    +0.000 S 
ENDBRANCH   7  15
BRANCH   1  21
ATOM     20  F   UNL     1       3.590   1.765  17.876  0.00  0.00    +0.000 F 
ATOM     21  C   UNL     1       3.248   3.008  18.287  0.00  0.00    +0.000 C 
ATOM     22  F   UNL     1       1.887   3.052  18.279  0.00  0.00    +0.000 F 
ATOM     23  F   UNL     1       3.612   3.088  19.598  0.00  0.00    +0.000 F 
ENDBRANCH   1  21
TORSDOF 3
ENDMDL
