MODEL 1
REMARK VINA RESULT:      -7.6      0.000      0.000
REMARK  Name = 
REMARK  7 active torsions:
REMARK  status: ('A' for Active; 'I' for Inactive)
REMARK    1  A    between atoms: C_1  and  O_2
REMARK    2  A    between atoms: O_2  and  C_3
REMARK    3  A    between atoms: C_7  and  O_8
REMARK    4  A    between atoms: O_8  and  C_9
REMARK    5  A    between atoms: C_9  and  C_10
REMARK    6  A    between atoms: C_18  and  C_19
REMARK    7  A    between atoms: C_19  and  N_20
REMARK                            x       y       z     vdW  Elec       q    Type
REMARK                         _______ _______ _______ _____ _____    ______ ____
ROOT
ATOM      1  C   UNL     1       2.942   6.556  18.820  0.00  0.00    +0.000 C 
ATOM      2  O   UNL     1       3.958   6.998  18.275  0.00  0.00    +0.000 OA
ATOM      3  N   UNL     1       2.552   5.214  18.662  0.00  0.00    +0.000 N 
ATOM      4  C   UNL     1       1.363   4.677  19.324  0.00  0.00    +0.000 C 
ATOM      5  C   UNL     1       1.658   3.872  20.597  0.00  0.00    +0.000 C 
ATOM      6  C   UNL     1       2.204   2.471  20.326  0.00  0.00    +0.000 C 
ATOM      7  S   UNL     1       4.019   2.329  20.267  0.00  0.00    +0.000 S 
ATOM      8  C   UNL     1       4.500   3.809  19.299  0.00  0.00    +0.000 C 
ATOM      9  C   UNL     1       3.519   4.185  18.159  0.00  0.00    +0.000 C 
ENDROOT
BRANCH   1  10
ATOM     10  C   UNL     1       2.178   7.457  19.866  0.00  0.00    +0.000 C 
BRANCH  10  11
ATOM     11  O   UNL     1       1.462   8.616  19.466  0.00  0.00    +0.000 OA
BRANCH  11  16
ATOM     12  C   UNL     1       0.084  11.293  21.695  0.00  0.00    +0.000 A 
ATOM     13  C   UNL     1      -0.499  10.493  22.678  0.00  0.00    +0.000 A 
ATOM     14  C   UNL     1      -0.471   9.106  22.543  0.00  0.00    +0.000 A 
ATOM     15  C   UNL     1       0.174   8.519  21.442  0.00  0.00    +0.000 A 
ATOM     16  C   UNL     1       0.792   9.307  20.462  0.00  0.00    +0.000 A 
ATOM     17  C   UNL     1       0.719  10.701  20.594  0.00  0.00    +0.000 A 
BRANCH  12  19
ATOM     18  C   UNL     1      -0.981  13.065  22.848  0.00  0.00    +0.000 C 
ATOM     19  O   UNL     1       0.043  12.637  21.962  0.00  0.00    +0.000 OA
ENDBRANCH  12  19
ENDBRANCH  11  16
ENDBRANCH  10  11
ENDBRANCH   1  10
BRANCH   9  20
ATOM     20  C   UNL     1       4.342   4.432  16.845  0.00  0.00    +0.000 C 
BRANCH  20  21
ATOM     21  N   UNL     1       5.729   3.944  16.759  0.00  0.00    +0.000 NA
ATOM     22  C   UNL     1       6.749   4.813  17.373  0.00  0.00    +0.000 C 
ATOM     23  C   UNL     1       7.131   6.050  16.543  0.00  0.00    +0.000 C 
ATOM     24  O   UNL     1       7.582   5.676  15.237  0.00  0.00    +0.000 OA
ATOM     25  C   UNL     1       6.565   4.939  14.550  0.00  0.00    +0.000 C 
ATOM     26  C   UNL     1       6.120   3.690  15.349  0.00  0.00    +0.000 C 
ENDBRANCH  20  21
ENDBRANCH   9  20
TORSDOF 6
ENDMDL
MODEL 2
REMARK VINA RESULT:      -7.2      0.907      1.433
REMARK  Name = 
REMARK  7 active torsions:
REMARK  status: ('A' for Active; 'I' for Inactive)
REMARK    1  A    between atoms: C_1  and  O_2
REMARK    2  A    between atoms: O_2  and  C_3
REMARK    3  A    between atoms: C_7  and  O_8
REMARK    4  A    between atoms: O_8  and  C_9
REMARK    5  A    between atoms: C_9  and  C_10
REMARK    6  A    between atoms: C_18  and  C_19
REMARK    7  A    between atoms: C_19  and  N_20
REMARK                            x       y       z     vdW  Elec       q    Type
REMARK                         _______ _______ _______ _____ _____    ______ ____
ROOT
ATOM      1  C   UNL     1       3.005   6.535  18.262  0.00  0.00    +0.000 C 
ATOM      2  O   UNL     1       4.025   6.933  17.691  0.00  0.00    +0.000 OA
ATOM      3  N   UNL     1       2.626   5.182  18.223  0.00  0.00    +0.000 N 
ATOM      4  C   UNL     1       1.432   4.698  18.915  0.00  0.00    +0.000 C 
ATOM      5  C   UNL     1       1.713   4.017  20.261  0.00  0.00    +0.000 C 
ATOM      6  C   UNL     1       2.273   2.601  20.128  0.00  0.00    +0.000 C 
ATOM      7  S   UNL     1       4.089   2.469  20.108  0.00  0.00    +0.000 S 
ATOM      8  C   UNL     1       4.574   3.857  19.014  0.00  0.00    +0.000 C 
ATOM      9  C   UNL     1       3.607   4.118  17.831  0.00  0.00    +0.000 C 
ENDROOT
BRANCH   1  10
ATOM     10  C   UNL     1       2.219   7.523  19.209  0.00  0.00    +0.000 C 
BRANCH  10  11
ATOM     11  O   UNL     1       1.383   8.545  18.688  0.00  0.00    +0.000 OA
BRANCH  11  16
ATOM     12  C   UNL     1       0.488  10.717  21.606  0.00  0.00    +0.000 A 
ATOM     13  C   UNL     1       0.490  11.959  20.974  0.00  0.00    +0.000 A 
ATOM     14  C   UNL     1       0.842  12.048  19.629  0.00  0.00    +0.000 A 
ATOM     15  C   UNL     1       1.158  10.885  18.907  0.00  0.00    +0.000 A 
ATOM     16  C   UNL     1       1.130   9.625  19.519  0.00  0.00    +0.000 A 
ATOM     17  C   UNL     1       0.812   9.561  20.882  0.00  0.00    +0.000 A 
BRANCH  12  19
ATOM     18  C   UNL     1      -1.326  10.883  23.118  0.00  0.00    +0.000 C 
ATOM     19  O   UNL     1       0.073  10.746  22.913  0.00  0.00    +0.000 OA
ENDBRANCH  12  19
ENDBRANCH  11  16
ENDBRANCH  10  11
ENDBRANCH   1  10
BRANCH   9  20
ATOM     20  C   UNL     1       4.447   4.249  16.511  0.00  0.00    +0.000 C 
BRANCH  20  21
ATOM     21  N   UNL     1       5.857   3.823  16.507  0.00  0.00    +0.000 NA
ATOM     22  C   UNL     1       6.794   4.715  17.215  0.00  0.00    +0.000 C 
ATOM     23  C   UNL     1       7.177   5.992  16.449  0.00  0.00    +0.000 C 
ATOM     24  O   UNL     1       7.732   5.678  15.167  0.00  0.00    +0.000 OA
ATOM     25  C   UNL     1       6.796   4.922  14.391  0.00  0.00    +0.000 C 
ATOM     26  C   UNL     1       6.354   3.631  15.120  0.00  0.00    +0.000 C 
ENDBRANCH  20  21
ENDBRANCH   9  20
TORSDOF 6
ENDMDL
MODEL 3
REMARK VINA RESULT:      -7.1      1.740      2.238
REMARK  Name = 
REMARK  7 active torsions:
REMARK  status: ('A' for Active; 'I' for Inactive)
REMARK    1  A    between atoms: C_1  and  O_2
REMARK    2  A    between atoms: O_2  and  C_3
REMARK    3  A    between atoms: C_7  and  O_8
REMARK    4  A    between atoms: O_8  and  C_9
REMARK    5  A    between atoms: C_9  and  C_10
REMARK    6  A    between atoms: C_18  and  C_19
REMARK    7  A    between atoms: C_19  and  N_20
REMARK                            x       y       z     vdW  Elec       q    Type
REMARK                         _______ _______ _______ _____ _____    ______ ____
ROOT
ATOM      1  C   UNL     1       2.911   6.523  18.441  0.00  0.00    +0.000 C 
ATOM      2  O   UNL     1       3.926   6.936  17.871  0.00  0.00    +0.000 OA
ATOM      3  N   UNL     1       2.539   5.169  18.384  0.00  0.00    +0.000 N 
ATOM      4  C   UNL     1       1.351   4.668  19.074  0.00  0.00    +0.000 C 
ATOM      5  C   UNL     1       1.643   3.969  20.408  0.00  0.00    +0.000 C 
ATOM      6  C   UNL     1       2.209   2.558  20.252  0.00  0.00    +0.000 C 
ATOM      7  S   UNL     1       4.026   2.435  20.220  0.00  0.00    +0.000 S 
ATOM      8  C   UNL     1       4.498   3.843  19.144  0.00  0.00    +0.000 C 
ATOM      9  C   UNL     1       3.524   4.116  17.970  0.00  0.00    +0.000 C 
ENDROOT
BRANCH   1  10
ATOM     10  C   UNL     1       2.125   7.493  19.407  0.00  0.00    +0.000 C 
BRANCH  10  11
ATOM     11  O   UNL     1       2.134   8.900  19.217  0.00  0.00    +0.000 OA
BRANCH  11  16
ATOM     12  C   UNL     1      -1.131  10.323  18.057  0.00  0.00    +0.000 A 
ATOM     13  C   UNL     1      -1.504  11.008  19.212  0.00  0.00    +0.000 A 
ATOM     14  C   UNL     1      -0.702  10.929  20.349  0.00  0.00    +0.000 A 
ATOM     15  C   UNL     1       0.494  10.194  20.317  0.00  0.00    +0.000 A 
ATOM     16  C   UNL     1       0.900   9.526  19.153  0.00  0.00    +0.000 A 
ATOM     17  C   UNL     1       0.060   9.584  18.032  0.00  0.00    +0.000 A 
BRANCH  12  19
ATOM     18  C   UNL     1      -3.357  10.389  17.253  0.00  0.00    +0.000 C 
ATOM     19  O   UNL     1      -1.967  10.518  16.988  0.00  0.00    +0.000 OA
ENDBRANCH  12  19
ENDBRANCH  11  16
ENDBRANCH  10  11
ENDBRANCH   1  10
BRANCH   9  20
ATOM     20  C   UNL     1       4.356   4.272  16.648  0.00  0.00    +0.000 C 
BRANCH  20  21
ATOM     21  N   UNL     1       5.764   3.838  16.626  0.00  0.00    +0.000 NA
ATOM     22  C   UNL     1       6.717   4.732  17.309  0.00  0.00    +0.000 C 
ATOM     23  C   UNL     1       7.094   5.999  16.522  0.00  0.00    +0.000 C 
ATOM     24  O   UNL     1       7.626   5.669  15.235  0.00  0.00    +0.000 OA
ATOM     25  C   UNL     1       6.674   4.908  14.483  0.00  0.00    +0.000 C 
ATOM     26  C   UNL     1       6.237   3.628  15.233  0.00  0.00    +0.000 C 
ENDBRANCH  20  21
ENDBRANCH   9  20
TORSDOF 6
ENDMDL
MODEL 4
REMARK VINA RESULT:      -7.1      1.014      1.274
REMARK  Name = 
REMARK  7 active torsions:
REMARK  status: ('A' for Active; 'I' for Inactive)
REMARK    1  A    between atoms: C_1  and  O_2
REMARK    2  A    between atoms: O_2  and  C_3
REMARK    3  A    between atoms: C_7  and  O_8
REMARK    4  A    between atoms: O_8  and  C_9
REMARK    5  A    between atoms: C_9  and  C_10
REMARK    6  A    between atoms: C_18  and  C_19
REMARK    7  A    between atoms: C_19  and  N_20
REMARK                            x       y       z     vdW  Elec       q    Type
REMARK                         _______ _______ _______ _____ _____    ______ ____
ROOT
ATOM      1  C   UNL     1       2.423   6.376  19.358  0.00  0.00    +0.000 C 
ATOM      2  O   UNL     1       3.420   7.013  19.003  0.00  0.00    +0.000 OA
ATOM      3  N   UNL     1       2.236   5.037  18.974  0.00  0.00    +0.000 N 
ATOM      4  C   UNL     1       1.069   4.269  19.409  0.00  0.00    +0.000 C 
ATOM      5  C   UNL     1       1.338   3.324  20.587  0.00  0.00    +0.000 C 
ATOM      6  C   UNL     1       2.093   2.054  20.196  0.00  0.00    +0.000 C 
ATOM      7  S   UNL     1       3.907   2.138  20.337  0.00  0.00    +0.000 S 
ATOM      8  C   UNL     1       4.280   3.794  19.643  0.00  0.00    +0.000 C 
ATOM      9  C   UNL     1       3.378   4.216  18.456  0.00  0.00    +0.000 C 
ENDROOT
BRANCH   1  10
ATOM     10  C   UNL     1       1.442   7.014  20.417  0.00  0.00    +0.000 C 
BRANCH  10  11
ATOM     11  O   UNL     1       1.812   8.150  21.184  0.00  0.00    +0.000 OA
BRANCH  11  16
ATOM     12  C   UNL     1      -0.667  10.929  20.786  0.00  0.00    +0.000 A 
ATOM     13  C   UNL     1      -1.052  11.082  22.118  0.00  0.00    +0.000 A 
ATOM     14  C   UNL     1      -0.530  10.230  23.089  0.00  0.00    +0.000 A 
ATOM     15  C   UNL     1       0.406   9.246  22.731  0.00  0.00    +0.000 A 
ATOM     16  C   UNL     1       0.828   9.100  21.403  0.00  0.00    +0.000 A 
ATOM     17  C   UNL     1       0.262   9.940  20.434  0.00  0.00    +0.000 A 
BRANCH  12  19
ATOM     18  C   UNL     1      -0.730  11.816  18.593  0.00  0.00    +0.000 C 
ATOM     19  O   UNL     1      -1.203  11.857  19.932  0.00  0.00    +0.000 OA
ENDBRANCH  12  19
ENDBRANCH  11  16
ENDBRANCH  10  11
ENDBRANCH   1  10
BRANCH   9  20
ATOM     20  C   UNL     1       4.290   4.754  17.295  0.00  0.00    +0.000 C 
BRANCH  20  21
ATOM     21  N   UNL     1       5.620   4.156  17.087  0.00  0.00    +0.000 NA
ATOM     22  C   UNL     1       6.759   4.945  17.591  0.00  0.00    +0.000 C 
ATOM     23  C   UNL     1       7.158   6.142  16.711  0.00  0.00    +0.000 C 
ATOM     24  O   UNL     1       7.453   5.725  15.374  0.00  0.00    +0.000 OA
ATOM     25  C   UNL     1       6.320   5.067  14.796  0.00  0.00    +0.000 C 
ATOM     26  C   UNL     1       5.856   3.863  15.649  0.00  0.00    +0.000 C 
ENDBRANCH  20  21
ENDBRANCH   9  20
TORSDOF 6
ENDMDL
MODEL 5
REMARK VINA RESULT:      -7.0      2.466      4.507
REMARK  Name = 
REMARK  7 active torsions:
REMARK  status: ('A' for Active; 'I' for Inactive)
REMARK    1  A    between atoms: C_1  and  O_2
REMARK    2  A    between atoms: O_2  and  C_3
REMARK    3  A    between atoms: C_7  and  O_8
REMARK    4  A    between atoms: O_8  and  C_9
REMARK    5  A    between atoms: C_9  and  C_10
REMARK    6  A    between atoms: C_18  and  C_19
REMARK    7  A    between atoms: C_19  and  N_20
REMARK                            x       y       z     vdW  Elec       q    Type
REMARK                         _______ _______ _______ _____ _____    ______ ____
ROOT
ATOM      1  C   UNL     1       3.136   6.239  17.921  0.00  0.00    +0.000 C 
ATOM      2  O   UNL     1       2.068   5.772  17.513  0.00  0.00    +0.000 OA
ATOM      3  N   UNL     1       4.258   5.420  18.136  0.00  0.00    +0.000 N 
ATOM      4  C   UNL     1       5.533   5.969  18.597  0.00  0.00    +0.000 C 
ATOM      5  C   UNL     1       6.572   6.171  17.487  0.00  0.00    +0.000 C 
ATOM      6  C   UNL     1       7.239   4.875  17.026  0.00  0.00    +0.000 C 
ATOM      7  S   UNL     1       6.446   4.039  15.615  0.00  0.00    +0.000 S 
ATOM      8  C   UNL     1       4.665   4.173  16.026  0.00  0.00    +0.000 C 
ATOM      9  C   UNL     1       4.337   4.048  17.536  0.00  0.00    +0.000 C 
ENDROOT
BRANCH   1  10
ATOM     10  C   UNL     1       3.301   7.805  18.018  0.00  0.00    +0.000 C 
BRANCH  10  11
ATOM     11  O   UNL     1       2.336   8.690  17.469  0.00  0.00    +0.000 OA
BRANCH  11  16
ATOM     12  C   UNL     1      -0.616  10.449  18.961  0.00  0.00    +0.000 A 
ATOM     13  C   UNL     1      -0.422  10.121  20.303  0.00  0.00    +0.000 A 
ATOM     14  C   UNL     1       0.634   9.286  20.662  0.00  0.00    +0.000 A 
ATOM     15  C   UNL     1       1.519   8.809  19.681  0.00  0.00    +0.000 A 
ATOM     16  C   UNL     1       1.357   9.155  18.333  0.00  0.00    +0.000 A 
ATOM     17  C   UNL     1       0.266   9.963  17.986  0.00  0.00    +0.000 A 
BRANCH  12  19
ATOM     18  C   UNL     1      -2.718  10.824  17.937  0.00  0.00    +0.000 C 
ATOM     19  O   UNL     1      -1.652  11.319  18.735  0.00  0.00    +0.000 OA
ENDBRANCH  12  19
ENDBRANCH  11  16
ENDBRANCH  10  11
ENDBRANCH   1  10
BRANCH   9  20
ATOM     20  C   UNL     1       3.160   3.025  17.715  0.00  0.00    +0.000 C 
BRANCH  20  21
ATOM     21  N   UNL     1       3.058   2.253  18.966  0.00  0.00    +0.000 NA
ATOM     22  C   UNL     1       1.710   1.767  19.307  0.00  0.00    +0.000 C 
ATOM     23  C   UNL     1       0.764   2.833  19.887  0.00  0.00    +0.000 C 
ATOM     24  O   UNL     1       1.331   3.448  21.049  0.00  0.00    +0.000 OA
ATOM     25  C   UNL     1       2.589   4.053  20.729  0.00  0.00    +0.000 C 
ATOM     26  C   UNL     1       3.579   3.033  20.119  0.00  0.00    +0.000 C 
ENDBRANCH  20  21
ENDBRANCH   9  20
TORSDOF 6
ENDMDL
MODEL 6
REMARK VINA RESULT:      -7.0      2.158      8.667
REMARK  Name = 
REMARK  7 active torsions:
REMARK  status: ('A' for Active; 'I' for Inactive)
REMARK    1  A    between atoms: C_1  and  O_2
REMARK    2  A    between atoms: O_2  and  C_3
REMARK    3  A    between atoms: C_7  and  O_8
REMARK    4  A    between atoms: O_8  and  C_9
REMARK    5  A    between atoms: C_9  and  C_10
REMARK    6  A    between atoms: C_18  and  C_19
REMARK    7  A    between atoms: C_19  and  N_20
REMARK                            x       y       z     vdW  Elec       q    Type
REMARK                         _______ _______ _______ _____ _____    ______ ____
ROOT
ATOM      1  C   UNL     1       4.685   5.157  17.207  0.00  0.00    +0.000 C 
ATOM      2  O   UNL     1       4.212   5.961  16.398  0.00  0.00    +0.000 OA
ATOM      3  N   UNL     1       3.999   4.816  18.385  0.00  0.00    +0.000 N 
ATOM      4  C   UNL     1       4.543   3.847  19.337  0.00  0.00    +0.000 C 
ATOM      5  C   UNL     1       3.936   2.442  19.224  0.00  0.00    +0.000 C 
ATOM      6  C   UNL     1       2.536   2.326  19.827  0.00  0.00    +0.000 C 
ATOM      7  S   UNL     1       1.155   2.606  18.673  0.00  0.00    +0.000 S 
ATOM      8  C   UNL     1       1.730   4.059  17.714  0.00  0.00    +0.000 C 
ATOM      9  C   UNL     1       2.535   5.099  18.535  0.00  0.00    +0.000 C 
ENDROOT
BRANCH   1  10
ATOM     10  C   UNL     1       5.988   4.355  16.819  0.00  0.00    +0.000 C 
BRANCH  10  11
ATOM     11  O   UNL     1       6.994   4.924  15.995  0.00  0.00    +0.000 OA
BRANCH  11  16
ATOM     12  C   UNL     1       6.102   3.506  12.644  0.00  0.00    +0.000 A 
ATOM     13  C   UNL     1       6.999   4.220  11.849  0.00  0.00    +0.000 A 
ATOM     14  C   UNL     1       7.821   5.183  12.432  0.00  0.00    +0.000 A 
ATOM     15  C   UNL     1       7.771   5.405  13.818  0.00  0.00    +0.000 A 
ATOM     16  C   UNL     1       6.899   4.674  14.635  0.00  0.00    +0.000 A 
ATOM     17  C   UNL     1       6.051   3.738  14.026  0.00  0.00    +0.000 A 
BRANCH  12  19
ATOM     18  C   UNL     1       6.150   1.542  11.324  0.00  0.00    +0.000 C 
ATOM     19  O   UNL     1       5.387   2.550  11.971  0.00  0.00    +0.000 OA
ENDBRANCH  12  19
ENDBRANCH  11  16
ENDBRANCH  10  11
ENDBRANCH   1  10
BRANCH   9  20
ATOM     20  C   UNL     1       1.961   6.530  18.238  0.00  0.00    +0.000 C 
BRANCH  20  21
ATOM     21  N   UNL     1       2.545   7.698  18.920  0.00  0.00    +0.000 NA
ATOM     22  C   UNL     1       1.995   7.998  20.255  0.00  0.00    +0.000 C 
ATOM     23  C   UNL     1       0.621   8.688  20.248  0.00  0.00    +0.000 C 
ATOM     24  O   UNL     1       0.656   9.902  19.490  0.00  0.00    +0.000 OA
ATOM     25  C   UNL     1       1.060   9.636  18.142  0.00  0.00    +0.000 C 
ATOM     26  C   UNL     1       2.430   8.920  18.083  0.00  0.00    +0.000 C 
ENDBRANCH  20  21
ENDBRANCH   9  20
TORSDOF 6
ENDMDL
MODEL 7
REMARK VINA RESULT:      -7.0      2.303      4.349
REMARK  Name = 
REMARK  7 active torsions:
REMARK  status: ('A' for Active; 'I' for Inactive)
REMARK    1  A    between atoms: C_1  and  O_2
REMARK    2  A    between atoms: O_2  and  C_3
REMARK    3  A    between atoms: C_7  and  O_8
REMARK    4  A    between atoms: O_8  and  C_9
REMARK    5  A    between atoms: C_9  and  C_10
REMARK    6  A    between atoms: C_18  and  C_19
REMARK    7  A    between atoms: C_19  and  N_20
REMARK                            x       y       z     vdW  Elec       q    Type
REMARK                         _______ _______ _______ _____ _____    ______ ____
ROOT
ATOM      1  C   UNL     1       2.989   5.999  18.122  0.00  0.00    +0.000 C 
ATOM      2  O   UNL     1       1.971   5.531  17.602  0.00  0.00    +0.000 OA
ATOM      3  N   UNL     1       4.130   5.208  18.337  0.00  0.00    +0.000 N 
ATOM      4  C   UNL     1       5.347   5.760  18.932  0.00  0.00    +0.000 C 
ATOM      5  C   UNL     1       6.446   6.105  17.918  0.00  0.00    +0.000 C 
ATOM      6  C   UNL     1       7.197   4.884  17.387  0.00  0.00    +0.000 C 
ATOM      7  S   UNL     1       6.535   4.154  15.856  0.00  0.00    +0.000 S 
ATOM      8  C   UNL     1       4.727   4.180  16.155  0.00  0.00    +0.000 C 
ATOM      9  C   UNL     1       4.309   3.902  17.622  0.00  0.00    +0.000 C 
ENDROOT
BRANCH   1  10
ATOM     10  C   UNL     1       3.077   7.555  18.371  0.00  0.00    +0.000 C 
BRANCH  10  11
ATOM     11  O   UNL     1       2.043   8.435  17.956  0.00  0.00    +0.000 OA
BRANCH  11  16
ATOM     12  C   UNL     1       0.496   9.536  21.185  0.00  0.00    +0.000 A 
ATOM     13  C   UNL     1      -0.076  10.736  20.766  0.00  0.00    +0.000 A 
ATOM     14  C   UNL     1       0.117  11.171  19.456  0.00  0.00    +0.000 A 
ATOM     15  C   UNL     1       0.852  10.384  18.554  0.00  0.00    +0.000 A 
ATOM     16  C   UNL     1       1.407   9.159  18.951  0.00  0.00    +0.000 A 
ATOM     17  C   UNL     1       1.236   8.758  20.283  0.00  0.00    +0.000 A 
BRANCH  12  19
ATOM     18  C   UNL     1      -0.736  10.024  23.147  0.00  0.00    +0.000 C 
ATOM     19  O   UNL     1       0.193   9.185  22.475  0.00  0.00    +0.000 OA
ENDBRANCH  12  19
ENDBRANCH  11  16
ENDBRANCH  10  11
ENDBRANCH   1  10
BRANCH   9  20
ATOM     20  C   UNL     1       3.169   2.822  17.627  0.00  0.00    +0.000 C 
BRANCH  20  21
ATOM     21  N   UNL     1       2.973   1.986  18.824  0.00  0.00    +0.000 NA
ATOM     22  C   UNL     1       1.573   1.663  19.154  0.00  0.00    +0.000 C 
ATOM     23  C   UNL     1       0.786   2.804  19.821  0.00  0.00    +0.000 C 
ATOM     24  O   UNL     1       1.440   3.255  21.012  0.00  0.00    +0.000 OA
ATOM     25  C   UNL     1       2.766   3.705  20.713  0.00  0.00    +0.000 C 
ATOM     26  C   UNL     1       3.604   2.605  20.018  0.00  0.00    +0.000 C 
ENDBRANCH  20  21
ENDBRANCH   9  20
TORSDOF 6
ENDMDL
MODEL 8
REMARK VINA RESULT:      -7.0      2.223      4.038
REMARK  Name = 
REMARK  7 active torsions:
REMARK  status: ('A' for Active; 'I' for Inactive)
REMARK    1  A    between atoms: C_1  and  O_2
REMARK    2  A    between atoms: O_2  and  C_3
REMARK    3  A    between atoms: C_7  and  O_8
REMARK    4  A    between atoms: O_8  and  C_9
REMARK    5  A    between atoms: C_9  and  C_10
REMARK    6  A    between atoms: C_18  and  C_19
REMARK    7  A    between atoms: C_19  and  N_20
REMARK                            x       y       z     vdW  Elec       q    Type
REMARK                         _______ _______ _______ _____ _____    ______ ____
ROOT
ATOM      1  C   UNL     1       2.719   5.852  18.314  0.00  0.00    +0.000 C 
ATOM      2  O   UNL     1       1.739   5.500  17.650  0.00  0.00    +0.000 OA
ATOM      3  N   UNL     1       3.830   5.007  18.481  0.00  0.00    +0.000 N 
ATOM      4  C   UNL     1       5.005   5.425  19.247  0.00  0.00    +0.000 C 
ATOM      5  C   UNL     1       6.183   5.901  18.386  0.00  0.00    +0.000 C 
ATOM      6  C   UNL     1       6.957   4.763  17.721  0.00  0.00    +0.000 C 
ATOM      7  S   UNL     1       6.406   4.306  16.046  0.00  0.00    +0.000 S 
ATOM      8  C   UNL     1       4.580   4.330  16.212  0.00  0.00    +0.000 C 
ATOM      9  C   UNL     1       4.047   3.830  17.579  0.00  0.00    +0.000 C 
ENDROOT
BRANCH   1  10
ATOM     10  C   UNL     1       2.808   7.344  18.818  0.00  0.00    +0.000 C 
BRANCH  10  11
ATOM     11  O   UNL     1       2.193   7.758  20.029  0.00  0.00    +0.000 OA
BRANCH  11  16
ATOM     12  C   UNL     1      -0.289  10.453  20.807  0.00  0.00    +0.000 A 
ATOM     13  C   UNL     1      -0.516  10.933  19.518  0.00  0.00    +0.000 A 
ATOM     14  C   UNL     1       0.198  10.396  18.448  0.00  0.00    +0.000 A 
ATOM     15  C   UNL     1       1.112   9.353  18.664  0.00  0.00    +0.000 A 
ATOM     16  C   UNL     1       1.328   8.837  19.949  0.00  0.00    +0.000 A 
ATOM     17  C   UNL     1       0.630   9.416  21.019  0.00  0.00    +0.000 A 
BRANCH  12  19
ATOM     18  C   UNL     1      -0.930  10.507  23.086  0.00  0.00    +0.000 C 
ATOM     19  O   UNL     1      -1.087  11.017  21.769  0.00  0.00    +0.000 OA
ENDBRANCH  12  19
ENDBRANCH  11  16
ENDBRANCH  10  11
ENDBRANCH   1  10
BRANCH   9  20
ATOM     20  C   UNL     1       2.896   2.792  17.324  0.00  0.00    +0.000 C 
BRANCH  20  21
ATOM     21  N   UNL     1       2.673   1.708  18.296  0.00  0.00    +0.000 NA
ATOM     22  C   UNL     1       1.641   1.969  19.316  0.00  0.00    +0.000 C 
ATOM     23  C   UNL     1       2.079   2.904  20.456  0.00  0.00    +0.000 C 
ATOM     24  O   UNL     1       3.248   2.404  21.113  0.00  0.00    +0.000 OA
ATOM     25  C   UNL     1       4.323   2.261  20.178  0.00  0.00    +0.000 C 
ATOM     26  C   UNL     1       3.935   1.346  18.991  0.00  0.00    +0.000 C 
ENDBRANCH  20  21
ENDBRANCH   9  20
TORSDOF 6
ENDMDL
MODEL 9
REMARK VINA RESULT:      -6.9      4.220     10.246
REMARK  Name = 
REMARK  7 active torsions:
REMARK  status: ('A' for Active; 'I' for Inactive)
REMARK    1  A    between atoms: C_1  and  O_2
REMARK    2  A    between atoms: O_2  and  C_3
REMARK    3  A    between atoms: C_7  and  O_8
REMARK    4  A    between atoms: O_8  and  C_9
REMARK    5  A    between atoms: C_9  and  C_10
REMARK    6  A    between atoms: C_18  and  C_19
REMARK    7  A    between atoms: C_19  and  N_20
REMARK                            x       y       z     vdW  Elec       q    Type
REMARK                         _______ _______ _______ _____ _____    ______ ____
ROOT
ATOM      1  C   UNL     1       0.261   9.876  22.111  0.00  0.00    +0.000 C 
ATOM      2  O   UNL     1       0.288  10.090  23.327  0.00  0.00    +0.000 OA
ATOM      3  N   UNL     1      -0.638  10.553  21.269  0.00  0.00    +0.000 N 
ATOM      4  C   UNL     1      -0.659  10.323  19.824  0.00  0.00    +0.000 C 
ATOM      5  C   UNL     1       0.069  11.395  19.003  0.00  0.00    +0.000 C 
ATOM      6  C   UNL     1      -0.716  12.698  18.859  0.00  0.00    +0.000 C 
ATOM      7  S   UNL     1      -0.376  13.969  20.119  0.00  0.00    +0.000 S 
ATOM      8  C   UNL     1      -0.317  12.985  21.665  0.00  0.00    +0.000 C 
ATOM      9  C   UNL     1      -1.323  11.808  21.722  0.00  0.00    +0.000 C 
ENDROOT
BRANCH   1  10
ATOM     10  C   UNL     1       1.384   8.974  21.466  0.00  0.00    +0.000 C 
BRANCH  10  11
ATOM     11  O   UNL     1       1.214   7.573  21.310  0.00  0.00    +0.000 OA
BRANCH  11  16
ATOM     12  C   UNL     1       2.899   5.172  18.981  0.00  0.00    +0.000 A 
ATOM     13  C   UNL     1       3.263   6.056  17.966  0.00  0.00    +0.000 A 
ATOM     14  C   UNL     1       2.890   7.396  18.053  0.00  0.00    +0.000 A 
ATOM     15  C   UNL     1       2.184   7.858  19.176  0.00  0.00    +0.000 A 
ATOM     16  C   UNL     1       1.839   6.989  20.220  0.00  0.00    +0.000 A 
ATOM     17  C   UNL     1       2.188   5.637  20.096  0.00  0.00    +0.000 A 
BRANCH  12  19
ATOM     18  C   UNL     1       4.754   3.702  19.058  0.00  0.00    +0.000 C 
ATOM     19  O   UNL     1       3.368   3.894  18.813  0.00  0.00    +0.000 OA
ENDBRANCH  12  19
ENDBRANCH  11  16
ENDBRANCH  10  11
ENDBRANCH   1  10
BRANCH   9  20
ATOM     20  C   UNL     1      -2.080  11.855  23.097  0.00  0.00    +0.000 C 
BRANCH  20  21
ATOM     21  N   UNL     1      -3.529  12.122  23.114  0.00  0.00    +0.000 NA
ATOM     22  C   UNL     1      -4.041  12.935  21.996  0.00  0.00    +0.000 C 
ATOM     23  C   UNL     1      -3.761  14.443  22.110  0.00  0.00    +0.000 C 
ATOM     24  O   UNL     1      -4.284  14.974  23.332  0.00  0.00    +0.000 OA
ATOM     25  C   UNL     1      -3.708  14.298  24.456  0.00  0.00    +0.000 C 
ATOM     26  C   UNL     1      -3.938  12.770  24.388  0.00  0.00    +0.000 C 
ENDBRANCH  20  21
ENDBRANCH   9  20
TORSDOF 6
ENDMDL
