MODEL 1
REMARK VINA RESULT:      -8.2      0.000      0.000
REMARK  Name = 
REMARK  8 active torsions:
REMARK  status: ('A' for Active; 'I' for Inactive)
REMARK    1  A    between atoms: C_1  and  O_2
REMARK    2  A    between atoms: O_2  and  C_3
REMARK    3  A    between atoms: N_10  and  C_11
REMARK    4  A    between atoms: C_21  and  O_22
REMARK    5  A    between atoms: O_22  and  C_23
REMARK    6  A    between atoms: C_23  and  C_24
REMARK    7  A    between atoms: C_24  and  C_25
REMARK    8  A    between atoms: N_27  and  O_28
REMARK                            x       y       z     vdW  Elec       q    Type
REMARK                         _______ _______ _______ _____ _____    ______ ____
ROOT
ATOM      1  C   UNL     1       4.932   4.390  16.901  0.00  0.00    +0.000 A 
ATOM      2  C   UNL     1       3.923   3.775  17.654  0.00  0.00    +0.000 A 
ATOM      3  C   UNL     1       3.060   4.492  18.472  0.00  0.00    +0.000 A 
ATOM      4  N   UNL     1       2.152   3.814  19.178  0.00  0.00    +0.000 NA
ATOM      5  C   UNL     1       1.335   4.534  19.951  0.00  0.00    +0.000 A 
ATOM      6  N   UNL     1       1.327   5.864  20.056  0.00  0.00    +0.000 NA
ATOM      7  C   UNL     1       2.234   6.541  19.326  0.00  0.00    +0.000 A 
ATOM      8  N   UNL     1       2.200   7.967  19.348  0.00  0.00    +0.000 N 
ATOM      9  C   UNL     1       3.175   5.884  18.523  0.00  0.00    +0.000 A 
ATOM     10  C   UNL     1       4.190   6.518  17.780  0.00  0.00    +0.000 A 
ATOM     11  C   UNL     1       5.037   5.787  16.944  0.00  0.00    +0.000 A 
ATOM     12  H   UNL     1       2.061   8.303  18.398  0.00  0.00    +0.000 HD
ENDROOT
BRANCH   8  13
ATOM     13  C   UNL     1       1.401   8.703  20.261  0.00  0.00    +0.000 A 
ATOM     14  C   UNL     1       1.582   8.526  21.641  0.00  0.00    +0.000 A 
ATOM     15  C   UNL     1       0.753   9.168  22.559  0.00  0.00    +0.000 A 
ATOM     16  C   UNL     1      -0.256  10.010  22.103  0.00  0.00    +0.000 A 
ATOM     17 CL   UNL     1      -1.313  10.755  23.237  0.00  0.00    +0.000 Cl
ATOM     18  C   UNL     1      -0.427  10.243  20.739  0.00  0.00    +0.000 A 
ATOM     19  C   UNL     1       0.406   9.595  19.824  0.00  0.00    +0.000 A 
ATOM     20 CL   UNL     1       0.160   9.881  18.135  0.00  0.00    +0.000 Cl
ENDBRANCH   8  13
BRANCH   1  22
ATOM     21  C   UNL     1       5.669   3.725  14.707  0.00  0.00    +0.000 C 
ATOM     22  O   UNL     1       5.818   3.701  16.125  0.00  0.00    +0.000 OA
ENDBRANCH   1  22
BRANCH  11  23
ATOM     23  O   UNL     1       5.915   6.586  16.267  0.00  0.00    +0.000 OA
BRANCH  23  24
ATOM     24  C   UNL     1       7.309   6.496  16.563  0.00  0.00    +0.000 C 
BRANCH  24  25
ATOM     25  C   UNL     1       7.675   6.990  17.961  0.00  0.00    +0.000 C 
BRANCH  25  26
ATOM     26  C   UNL     1       7.915   5.817  18.876  0.00  0.00    +0.000 C 
ATOM     27  O   UNL     1       8.005   4.649  18.501  0.00  0.00    +0.000 OA
ATOM     28  N   UNL     1       8.017   6.151  20.206  0.00  0.00    +0.000 N 
ATOM     29  H   UNL     1       8.276   7.079  20.522  0.00  0.00    +0.000 HD
BRANCH  28  30
ATOM     30  O   UNL     1       8.367   5.077  21.056  0.00  0.00    +0.000 OA
ATOM     31  H   UNL     1       9.230   4.785  20.691  0.00  0.00    +0.000 HD
ENDBRANCH  28  30
ENDBRANCH  25  26
ENDBRANCH  24  25
ENDBRANCH  23  24
ENDBRANCH  11  23
TORSDOF 7
ENDMDL
MODEL 2
REMARK VINA RESULT:      -8.2      2.267      3.122
REMARK  Name = 
REMARK  8 active torsions:
REMARK  status: ('A' for Active; 'I' for Inactive)
REMARK    1  A    between atoms: C_1  and  O_2
REMARK    2  A    between atoms: O_2  and  C_3
REMARK    3  A    between atoms: N_10  and  C_11
REMARK    4  A    between atoms: C_21  and  O_22
REMARK    5  A    between atoms: O_22  and  C_23
REMARK    6  A    between atoms: C_23  and  C_24
REMARK    7  A    between atoms: C_24  and  C_25
REMARK    8  A    between atoms: N_27  and  O_28
REMARK                            x       y       z     vdW  Elec       q    Type
REMARK                         _______ _______ _______ _____ _____    ______ ____
ROOT
ATOM      1  C   UNL     1       3.730   5.216  18.721  0.00  0.00    +0.000 A 
ATOM      2  C   UNL     1       2.908   5.507  19.818  0.00  0.00    +0.000 A 
ATOM      3  C   UNL     1       2.255   6.723  19.960  0.00  0.00    +0.000 A 
ATOM      4  N   UNL     1       1.520   6.920  21.057  0.00  0.00    +0.000 NA
ATOM      5  C   UNL     1       0.902   8.100  21.159  0.00  0.00    +0.000 A 
ATOM      6  N   UNL     1       0.930   9.080  20.255  0.00  0.00    +0.000 NA
ATOM      7  C   UNL     1       1.659   8.865  19.142  0.00  0.00    +0.000 A 
ATOM      8  N   UNL     1       1.644   9.855  18.116  0.00  0.00    +0.000 N 
ATOM      9  C   UNL     1       2.392   7.686  18.955  0.00  0.00    +0.000 A 
ATOM     10  C   UNL     1       3.222   7.414  17.851  0.00  0.00    +0.000 A 
ATOM     11  C   UNL     1       3.856   6.178  17.710  0.00  0.00    +0.000 A 
ATOM     12  H   UNL     1       1.301   9.429  17.258  0.00  0.00    +0.000 HD
ENDROOT
BRANCH   8  13
ATOM     13  C   UNL     1       1.074  11.143  18.297  0.00  0.00    +0.000 A 
ATOM     14  C   UNL     1       1.892  12.215  18.688  0.00  0.00    +0.000 A 
ATOM     15  C   UNL     1       1.346  13.467  18.959  0.00  0.00    +0.000 A 
ATOM     16  C   UNL     1      -0.024  13.665  18.825  0.00  0.00    +0.000 A 
ATOM     17 CL   UNL     1      -0.701  15.197  19.216  0.00  0.00    +0.000 Cl
ATOM     18  C   UNL     1      -0.854  12.631  18.391  0.00  0.00    +0.000 A 
ATOM     19  C   UNL     1      -0.300  11.377  18.122  0.00  0.00    +0.000 A 
ATOM     20 CL   UNL     1      -1.353  10.103  17.608  0.00  0.00    +0.000 Cl
ENDBRANCH   8  13
BRANCH   1  22
ATOM     21  C   UNL     1       3.777   2.818  18.934  0.00  0.00    +0.000 C 
ATOM     22  O   UNL     1       4.416   4.043  18.584  0.00  0.00    +0.000 OA
ENDBRANCH   1  22
BRANCH  11  23
ATOM     23  O   UNL     1       4.569   6.090  16.548  0.00  0.00    +0.000 OA
BRANCH  23  24
ATOM     24  C   UNL     1       5.869   6.677  16.482  0.00  0.00    +0.000 C 
BRANCH  24  25
ATOM     25  C   UNL     1       6.998   5.716  16.847  0.00  0.00    +0.000 C 
BRANCH  25  26
ATOM     26  C   UNL     1       7.562   6.074  18.198  0.00  0.00    +0.000 C 
ATOM     27  O   UNL     1       8.102   7.146  18.465  0.00  0.00    +0.000 OA
ATOM     28  N   UNL     1       7.439   5.081  19.141  0.00  0.00    +0.000 N 
ATOM     29  H   UNL     1       6.741   4.348  19.080  0.00  0.00    +0.000 HD
BRANCH  28  30
ATOM     30  O   UNL     1       7.850   5.452  20.442  0.00  0.00    +0.000 OA
ATOM     31  H   UNL     1       7.691   6.421  20.450  0.00  0.00    +0.000 HD
ENDBRANCH  28  30
ENDBRANCH  25  26
ENDBRANCH  24  25
ENDBRANCH  23  24
ENDBRANCH  11  23
TORSDOF 7
ENDMDL
MODEL 3
REMARK VINA RESULT:      -7.9      2.774      4.711
REMARK  Name = 
REMARK  8 active torsions:
REMARK  status: ('A' for Active; 'I' for Inactive)
REMARK    1  A    between atoms: C_1  and  O_2
REMARK    2  A    between atoms: O_2  and  C_3
REMARK    3  A    between atoms: N_10  and  C_11
REMARK    4  A    between atoms: C_21  and  O_22
REMARK    5  A    between atoms: O_22  and  C_23
REMARK    6  A    between atoms: C_23  and  C_24
REMARK    7  A    between atoms: C_24  and  C_25
REMARK    8  A    between atoms: N_27  and  O_28
REMARK                            x       y       z     vdW  Elec       q    Type
REMARK                         _______ _______ _______ _____ _____    ______ ____
ROOT
ATOM      1  C   UNL     1       3.637   5.472  18.411  0.00  0.00    +0.000 A 
ATOM      2  C   UNL     1       3.560   6.654  17.661  0.00  0.00    +0.000 A 
ATOM      3  C   UNL     1       2.794   7.741  18.058  0.00  0.00    +0.000 A 
ATOM      4  N   UNL     1       2.756   8.811  17.260  0.00  0.00    +0.000 NA
ATOM      5  C   UNL     1       2.013   9.841  17.674  0.00  0.00    +0.000 A 
ATOM      6  N   UNL     1       1.334   9.906  18.821  0.00  0.00    +0.000 NA
ATOM      7  C   UNL     1       1.393   8.829  19.628  0.00  0.00    +0.000 A 
ATOM      8  N   UNL     1       0.749   8.895  20.899  0.00  0.00    +0.000 N 
ATOM      9  C   UNL     1       2.098   7.673  19.269  0.00  0.00    +0.000 A 
ATOM     10  C   UNL     1       2.156   6.490  20.030  0.00  0.00    +0.000 A 
ATOM     11  C   UNL     1       2.948   5.411  19.630  0.00  0.00    +0.000 A 
ATOM     12  H   UNL     1       1.445   8.738  21.624  0.00  0.00    +0.000 HD
ENDROOT
BRANCH   8  13
ATOM     13  C   UNL     1      -0.125   9.951  21.265  0.00  0.00    +0.000 A 
ATOM     14  C   UNL     1      -0.720  10.737  20.266  0.00  0.00    +0.000 A 
ATOM     15  C   UNL     1      -1.511  11.836  20.599  0.00  0.00    +0.000 A 
ATOM     16  C   UNL     1      -1.730  12.148  21.937  0.00  0.00    +0.000 A 
ATOM     17 CL   UNL     1      -2.659  13.537  22.341  0.00  0.00    +0.000 Cl
ATOM     18  C   UNL     1      -1.191  11.355  22.949  0.00  0.00    +0.000 A 
ATOM     19  C   UNL     1      -0.398  10.256  22.610  0.00  0.00    +0.000 A 
ATOM     20 CL   UNL     1       0.280   9.301  23.884  0.00  0.00    +0.000 Cl
ENDBRANCH   8  13
BRANCH   1  22
ATOM     21  C   UNL     1       5.267   4.494  16.934  0.00  0.00    +0.000 C 
ATOM     22  O   UNL     1       4.349   4.376  18.017  0.00  0.00    +0.000 OA
ENDBRANCH   1  22
BRANCH  11  23
ATOM     23  O   UNL     1       2.915   4.382  20.528  0.00  0.00    +0.000 OA
BRANCH  23  24
ATOM     24  C   UNL     1       1.676   4.037  21.147  0.00  0.00    +0.000 C 
BRANCH  24  25
ATOM     25  C   UNL     1       1.149   2.660  20.747  0.00  0.00    +0.000 C 
BRANCH  25  26
ATOM     26  C   UNL     1       1.486   2.378  19.305  0.00  0.00    +0.000 C 
ATOM     27  O   UNL     1       0.725   2.581  18.361  0.00  0.00    +0.000 OA
ATOM     28  N   UNL     1       2.740   1.847  19.113  0.00  0.00    +0.000 N 
ATOM     29  H   UNL     1       3.496   1.968  19.778  0.00  0.00    +0.000 HD
BRANCH  28  30
ATOM     30  O   UNL     1       3.112   1.698  17.757  0.00  0.00    +0.000 OA
ATOM     31  H   UNL     1       2.279   1.906  17.281  0.00  0.00    +0.000 HD
ENDBRANCH  28  30
ENDBRANCH  25  26
ENDBRANCH  24  25
ENDBRANCH  23  24
ENDBRANCH  11  23
TORSDOF 7
ENDMDL
MODEL 4
REMARK VINA RESULT:      -7.8      2.396      3.473
REMARK  Name = 
REMARK  8 active torsions:
REMARK  status: ('A' for Active; 'I' for Inactive)
REMARK    1  A    between atoms: C_1  and  O_2
REMARK    2  A    between atoms: O_2  and  C_3
REMARK    3  A    between atoms: N_10  and  C_11
REMARK    4  A    between atoms: C_21  and  O_22
REMARK    5  A    between atoms: O_22  and  C_23
REMARK    6  A    between atoms: C_23  and  C_24
REMARK    7  A    between atoms: C_24  and  C_25
REMARK    8  A    between atoms: N_27  and  O_28
REMARK                            x       y       z     vdW  Elec       q    Type
REMARK                         _______ _______ _______ _____ _____    ______ ____
ROOT
ATOM      1  C   UNL     1       3.812   5.015  18.699  0.00  0.00    +0.000 A 
ATOM      2  C   UNL     1       3.012   5.330  19.806  0.00  0.00    +0.000 A 
ATOM      3  C   UNL     1       2.375   6.556  19.942  0.00  0.00    +0.000 A 
ATOM      4  N   UNL     1       1.661   6.777  21.048  0.00  0.00    +0.000 NA
ATOM      5  C   UNL     1       1.058   7.965  21.145  0.00  0.00    +0.000 A 
ATOM      6  N   UNL     1       1.082   8.932  20.227  0.00  0.00    +0.000 NA
ATOM      7  C   UNL     1       1.790   8.694  19.105  0.00  0.00    +0.000 A 
ATOM      8  N   UNL     1       1.769   9.670  18.066  0.00  0.00    +0.000 N 
ATOM      9  C   UNL     1       2.506   7.504  18.922  0.00  0.00    +0.000 A 
ATOM     10  C   UNL     1       3.315   7.208  17.808  0.00  0.00    +0.000 A 
ATOM     11  C   UNL     1       3.932   5.963  17.673  0.00  0.00    +0.000 A 
ATOM     12  H   UNL     1       1.407   9.237  17.220  0.00  0.00    +0.000 HD
ENDROOT
BRANCH   8  13
ATOM     13  C   UNL     1       1.218  10.967  18.239  0.00  0.00    +0.000 A 
ATOM     14  C   UNL     1       2.062  12.044  18.549  0.00  0.00    +0.000 A 
ATOM     15  C   UNL     1       1.539  13.309  18.812  0.00  0.00    +0.000 A 
ATOM     16  C   UNL     1       0.164  13.512  18.750  0.00  0.00    +0.000 A 
ATOM     17 CL   UNL     1      -0.481  15.060  19.131  0.00  0.00    +0.000 Cl
ATOM     18  C   UNL     1      -0.694  12.471  18.396  0.00  0.00    +0.000 A 
ATOM     19  C   UNL     1      -0.163  11.205  18.135  0.00  0.00    +0.000 A 
ATOM     20 CL   UNL     1      -1.250   9.923  17.722  0.00  0.00    +0.000 Cl
ENDBRANCH   8  13
BRANCH   1  22
ATOM     21  C   UNL     1       3.802   2.612  18.848  0.00  0.00    +0.000 C 
ATOM     22  O   UNL     1       4.482   3.833  18.566  0.00  0.00    +0.000 OA
ENDBRANCH   1  22
BRANCH  11  23
ATOM     23  O   UNL     1       4.624   5.850  16.501  0.00  0.00    +0.000 OA
BRANCH  23  24
ATOM     24  C   UNL     1       4.402   4.711  15.668  0.00  0.00    +0.000 C 
BRANCH  24  25
ATOM     25  C   UNL     1       5.566   4.397  14.731  0.00  0.00    +0.000 C 
BRANCH  25  26
ATOM     26  C   UNL     1       6.876   4.664  15.427  0.00  0.00    +0.000 C 
ATOM     27  O   UNL     1       7.783   5.351  14.962  0.00  0.00    +0.000 OA
ATOM     28  N   UNL     1       6.995   4.057  16.655  0.00  0.00    +0.000 N 
ATOM     29  H   UNL     1       6.194   3.774  17.209  0.00  0.00    +0.000 HD
BRANCH  28  30
ATOM     30  O   UNL     1       8.164   4.403  17.370  0.00  0.00    +0.000 OA
ATOM     31  H   UNL     1       7.891   4.277  18.305  0.00  0.00    +0.000 HD
ENDBRANCH  28  30
ENDBRANCH  25  26
ENDBRANCH  24  25
ENDBRANCH  23  24
ENDBRANCH  11  23
TORSDOF 7
ENDMDL
MODEL 5
REMARK VINA RESULT:      -7.7      2.516      3.609
REMARK  Name = 
REMARK  8 active torsions:
REMARK  status: ('A' for Active; 'I' for Inactive)
REMARK    1  A    between atoms: C_1  and  O_2
REMARK    2  A    between atoms: O_2  and  C_3
REMARK    3  A    between atoms: N_10  and  C_11
REMARK    4  A    between atoms: C_21  and  O_22
REMARK    5  A    between atoms: O_22  and  C_23
REMARK    6  A    between atoms: C_23  and  C_24
REMARK    7  A    between atoms: C_24  and  C_25
REMARK    8  A    between atoms: N_27  and  O_28
REMARK                            x       y       z     vdW  Elec       q    Type
REMARK                         _______ _______ _______ _____ _____    ______ ____
ROOT
ATOM      1  C   UNL     1       3.571   5.489  18.912  0.00  0.00    +0.000 A 
ATOM      2  C   UNL     1       2.660   5.712  19.953  0.00  0.00    +0.000 A 
ATOM      3  C   UNL     1       1.994   6.919  20.117  0.00  0.00    +0.000 A 
ATOM      4  N   UNL     1       1.170   7.048  21.158  0.00  0.00    +0.000 NA
ATOM      5  C   UNL     1       0.543   8.221  21.284  0.00  0.00    +0.000 A 
ATOM      6  N   UNL     1       0.643   9.256  20.448  0.00  0.00    +0.000 NA
ATOM      7  C   UNL     1       1.463   9.110  19.390  0.00  0.00    +0.000 A 
ATOM      8  N   UNL     1       1.531  10.163  18.430  0.00  0.00    +0.000 N 
ATOM      9  C   UNL     1       2.212   7.943  19.190  0.00  0.00    +0.000 A 
ATOM     10  C   UNL     1       3.132   7.740  18.144  0.00  0.00    +0.000 A 
ATOM     11  C   UNL     1       3.779   6.513  17.978  0.00  0.00    +0.000 A 
ATOM     12  H   UNL     1       1.262   9.793  17.522  0.00  0.00    +0.000 HD
ENDROOT
BRANCH   8  13
ATOM     13  C   UNL     1       0.946  11.439  18.645  0.00  0.00    +0.000 A 
ATOM     14  C   UNL     1       1.738  12.495  19.119  0.00  0.00    +0.000 A 
ATOM     15  C   UNL     1       1.172  13.732  19.423  0.00  0.00    +0.000 A 
ATOM     16  C   UNL     1      -0.193  13.929  19.238  0.00  0.00    +0.000 A 
ATOM     17 CL   UNL     1      -0.896  15.438  19.668  0.00  0.00    +0.000 Cl
ATOM     18  C   UNL     1      -0.995  12.912  18.721  0.00  0.00    +0.000 A 
ATOM     19  C   UNL     1      -0.422  11.674  18.420  0.00  0.00    +0.000 A 
ATOM     20 CL   UNL     1      -1.442  10.419  17.803  0.00  0.00    +0.000 Cl
ENDBRANCH   8  13
BRANCH   1  22
ATOM     21  C   UNL     1       3.860   3.168  19.482  0.00  0.00    +0.000 C 
ATOM     22  O   UNL     1       4.269   4.326  18.758  0.00  0.00    +0.000 OA
ENDBRANCH   1  22
BRANCH  11  23
ATOM     23  O   UNL     1       4.586   6.496  16.876  0.00  0.00    +0.000 OA
BRANCH  23  24
ATOM     24  C   UNL     1       5.854   7.150  16.932  0.00  0.00    +0.000 C 
BRANCH  24  25
ATOM     25  C   UNL     1       7.033   6.194  17.107  0.00  0.00    +0.000 C 
BRANCH  25  26
ATOM     26  C   UNL     1       6.946   5.078  16.098  0.00  0.00    +0.000 C 
ATOM     27  O   UNL     1       7.539   5.065  15.022  0.00  0.00    +0.000 OA
ATOM     28  N   UNL     1       6.118   4.045  16.471  0.00  0.00    +0.000 N 
ATOM     29  H   UNL     1       5.882   3.851  17.438  0.00  0.00    +0.000 HD
BRANCH  28  30
ATOM     30  O   UNL     1       6.128   2.938  15.592  0.00  0.00    +0.000 OA
ATOM     31  H   UNL     1       5.180   2.844  15.354  0.00  0.00    +0.000 HD
ENDBRANCH  28  30
ENDBRANCH  25  26
ENDBRANCH  24  25
ENDBRANCH  23  24
ENDBRANCH  11  23
TORSDOF 7
ENDMDL
MODEL 6
REMARK VINA RESULT:      -7.6      2.852      4.084
REMARK  Name = 
REMARK  8 active torsions:
REMARK  status: ('A' for Active; 'I' for Inactive)
REMARK    1  A    between atoms: C_1  and  O_2
REMARK    2  A    between atoms: O_2  and  C_3
REMARK    3  A    between atoms: N_10  and  C_11
REMARK    4  A    between atoms: C_21  and  O_22
REMARK    5  A    between atoms: O_22  and  C_23
REMARK    6  A    between atoms: C_23  and  C_24
REMARK    7  A    between atoms: C_24  and  C_25
REMARK    8  A    between atoms: N_27  and  O_28
REMARK                            x       y       z     vdW  Elec       q    Type
REMARK                         _______ _______ _______ _____ _____    ______ ____
ROOT
ATOM      1  C   UNL     1       2.682   5.489  19.539  0.00  0.00    +0.000 A 
ATOM      2  C   UNL     1       1.892   5.996  20.580  0.00  0.00    +0.000 A 
ATOM      3  C   UNL     1       1.450   7.312  20.608  0.00  0.00    +0.000 A 
ATOM      4  N   UNL     1       0.730   7.714  21.658  0.00  0.00    +0.000 NA
ATOM      5  C   UNL     1       0.318   8.984  21.651  0.00  0.00    +0.000 A 
ATOM      6  N   UNL     1       0.534   9.872  20.679  0.00  0.00    +0.000 NA
ATOM      7  C   UNL     1       1.246   9.453  19.614  0.00  0.00    +0.000 A 
ATOM      8  N   UNL     1       1.425  10.348  18.519  0.00  0.00    +0.000 N 
ATOM      9  C   UNL     1       1.774   8.158  19.542  0.00  0.00    +0.000 A 
ATOM     10  C   UNL     1       2.575   7.666  18.493  0.00  0.00    +0.000 A 
ATOM     11  C   UNL     1       2.995   6.335  18.467  0.00  0.00    +0.000 A 
ATOM     12  H   UNL     1       1.037   9.920  17.682  0.00  0.00    +0.000 HD
ENDROOT
BRANCH   8  13
ATOM     13  C   UNL     1       1.077  11.723  18.584  0.00  0.00    +0.000 A 
ATOM     14  C   UNL     1       2.061  12.675  18.892  0.00  0.00    +0.000 A 
ATOM     15  C   UNL     1       1.730  14.019  19.050  0.00  0.00    +0.000 A 
ATOM     16  C   UNL     1       0.411  14.428  18.884  0.00  0.00    +0.000 A 
ATOM     17 CL   UNL     1      -0.002  16.078  19.136  0.00  0.00    +0.000 Cl
ATOM     18  C   UNL     1      -0.579  13.511  18.530  0.00  0.00    +0.000 A 
ATOM     19  C   UNL     1      -0.241  12.165  18.374  0.00  0.00    +0.000 A 
ATOM     20 CL   UNL     1      -1.491  11.042  17.958  0.00  0.00    +0.000 Cl
ENDBRANCH   8  13
BRANCH   1  22
ATOM     21  C   UNL     1       2.245   3.121  19.522  0.00  0.00    +0.000 C 
ATOM     22  O   UNL     1       3.163   4.211  19.514  0.00  0.00    +0.000 OA
ENDBRANCH   1  22
BRANCH  11  23
ATOM     23  O   UNL     1       3.713   6.038  17.343  0.00  0.00    +0.000 OA
BRANCH  23  24
ATOM     24  C   UNL     1       5.038   6.552  17.208  0.00  0.00    +0.000 C 
BRANCH  24  25
ATOM     25  C   UNL     1       6.108   5.678  17.859  0.00  0.00    +0.000 C 
BRANCH  25  26
ATOM     26  C   UNL     1       7.114   5.240  16.826  0.00  0.00    +0.000 C 
ATOM     27  O   UNL     1       7.945   4.351  16.997  0.00  0.00    +0.000 OA
ATOM     28  N   UNL     1       7.047   5.938  15.642  0.00  0.00    +0.000 N 
ATOM     29  H   UNL     1       6.210   6.422  15.337  0.00  0.00    +0.000 HD
BRANCH  28  30
ATOM     30  O   UNL     1       7.900   5.452  14.625  0.00  0.00    +0.000 OA
ATOM     31  H   UNL     1       7.287   5.335  13.867  0.00  0.00    +0.000 HD
ENDBRANCH  28  30
ENDBRANCH  25  26
ENDBRANCH  24  25
ENDBRANCH  23  24
ENDBRANCH  11  23
TORSDOF 7
ENDMDL
MODEL 7
REMARK VINA RESULT:      -7.6      2.607      3.791
REMARK  Name = 
REMARK  8 active torsions:
REMARK  status: ('A' for Active; 'I' for Inactive)
REMARK    1  A    between atoms: C_1  and  O_2
REMARK    2  A    between atoms: O_2  and  C_3
REMARK    3  A    between atoms: N_10  and  C_11
REMARK    4  A    between atoms: C_21  and  O_22
REMARK    5  A    between atoms: O_22  and  C_23
REMARK    6  A    between atoms: C_23  and  C_24
REMARK    7  A    between atoms: C_24  and  C_25
REMARK    8  A    between atoms: N_27  and  O_28
REMARK                            x       y       z     vdW  Elec       q    Type
REMARK                         _______ _______ _______ _____ _____    ______ ____
ROOT
ATOM      1  C   UNL     1       2.875   5.094  19.523  0.00  0.00    +0.000 A 
ATOM      2  C   UNL     1       2.148   5.639  20.590  0.00  0.00    +0.000 A 
ATOM      3  C   UNL     1       1.683   6.947  20.586  0.00  0.00    +0.000 A 
ATOM      4  N   UNL     1       1.028   7.387  21.663  0.00  0.00    +0.000 NA
ATOM      5  C   UNL     1       0.591   8.649  21.624  0.00  0.00    +0.000 A 
ATOM      6  N   UNL     1       0.724   9.492  20.599  0.00  0.00    +0.000 NA
ATOM      7  C   UNL     1       1.370   9.034  19.509  0.00  0.00    +0.000 A 
ATOM      8  N   UNL     1       1.457   9.878  18.363  0.00  0.00    +0.000 N 
ATOM      9  C   UNL     1       1.917   7.745  19.462  0.00  0.00    +0.000 A 
ATOM     10  C   UNL     1       2.655   7.217  18.385  0.00  0.00    +0.000 A 
ATOM     11  C   UNL     1       3.098   5.893  18.393  0.00  0.00    +0.000 A 
ATOM     12  H   UNL     1       1.022   9.403  17.576  0.00  0.00    +0.000 HD
ENDROOT
BRANCH   8  13
ATOM     13  C   UNL     1       1.087  11.249  18.388  0.00  0.00    +0.000 A 
ATOM     14  C   UNL     1       2.079  12.233  18.509  0.00  0.00    +0.000 A 
ATOM     15  C   UNL     1       1.738  13.580  18.625  0.00  0.00    +0.000 A 
ATOM     16  C   UNL     1       0.399  13.956  18.602  0.00  0.00    +0.000 A 
ATOM     17 CL   UNL     1      -0.018  15.612  18.803  0.00  0.00    +0.000 Cl
ATOM     18  C   UNL     1      -0.605  13.003  18.433  0.00  0.00    +0.000 A 
ATOM     19  C   UNL     1      -0.257  11.655  18.319  0.00  0.00    +0.000 A 
ATOM     20 CL   UNL     1      -1.522  10.488  18.133  0.00  0.00    +0.000 Cl
ENDBRANCH   8  13
BRANCH   1  22
ATOM     21  C   UNL     1       2.513   2.732  19.229  0.00  0.00    +0.000 C 
ATOM     22  O   UNL     1       3.378   3.825  19.525  0.00  0.00    +0.000 OA
ENDBRANCH   1  22
BRANCH  11  23
ATOM     23  O   UNL     1       3.743   5.554  17.237  0.00  0.00    +0.000 OA
BRANCH  23  24
ATOM     24  C   UNL     1       4.570   6.523  16.592  0.00  0.00    +0.000 C 
BRANCH  24  25
ATOM     25  C   UNL     1       5.595   5.919  15.634  0.00  0.00    +0.000 C 
BRANCH  25  26
ATOM     26  C   UNL     1       6.863   5.586  16.378  0.00  0.00    +0.000 C 
ATOM     27  O   UNL     1       7.831   6.337  16.473  0.00  0.00    +0.000 OA
ATOM     28  N   UNL     1       6.868   4.336  16.952  0.00  0.00    +0.000 N 
ATOM     29  H   UNL     1       6.017   3.834  17.184  0.00  0.00    +0.000 HD
BRANCH  28  30
ATOM     30  O   UNL     1       7.998   4.064  17.756  0.00  0.00    +0.000 OA
ATOM     31  H   UNL     1       8.075   4.877  18.301  0.00  0.00    +0.000 HD
ENDBRANCH  28  30
ENDBRANCH  25  26
ENDBRANCH  24  25
ENDBRANCH  23  24
ENDBRANCH  11  23
TORSDOF 7
ENDMDL
MODEL 8
REMARK VINA RESULT:      -7.5      3.005      4.387
REMARK  Name = 
REMARK  8 active torsions:
REMARK  status: ('A' for Active; 'I' for Inactive)
REMARK    1  A    between atoms: C_1  and  O_2
REMARK    2  A    between atoms: O_2  and  C_3
REMARK    3  A    between atoms: N_10  and  C_11
REMARK    4  A    between atoms: C_21  and  O_22
REMARK    5  A    between atoms: O_22  and  C_23
REMARK    6  A    between atoms: C_23  and  C_24
REMARK    7  A    between atoms: C_24  and  C_25
REMARK    8  A    between atoms: N_27  and  O_28
REMARK                            x       y       z     vdW  Elec       q    Type
REMARK                         _______ _______ _______ _____ _____    ______ ____
ROOT
ATOM      1  C   UNL     1       2.325   5.778  19.816  0.00  0.00    +0.000 A 
ATOM      2  C   UNL     1       1.612   6.386  20.858  0.00  0.00    +0.000 A 
ATOM      3  C   UNL     1       1.278   7.734  20.846  0.00  0.00    +0.000 A 
ATOM      4  N   UNL     1       0.626   8.231  21.900  0.00  0.00    +0.000 NA
ATOM      5  C   UNL     1       0.316   9.529  21.854  0.00  0.00    +0.000 A 
ATOM      6  N   UNL     1       0.573  10.360  20.842  0.00  0.00    +0.000 NA
ATOM      7  C   UNL     1       1.214   9.846  19.776  0.00  0.00    +0.000 A 
ATOM      8  N   UNL     1       1.430  10.682  18.641  0.00  0.00    +0.000 N 
ATOM      9  C   UNL     1       1.634   8.510  19.739  0.00  0.00    +0.000 A 
ATOM     10  C   UNL     1       2.360   7.916  18.689  0.00  0.00    +0.000 A 
ATOM     11  C   UNL     1       2.671   6.555  18.703  0.00  0.00    +0.000 A 
ATOM     12  H   UNL     1       0.983  10.256  17.833  0.00  0.00    +0.000 HD
ENDROOT
BRANCH   8  13
ATOM     13  C   UNL     1       1.195  12.082  18.662  0.00  0.00    +0.000 A 
ATOM     14  C   UNL     1       2.259  12.961  18.919  0.00  0.00    +0.000 A 
ATOM     15  C   UNL     1       2.040  14.332  19.034  0.00  0.00    +0.000 A 
ATOM     16  C   UNL     1       0.755  14.841  18.873  0.00  0.00    +0.000 A 
ATOM     17 CL   UNL     1       0.482  16.527  19.072  0.00  0.00    +0.000 Cl
ATOM     18  C   UNL     1      -0.312  13.996  18.569  0.00  0.00    +0.000 A 
ATOM     19  C   UNL     1      -0.087  12.622  18.457  0.00  0.00    +0.000 A 
ATOM     20 CL   UNL     1      -1.430  11.591  18.101  0.00  0.00    +0.000 Cl
ENDBRANCH   8  13
BRANCH   1  22
ATOM     21  C   UNL     1       2.011   3.550  20.675  0.00  0.00    +0.000 C 
ATOM     22  O   UNL     1       2.702   4.465  19.828  0.00  0.00    +0.000 OA
ENDBRANCH   1  22
BRANCH  11  23
ATOM     23  O   UNL     1       3.327   6.160  17.572  0.00  0.00    +0.000 OA
BRANCH  23  24
ATOM     24  C   UNL     1       4.529   6.832  17.193  0.00  0.00    +0.000 C 
BRANCH  24  25
ATOM     25  C   UNL     1       5.748   5.915  17.113  0.00  0.00    +0.000 C 
BRANCH  25  26
ATOM     26  C   UNL     1       5.379   4.526  17.566  0.00  0.00    +0.000 C 
ATOM     27  O   UNL     1       4.953   3.643  16.824  0.00  0.00    +0.000 OA
ATOM     28  N   UNL     1       5.545   4.309  18.914  0.00  0.00    +0.000 N 
ATOM     29  H   UNL     1       6.177   4.859  19.485  0.00  0.00    +0.000 HD
BRANCH  28  30
ATOM     30  O   UNL     1       5.323   2.976  19.326  0.00  0.00    +0.000 OA
ATOM     31  H   UNL     1       5.721   2.958  20.223  0.00  0.00    +0.000 HD
ENDBRANCH  28  30
ENDBRANCH  25  26
ENDBRANCH  24  25
ENDBRANCH  23  24
ENDBRANCH  11  23
TORSDOF 7
ENDMDL
MODEL 9
REMARK VINA RESULT:      -7.4      2.329      3.195
REMARK  Name = 
REMARK  8 active torsions:
REMARK  status: ('A' for Active; 'I' for Inactive)
REMARK    1  A    between atoms: C_1  and  O_2
REMARK    2  A    between atoms: O_2  and  C_3
REMARK    3  A    between atoms: N_10  and  C_11
REMARK    4  A    between atoms: C_21  and  O_22
REMARK    5  A    between atoms: O_22  and  C_23
REMARK    6  A    between atoms: C_23  and  C_24
REMARK    7  A    between atoms: C_24  and  C_25
REMARK    8  A    between atoms: N_27  and  O_28
REMARK                            x       y       z     vdW  Elec       q    Type
REMARK                         _______ _______ _______ _____ _____    ______ ____
ROOT
ATOM      1  C   UNL     1       3.586   4.732  18.764  0.00  0.00    +0.000 A 
ATOM      2  C   UNL     1       2.808   5.123  19.862  0.00  0.00    +0.000 A 
ATOM      3  C   UNL     1       2.261   6.395  19.974  0.00  0.00    +0.000 A 
ATOM      4  N   UNL     1       1.561   6.685  21.073  0.00  0.00    +0.000 NA
ATOM      5  C   UNL     1       1.045   7.915  21.147  0.00  0.00    +0.000 A 
ATOM      6  N   UNL     1       1.142   8.862  20.212  0.00  0.00    +0.000 NA
ATOM      7  C   UNL     1       1.834   8.554  19.098  0.00  0.00    +0.000 A 
ATOM      8  N   UNL     1       1.887   9.511  18.042  0.00  0.00    +0.000 N 
ATOM      9  C   UNL     1       2.463   7.312  18.938  0.00  0.00    +0.000 A 
ATOM     10  C   UNL     1       3.252   6.939  17.833  0.00  0.00    +0.000 A 
ATOM     11  C   UNL     1       3.778   5.650  17.723  0.00  0.00    +0.000 A 
ATOM     12  H   UNL     1       1.497   9.089  17.202  0.00  0.00    +0.000 HD
ENDROOT
BRANCH   8  13
ATOM     13  C   UNL     1       1.431  10.847  18.190  0.00  0.00    +0.000 A 
ATOM     14  C   UNL     1       2.362  11.892  18.287  0.00  0.00    +0.000 A 
ATOM     15  C   UNL     1       1.945  13.200  18.523  0.00  0.00    +0.000 A 
ATOM     16  C   UNL     1       0.587  13.479  18.646  0.00  0.00    +0.000 A 
ATOM     17 CL   UNL     1       0.081  15.085  18.993  0.00  0.00    +0.000 Cl
ATOM     18  C   UNL     1      -0.362  12.468  18.505  0.00  0.00    +0.000 A 
ATOM     19  C   UNL     1       0.062  11.158  18.270  0.00  0.00    +0.000 A 
ATOM     20 CL   UNL     1      -1.134   9.915  18.123  0.00  0.00    +0.000 Cl
ENDBRANCH   8  13
BRANCH   1  22
ATOM     21  C   UNL     1       3.420   2.423  18.102  0.00  0.00    +0.000 C 
ATOM     22  O   UNL     1       4.170   3.503  18.655  0.00  0.00    +0.000 OA
ENDBRANCH   1  22
BRANCH  11  23
ATOM     23  O   UNL     1       4.464   5.467  16.555  0.00  0.00    +0.000 OA
BRANCH  23  24
ATOM     24  C   UNL     1       5.730   6.105  16.385  0.00  0.00    +0.000 C 
BRANCH  24  25
ATOM     25  C   UNL     1       6.676   5.923  17.570  0.00  0.00    +0.000 C 
BRANCH  25  26
ATOM     26  C   UNL     1       7.507   7.166  17.761  0.00  0.00    +0.000 C 
ATOM     27  O   UNL     1       7.516   8.123  16.990  0.00  0.00    +0.000 OA
ATOM     28  N   UNL     1       8.292   7.151  18.891  0.00  0.00    +0.000 N 
ATOM     29  H   UNL     1       8.085   6.571  19.696  0.00  0.00    +0.000 HD
BRANCH  28  30
ATOM     30  O   UNL     1       8.978   8.360  19.145  0.00  0.00    +0.000 OA
ATOM     31  H   UNL     1       8.629   8.957  18.448  0.00  0.00    +0.000 HD
ENDBRANCH  28  30
ENDBRANCH  25  26
ENDBRANCH  24  25
ENDBRANCH  23  24
ENDBRANCH  11  23
TORSDOF 7
ENDMDL
