MODEL 1
REMARK VINA RESULT:      -8.1      0.000      0.000
REMARK  Name = 
REMARK  7 active torsions:
REMARK  status: ('A' for Active; 'I' for Inactive)
REMARK    1  A    between atoms: S_2  and  N_4
REMARK    2  A    between atoms: S_2  and  C_22
REMARK    3  A    between atoms: N_4  and  C_5
REMARK    4  A    between atoms: C_5  and  C_6
REMARK    5  A    between atoms: C_6  and  C_7
REMARK    6  A    between atoms: N_9  and  S_10
REMARK    7  A    between atoms: S_10  and  C_13
REMARK                            x       y       z     vdW  Elec       q    Type
REMARK                         _______ _______ _______ _____ _____    ______ ____
ROOT
ATOM      1  C   UNL     1       1.831   5.880  20.478  0.00  0.00    +0.000 A 
ATOM      2  C   UNL     1       3.037   5.786  19.806  0.00  0.00    +0.000 A 
ATOM      3  N   UNL     1       3.168   4.460  19.519  0.00  0.00    +0.000 N 
ATOM      4  C   UNL     1       2.105   3.789  20.031  0.00  0.00    +0.000 A 
ATOM      5  N   UNL     1       1.272   4.626  20.620  0.00  0.00    +0.000 NA
ENDROOT
BRANCH   3   6
ATOM      6  S   UNL     1       4.482   3.749  18.750  0.00  0.00    +0.000 S 
ATOM      7  O   UNL     1       5.124   2.946  19.768  0.00  0.00    +0.000 OA
ATOM      8  O   UNL     1       3.960   3.180  17.522  0.00  0.00    +0.000 OA
BRANCH   6   9
ATOM      9  C   UNL     1       5.562   5.086  18.308  0.00  0.00    +0.000 A 
ATOM     10  C   UNL     1       6.752   5.270  19.025  0.00  0.00    +0.000 A 
ATOM     11  C   UNL     1       7.639   6.276  18.640  0.00  0.00    +0.000 A 
ATOM     12  C   UNL     1       7.337   7.078  17.544  0.00  0.00    +0.000 A 
ATOM     13  F   UNL     1       8.198   8.035  17.172  0.00  0.00    +0.000 F 
ATOM     14  C   UNL     1       6.163   6.891  16.819  0.00  0.00    +0.000 A 
ATOM     15  C   UNL     1       5.269   5.887  17.196  0.00  0.00    +0.000 A 
ENDBRANCH   6   9
ENDBRANCH   3   6
BRANCH   1  16
ATOM     16  C   UNL     1       1.150   7.100  21.019  0.00  0.00    +0.000 C 
BRANCH  16  17
ATOM     17  C   UNL     1       1.550   8.344  20.227  0.00  0.00    +0.000 C 
BRANCH  17  18
ATOM     18  N   UNL     1       0.540   9.412  20.277  0.00  0.00    +0.000 NA
ATOM     19  H   UNL     1      -0.430   9.129  20.416  0.00  0.00    +0.000 HD
BRANCH  18  21
ATOM     20  O   UNL     1       0.982  11.842  19.754  0.00  0.00    +0.000 OA
ATOM     21  S   UNL     1       0.676  10.603  19.077  0.00  0.00    +0.000 S 
ATOM     22  O   UNL     1       1.494  10.085  18.004  0.00  0.00    +0.000 OA
BRANCH  21  23
ATOM     23  C   UNL     1      -0.999  10.725  18.471  0.00  0.00    +0.000 A 
ATOM     24  C   UNL     1      -1.409   9.887  17.428  0.00  0.00    +0.000 A 
ATOM     25  C   UNL     1      -2.727   9.946  16.975  0.00  0.00    +0.000 A 
ATOM     26  C   UNL     1      -3.618  10.837  17.567  0.00  0.00    +0.000 A 
ATOM     27  F   UNL     1      -4.885  10.886  17.135  0.00  0.00    +0.000 F 
ATOM     28  C   UNL     1      -3.220  11.667  18.612  0.00  0.00    +0.000 A 
ATOM     29  C   UNL     1      -1.906  11.604  19.078  0.00  0.00    +0.000 A 
ENDBRANCH  21  23
ENDBRANCH  18  21
ENDBRANCH  17  18
ENDBRANCH  16  17
ENDBRANCH   1  16
TORSDOF 7
ENDMDL
MODEL 2
REMARK VINA RESULT:      -8.0      0.887      8.774
REMARK  Name = 
REMARK  7 active torsions:
REMARK  status: ('A' for Active; 'I' for Inactive)
REMARK    1  A    between atoms: S_2  and  N_4
REMARK    2  A    between atoms: S_2  and  C_22
REMARK    3  A    between atoms: N_4  and  C_5
REMARK    4  A    between atoms: C_5  and  C_6
REMARK    5  A    between atoms: C_6  and  C_7
REMARK    6  A    between atoms: N_9  and  S_10
REMARK    7  A    between atoms: S_10  and  C_13
REMARK                            x       y       z     vdW  Elec       q    Type
REMARK                         _______ _______ _______ _____ _____    ______ ____
ROOT
ATOM      1  C   UNL     1       1.772   7.285  19.914  0.00  0.00    +0.000 A 
ATOM      2  C   UNL     1       1.149   8.440  20.354  0.00  0.00    +0.000 A 
ATOM      3  N   UNL     1       1.327   9.334  19.340  0.00  0.00    +0.000 N 
ATOM      4  C   UNL     1       2.055   8.748  18.356  0.00  0.00    +0.000 A 
ATOM      5  N   UNL     1       2.340   7.499  18.674  0.00  0.00    +0.000 NA
ENDROOT
BRANCH   3   6
ATOM      6  S   UNL     1       0.820  10.935  19.345  0.00  0.00    +0.000 S 
ATOM      7  O   UNL     1       0.735  11.297  20.744  0.00  0.00    +0.000 OA
ATOM      8  O   UNL     1       1.688  11.628  18.412  0.00  0.00    +0.000 OA
BRANCH   6   9
ATOM      9  C   UNL     1      -0.815  10.925  18.656  0.00  0.00    +0.000 A 
ATOM     10  C   UNL     1      -1.133   9.989  17.663  0.00  0.00    +0.000 A 
ATOM     11  C   UNL     1      -2.436   9.929  17.165  0.00  0.00    +0.000 A 
ATOM     12  C   UNL     1      -3.404  10.793  17.666  0.00  0.00    +0.000 A 
ATOM     13  F   UNL     1      -4.656  10.724  17.192  0.00  0.00    +0.000 F 
ATOM     14  C   UNL     1      -3.098  11.716  18.662  0.00  0.00    +0.000 A 
ATOM     15  C   UNL     1      -1.797  11.784  19.167  0.00  0.00    +0.000 A 
ENDBRANCH   6   9
ENDBRANCH   3   6
BRANCH   1  16
ATOM     16  C   UNL     1       1.880   5.957  20.599  0.00  0.00    +0.000 C 
BRANCH  16  17
ATOM     17  C   UNL     1       3.178   5.249  20.214  0.00  0.00    +0.000 C 
BRANCH  17  18
ATOM     18  N   UNL     1       3.055   4.435  18.996  0.00  0.00    +0.000 NA
ATOM     19  H   UNL     1       2.248   3.813  18.931  0.00  0.00    +0.000 HD
BRANCH  18  21
ATOM     20  O   UNL     1       5.008   2.965  19.628  0.00  0.00    +0.000 OA
ATOM     21  S   UNL     1       4.477   3.667  18.483  0.00  0.00    +0.000 S 
ATOM     22  O   UNL     1       4.213   3.005  17.224  0.00  0.00    +0.000 OA
BRANCH  21  23
ATOM     23  C   UNL     1       5.558   5.048  18.152  0.00  0.00    +0.000 A 
ATOM     24  C   UNL     1       6.765   5.153  18.854  0.00  0.00    +0.000 A 
ATOM     25  C   UNL     1       7.635   6.206  18.574  0.00  0.00    +0.000 A 
ATOM     26  C   UNL     1       7.294   7.138  17.597  0.00  0.00    +0.000 A 
ATOM     27  F   UNL     1       8.136   8.144  17.325  0.00  0.00    +0.000 F 
ATOM     28  C   UNL     1       6.101   7.035  16.888  0.00  0.00    +0.000 A 
ATOM     29  C   UNL     1       5.230   5.976  17.155  0.00  0.00    +0.000 A 
ENDBRANCH  21  23
ENDBRANCH  18  21
ENDBRANCH  17  18
ENDBRANCH  16  17
ENDBRANCH   1  16
TORSDOF 7
ENDMDL
MODEL 3
REMARK VINA RESULT:      -8.0      2.031      2.481
REMARK  Name = 
REMARK  7 active torsions:
REMARK  status: ('A' for Active; 'I' for Inactive)
REMARK    1  A    between atoms: S_2  and  N_4
REMARK    2  A    between atoms: S_2  and  C_22
REMARK    3  A    between atoms: N_4  and  C_5
REMARK    4  A    between atoms: C_5  and  C_6
REMARK    5  A    between atoms: C_6  and  C_7
REMARK    6  A    between atoms: N_9  and  S_10
REMARK    7  A    between atoms: S_10  and  C_13
REMARK                            x       y       z     vdW  Elec       q    Type
REMARK                         _______ _______ _______ _____ _____    ______ ____
ROOT
ATOM      1  C   UNL     1       2.765   7.391  18.328  0.00  0.00    +0.000 A 
ATOM      2  C   UNL     1       3.789   6.608  17.826  0.00  0.00    +0.000 A 
ATOM      3  N   UNL     1       3.999   5.660  18.783  0.00  0.00    +0.000 N 
ATOM      4  C   UNL     1       3.161   5.892  19.826  0.00  0.00    +0.000 A 
ATOM      5  N   UNL     1       2.395   6.938  19.578  0.00  0.00    +0.000 NA
ENDROOT
BRANCH   3   6
ATOM      6  S   UNL     1       5.174   4.461  18.734  0.00  0.00    +0.000 S 
ATOM      7  O   UNL     1       6.220   4.924  19.621  0.00  0.00    +0.000 OA
ATOM      8  O   UNL     1       4.471   3.210  18.944  0.00  0.00    +0.000 OA
BRANCH   6   9
ATOM      9  C   UNL     1       5.792   4.460  17.071  0.00  0.00    +0.000 A 
ATOM     10  C   UNL     1       4.934   4.102  16.022  0.00  0.00    +0.000 A 
ATOM     11  C   UNL     1       5.392   4.166  14.705  0.00  0.00    +0.000 A 
ATOM     12  C   UNL     1       6.691   4.592  14.449  0.00  0.00    +0.000 A 
ATOM     13  F   UNL     1       7.123   4.662  13.182  0.00  0.00    +0.000 F 
ATOM     14  C   UNL     1       7.544   4.962  15.485  0.00  0.00    +0.000 A 
ATOM     15  C   UNL     1       7.095   4.902  16.806  0.00  0.00    +0.000 A 
ENDBRANCH   6   9
ENDBRANCH   3   6
BRANCH   1  16
ATOM     16  C   UNL     1       2.093   8.574  17.700  0.00  0.00    +0.000 C 
BRANCH  16  17
ATOM     17  C   UNL     1       1.814   9.657  18.741  0.00  0.00    +0.000 C 
BRANCH  17  18
ATOM     18  N   UNL     1       0.519   9.491  19.418  0.00  0.00    +0.000 NA
ATOM     19  H   UNL     1      -0.120   8.792  19.036  0.00  0.00    +0.000 HD
BRANCH  18  21
ATOM     20  O   UNL     1      -0.862  10.740  21.124  0.00  0.00    +0.000 OA
ATOM     21  S   UNL     1      -0.292  10.928  19.809  0.00  0.00    +0.000 S 
ATOM     22  O   UNL     1       0.570  12.045  19.493  0.00  0.00    +0.000 OA
BRANCH  21  23
ATOM     23  C   UNL     1      -1.640  10.936  18.639  0.00  0.00    +0.000 A 
ATOM     24  C   UNL     1      -1.627  10.022  17.579  0.00  0.00    +0.000 A 
ATOM     25  C   UNL     1      -2.696   9.993  16.682  0.00  0.00    +0.000 A 
ATOM     26  C   UNL     1      -3.762  10.873  16.854  0.00  0.00    +0.000 A 
ATOM     27  F   UNL     1      -4.790  10.837  15.996  0.00  0.00    +0.000 F 
ATOM     28  C   UNL     1      -3.785  11.777  17.912  0.00  0.00    +0.000 A 
ATOM     29  C   UNL     1      -2.725  11.803  18.820  0.00  0.00    +0.000 A 
ENDBRANCH  21  23
ENDBRANCH  18  21
ENDBRANCH  17  18
ENDBRANCH  16  17
ENDBRANCH   1  16
TORSDOF 7
ENDMDL
MODEL 4
REMARK VINA RESULT:      -7.9      1.523      9.108
REMARK  Name = 
REMARK  7 active torsions:
REMARK  status: ('A' for Active; 'I' for Inactive)
REMARK    1  A    between atoms: S_2  and  N_4
REMARK    2  A    between atoms: S_2  and  C_22
REMARK    3  A    between atoms: N_4  and  C_5
REMARK    4  A    between atoms: C_5  and  C_6
REMARK    5  A    between atoms: C_6  and  C_7
REMARK    6  A    between atoms: N_9  and  S_10
REMARK    7  A    between atoms: S_10  and  C_13
REMARK                            x       y       z     vdW  Elec       q    Type
REMARK                         _______ _______ _______ _____ _____    ______ ____
ROOT
ATOM      1  C   UNL     1       2.097   7.879  19.076  0.00  0.00    +0.000 A 
ATOM      2  C   UNL     1       1.755   9.117  18.563  0.00  0.00    +0.000 A 
ATOM      3  N   UNL     1       1.134   9.758  19.594  0.00  0.00    +0.000 N 
ATOM      4  C   UNL     1       1.077   8.923  20.663  0.00  0.00    +0.000 A 
ATOM      5  N   UNL     1       1.657   7.772  20.380  0.00  0.00    +0.000 NA
ENDROOT
BRANCH   3   6
ATOM      6  S   UNL     1       0.454  11.292  19.527  0.00  0.00    +0.000 S 
ATOM      7  O   UNL     1       0.308  11.698  20.908  0.00  0.00    +0.000 OA
ATOM      8  O   UNL     1       1.254  12.039  18.575  0.00  0.00    +0.000 OA
BRANCH   6   9
ATOM      9  C   UNL     1      -1.159  11.073  18.821  0.00  0.00    +0.000 A 
ATOM     10  C   UNL     1      -2.219  11.870  19.275  0.00  0.00    +0.000 A 
ATOM     11  C   UNL     1      -3.474  11.753  18.677  0.00  0.00    +0.000 A 
ATOM     12  C   UNL     1      -3.657  10.852  17.632  0.00  0.00    +0.000 A 
ATOM     13  F   UNL     1      -4.861  10.750  17.054  0.00  0.00    +0.000 F 
ATOM     14  C   UNL     1      -2.605  10.067  17.168  0.00  0.00    +0.000 A 
ATOM     15  C   UNL     1      -1.345  10.178  17.760  0.00  0.00    +0.000 A 
ENDBRANCH   6   9
ENDBRANCH   3   6
BRANCH   1  16
ATOM     16  C   UNL     1       2.825   6.753  18.407  0.00  0.00    +0.000 C 
BRANCH  16  17
ATOM     17  C   UNL     1       2.469   5.415  19.052  0.00  0.00    +0.000 C 
BRANCH  17  18
ATOM     18  N   UNL     1       3.607   4.778  19.731  0.00  0.00    +0.000 NA
ATOM     19  H   UNL     1       4.385   5.380  20.000  0.00  0.00    +0.000 HD
BRANCH  18  21
ATOM     20  O   UNL     1       5.024   2.706  20.012  0.00  0.00    +0.000 OA
ATOM     21  S   UNL     1       4.153   3.327  19.041  0.00  0.00    +0.000 S 
ATOM     22  O   UNL     1       3.020   2.637  18.465  0.00  0.00    +0.000 OA
BRANCH  21  23
ATOM     23  C   UNL     1       5.175   3.906  17.697  0.00  0.00    +0.000 A 
ATOM     24  C   UNL     1       4.690   3.824  16.387  0.00  0.00    +0.000 A 
ATOM     25  C   UNL     1       5.465   4.311  15.334  0.00  0.00    +0.000 A 
ATOM     26  C   UNL     1       6.710   4.874  15.600  0.00  0.00    +0.000 A 
ATOM     27  F   UNL     1       7.448   5.347  14.588  0.00  0.00    +0.000 F 
ATOM     28  C   UNL     1       7.195   4.968  16.902  0.00  0.00    +0.000 A 
ATOM     29  C   UNL     1       6.420   4.494  17.962  0.00  0.00    +0.000 A 
ENDBRANCH  21  23
ENDBRANCH  18  21
ENDBRANCH  17  18
ENDBRANCH  16  17
ENDBRANCH   1  16
TORSDOF 7
ENDMDL
MODEL 5
REMARK VINA RESULT:      -7.9      1.260      8.621
REMARK  Name = 
REMARK  7 active torsions:
REMARK  status: ('A' for Active; 'I' for Inactive)
REMARK    1  A    between atoms: S_2  and  N_4
REMARK    2  A    between atoms: S_2  and  C_22
REMARK    3  A    between atoms: N_4  and  C_5
REMARK    4  A    between atoms: C_5  and  C_6
REMARK    5  A    between atoms: C_6  and  C_7
REMARK    6  A    between atoms: N_9  and  S_10
REMARK    7  A    between atoms: S_10  and  C_13
REMARK                            x       y       z     vdW  Elec       q    Type
REMARK                         _______ _______ _______ _____ _____    ______ ____
ROOT
ATOM      1  C   UNL     1       2.032   7.327  19.821  0.00  0.00    +0.000 A 
ATOM      2  C   UNL     1       1.403   8.449  20.331  0.00  0.00    +0.000 A 
ATOM      3  N   UNL     1       1.383   9.333  19.294  0.00  0.00    +0.000 N 
ATOM      4  C   UNL     1       2.006   8.775  18.225  0.00  0.00    +0.000 A 
ATOM      5  N   UNL     1       2.411   7.553  18.513  0.00  0.00    +0.000 NA
ENDROOT
BRANCH   3   6
ATOM      6  S   UNL     1       0.781  10.900  19.354  0.00  0.00    +0.000 S 
ATOM      7  O   UNL     1       0.703  11.219  20.764  0.00  0.00    +0.000 OA
ATOM      8  O   UNL     1       1.586  11.669  18.425  0.00  0.00    +0.000 OA
BRANCH   6   9
ATOM      9  C   UNL     1      -0.864  10.810  18.696  0.00  0.00    +0.000 A 
ATOM     10  C   UNL     1      -1.848  11.677  19.189  0.00  0.00    +0.000 A 
ATOM     11  C   UNL     1      -3.126  11.659  18.629  0.00  0.00    +0.000 A 
ATOM     12  C   UNL     1      -3.406  10.787  17.581  0.00  0.00    +0.000 A 
ATOM     13  F   UNL     1      -4.631  10.782  17.039  0.00  0.00    +0.000 F 
ATOM     14  C   UNL     1      -2.429   9.932  17.078  0.00  0.00    +0.000 A 
ATOM     15  C   UNL     1      -1.147   9.943  17.632  0.00  0.00    +0.000 A 
ENDBRANCH   6   9
ENDBRANCH   3   6
BRANCH   1  16
ATOM     16  C   UNL     1       2.316   6.020  20.498  0.00  0.00    +0.000 C 
BRANCH  16  17
ATOM     17  C   UNL     1       1.472   4.899  19.893  0.00  0.00    +0.000 C 
BRANCH  17  18
ATOM     18  N   UNL     1       1.720   4.696  18.458  0.00  0.00    +0.000 NA
ATOM     19  H   UNL     1       0.904   4.632  17.849  0.00  0.00    +0.000 HD
BRANCH  18  21
ATOM     20  O   UNL     1       3.041   2.696  19.253  0.00  0.00    +0.000 OA
ATOM     21  S   UNL     1       2.876   3.516  18.075  0.00  0.00    +0.000 S 
ATOM     22  O   UNL     1       2.551   2.956  16.782  0.00  0.00    +0.000 OA
BRANCH  21  23
ATOM     23  C   UNL     1       4.363   4.486  17.886  0.00  0.00    +0.000 A 
ATOM     24  C   UNL     1       4.531   5.258  16.731  0.00  0.00    +0.000 A 
ATOM     25  C   UNL     1       5.670   6.051  16.592  0.00  0.00    +0.000 A 
ATOM     26  C   UNL     1       6.625   6.066  17.606  0.00  0.00    +0.000 A 
ATOM     27  F   UNL     1       7.714   6.834  17.473  0.00  0.00    +0.000 F 
ATOM     28  C   UNL     1       6.460   5.308  18.762  0.00  0.00    +0.000 A 
ATOM     29  C   UNL     1       5.316   4.521  18.913  0.00  0.00    +0.000 A 
ENDBRANCH  21  23
ENDBRANCH  18  21
ENDBRANCH  17  18
ENDBRANCH  16  17
ENDBRANCH   1  16
TORSDOF 7
ENDMDL
MODEL 6
REMARK VINA RESULT:      -7.9      2.128      2.856
REMARK  Name = 
REMARK  7 active torsions:
REMARK  status: ('A' for Active; 'I' for Inactive)
REMARK    1  A    between atoms: S_2  and  N_4
REMARK    2  A    between atoms: S_2  and  C_22
REMARK    3  A    between atoms: N_4  and  C_5
REMARK    4  A    between atoms: C_5  and  C_6
REMARK    5  A    between atoms: C_6  and  C_7
REMARK    6  A    between atoms: N_9  and  S_10
REMARK    7  A    between atoms: S_10  and  C_13
REMARK                            x       y       z     vdW  Elec       q    Type
REMARK                         _______ _______ _______ _____ _____    ______ ____
ROOT
ATOM      1  C   UNL     1       1.898   8.664  18.758  0.00  0.00    +0.000 A 
ATOM      2  C   UNL     1       2.298   7.435  18.266  0.00  0.00    +0.000 A 
ATOM      3  N   UNL     1       2.192   6.587  19.329  0.00  0.00    +0.000 N 
ATOM      4  C   UNL     1       1.783   7.290  20.416  0.00  0.00    +0.000 A 
ATOM      5  N   UNL     1       1.593   8.558  20.100  0.00  0.00    +0.000 NA
ENDROOT
BRANCH   3   6
ATOM      6  S   UNL     1       2.602   4.958  19.328  0.00  0.00    +0.000 S 
ATOM      7  O   UNL     1       2.817   4.625  20.720  0.00  0.00    +0.000 OA
ATOM      8  O   UNL     1       1.598   4.299  18.514  0.00  0.00    +0.000 OA
BRANCH   6   9
ATOM      9  C   UNL     1       4.150   4.851  18.467  0.00  0.00    +0.000 A 
ATOM     10  C   UNL     1       5.327   5.231  19.126  0.00  0.00    +0.000 A 
ATOM     11  C   UNL     1       6.555   5.085  18.480  0.00  0.00    +0.000 A 
ATOM     12  C   UNL     1       6.598   4.556  17.194  0.00  0.00    +0.000 A 
ATOM     13  F   UNL     1       7.780   4.407  16.582  0.00  0.00    +0.000 F 
ATOM     14  C   UNL     1       5.433   4.164  16.539  0.00  0.00    +0.000 A 
ATOM     15  C   UNL     1       4.199   4.306  17.178  0.00  0.00    +0.000 A 
ENDBRANCH   6   9
ENDBRANCH   3   6
BRANCH   1  16
ATOM     16  C   UNL     1       1.785   9.973  18.037  0.00  0.00    +0.000 C 
BRANCH  16  17
ATOM     17  C   UNL     1       1.310  11.076  18.982  0.00  0.00    +0.000 C 
BRANCH  17  18
ATOM     18  N   UNL     1       0.180  11.850  18.448  0.00  0.00    +0.000 NA
ATOM     19  H   UNL     1       0.318  12.854  18.328  0.00  0.00    +0.000 HD
BRANCH  18  21
ATOM     20  O   UNL     1      -1.154  10.347  19.978  0.00  0.00    +0.000 OA
ATOM     21  S   UNL     1      -1.332  11.508  19.137  0.00  0.00    +0.000 S 
ATOM     22  O   UNL     1      -1.901  12.742  19.633  0.00  0.00    +0.000 OA
BRANCH  21  23
ATOM     23  C   UNL     1      -2.291  11.001  17.719  0.00  0.00    +0.000 A 
ATOM     24  C   UNL     1      -3.524  11.616  17.474  0.00  0.00    +0.000 A 
ATOM     25  C   UNL     1      -4.261  11.255  16.347  0.00  0.00    +0.000 A 
ATOM     26  C   UNL     1      -3.760  10.289  15.478  0.00  0.00    +0.000 A 
ATOM     27  F   UNL     1      -4.468   9.951  14.392  0.00  0.00    +0.000 F 
ATOM     28  C   UNL     1      -2.530   9.680  15.710  0.00  0.00    +0.000 A 
ATOM     29  C   UNL     1      -1.781  10.045  16.830  0.00  0.00    +0.000 A 
ENDBRANCH  21  23
ENDBRANCH  18  21
ENDBRANCH  17  18
ENDBRANCH  16  17
ENDBRANCH   1  16
TORSDOF 7
ENDMDL
MODEL 7
REMARK VINA RESULT:      -7.8      2.856      8.773
REMARK  Name = 
REMARK  7 active torsions:
REMARK  status: ('A' for Active; 'I' for Inactive)
REMARK    1  A    between atoms: S_2  and  N_4
REMARK    2  A    between atoms: S_2  and  C_22
REMARK    3  A    between atoms: N_4  and  C_5
REMARK    4  A    between atoms: C_5  and  C_6
REMARK    5  A    between atoms: C_6  and  C_7
REMARK    6  A    between atoms: N_9  and  S_10
REMARK    7  A    between atoms: S_10  and  C_13
REMARK                            x       y       z     vdW  Elec       q    Type
REMARK                         _______ _______ _______ _____ _____    ______ ____
ROOT
ATOM      1  C   UNL     1       2.077   8.054  19.195  0.00  0.00    +0.000 A 
ATOM      2  C   UNL     1       1.312   8.981  19.880  0.00  0.00    +0.000 A 
ATOM      3  N   UNL     1       1.187  10.029  19.017  0.00  0.00    +0.000 N 
ATOM      4  C   UNL     1       1.878   9.752  17.882  0.00  0.00    +0.000 A 
ATOM      5  N   UNL     1       2.430   8.556  17.958  0.00  0.00    +0.000 NA
ENDROOT
BRANCH   3   6
ATOM      6  S   UNL     1       0.395  11.475  19.340  0.00  0.00    +0.000 S 
ATOM      7  O   UNL     1       0.354  11.566  20.783  0.00  0.00    +0.000 OA
ATOM      8  O   UNL     1       1.045  12.475  18.514  0.00  0.00    +0.000 OA
BRANCH   6   9
ATOM      9  C   UNL     1      -1.259  11.264  18.732  0.00  0.00    +0.000 A 
ATOM     10  C   UNL     1      -1.538  10.201  17.863  0.00  0.00    +0.000 A 
ATOM     11  C   UNL     1      -2.850   9.988  17.436  0.00  0.00    +0.000 A 
ATOM     12  C   UNL     1      -3.865  10.827  17.884  0.00  0.00    +0.000 A 
ATOM     13  F   UNL     1      -5.124  10.612  17.480  0.00  0.00    +0.000 F 
ATOM     14  C   UNL     1      -3.595  11.878  18.758  0.00  0.00    +0.000 A 
ATOM     15  C   UNL     1      -2.286  12.099  19.192  0.00  0.00    +0.000 A 
ENDBRANCH   6   9
ENDBRANCH   3   6
BRANCH   1  16
ATOM     16  C   UNL     1       2.518   6.691  19.634  0.00  0.00    +0.000 C 
BRANCH  16  17
ATOM     17  C   UNL     1       3.638   6.165  18.738  0.00  0.00    +0.000 C 
BRANCH  17  18
ATOM     18  N   UNL     1       3.144   5.462  17.545  0.00  0.00    +0.000 NA
ATOM     19  H   UNL     1       2.219   5.721  17.202  0.00  0.00    +0.000 HD
BRANCH  18  21
ATOM     20  O   UNL     1       2.534   3.254  16.483  0.00  0.00    +0.000 OA
ATOM     21  S   UNL     1       3.360   3.780  17.545  0.00  0.00    +0.000 S 
ATOM     22  O   UNL     1       4.775   3.497  17.636  0.00  0.00    +0.000 OA
BRANCH  21  23
ATOM     23  C   UNL     1       2.611   3.300  19.093  0.00  0.00    +0.000 A 
ATOM     24  C   UNL     1       3.434   2.909  20.156  0.00  0.00    +0.000 A 
ATOM     25  C   UNL     1       2.860   2.572  21.382  0.00  0.00    +0.000 A 
ATOM     26  C   UNL     1       1.477   2.630  21.534  0.00  0.00    +0.000 A 
ATOM     27  F   UNL     1       0.931   2.313  22.714  0.00  0.00    +0.000 F 
ATOM     28  C   UNL     1       0.654   3.028  20.484  0.00  0.00    +0.000 A 
ATOM     29  C   UNL     1       1.222   3.378  19.257  0.00  0.00    +0.000 A 
ENDBRANCH  21  23
ENDBRANCH  18  21
ENDBRANCH  17  18
ENDBRANCH  16  17
ENDBRANCH   1  16
TORSDOF 7
ENDMDL
MODEL 8
REMARK VINA RESULT:      -7.8      3.042      3.842
REMARK  Name = 
REMARK  7 active torsions:
REMARK  status: ('A' for Active; 'I' for Inactive)
REMARK    1  A    between atoms: S_2  and  N_4
REMARK    2  A    between atoms: S_2  and  C_22
REMARK    3  A    between atoms: N_4  and  C_5
REMARK    4  A    between atoms: C_5  and  C_6
REMARK    5  A    between atoms: C_6  and  C_7
REMARK    6  A    between atoms: N_9  and  S_10
REMARK    7  A    between atoms: S_10  and  C_13
REMARK                            x       y       z     vdW  Elec       q    Type
REMARK                         _______ _______ _______ _____ _____    ______ ____
ROOT
ATOM      1  C   UNL     1       2.943   7.625  18.172  0.00  0.00    +0.000 A 
ATOM      2  C   UNL     1       3.926   6.780  17.688  0.00  0.00    +0.000 A 
ATOM      3  N   UNL     1       3.883   5.694  18.512  0.00  0.00    +0.000 N 
ATOM      4  C   UNL     1       2.941   5.901  19.467  0.00  0.00    +0.000 A 
ATOM      5  N   UNL     1       2.349   7.067  19.287  0.00  0.00    +0.000 NA
ENDROOT
BRANCH   3   6
ATOM      6  S   UNL     1       4.900   4.360  18.429  0.00  0.00    +0.000 S 
ATOM      7  O   UNL     1       5.911   4.596  19.436  0.00  0.00    +0.000 OA
ATOM      8  O   UNL     1       4.032   3.199  18.452  0.00  0.00    +0.000 OA
BRANCH   6   9
ATOM      9  C   UNL     1       5.660   4.434  16.827  0.00  0.00    +0.000 A 
ATOM     10  C   UNL     1       4.902   4.108  15.694  0.00  0.00    +0.000 A 
ATOM     11  C   UNL     1       5.472   4.229  14.426  0.00  0.00    +0.000 A 
ATOM     12  C   UNL     1       6.781   4.681  14.300  0.00  0.00    +0.000 A 
ATOM     13  F   UNL     1       7.320   4.807  13.080  0.00  0.00    +0.000 F 
ATOM     14  C   UNL     1       7.536   5.019  15.421  0.00  0.00    +0.000 A 
ATOM     15  C   UNL     1       6.974   4.902  16.695  0.00  0.00    +0.000 A 
ENDBRANCH   6   9
ENDBRANCH   3   6
BRANCH   1  16
ATOM     16  C   UNL     1       2.513   8.962  17.651  0.00  0.00    +0.000 C 
BRANCH  16  17
ATOM     17  C   UNL     1       1.022   9.188  17.895  0.00  0.00    +0.000 C 
BRANCH  17  18
ATOM     18  N   UNL     1       0.656  10.611  17.965  0.00  0.00    +0.000 NA
ATOM     19  H   UNL     1       1.378  11.263  18.271  0.00  0.00    +0.000 HD
BRANCH  18  21
ATOM     20  O   UNL     1      -1.008  12.381  18.654  0.00  0.00    +0.000 OA
ATOM     21  S   UNL     1      -0.837  10.947  18.697  0.00  0.00    +0.000 S 
ATOM     22  O   UNL     1      -1.825  10.033  18.168  0.00  0.00    +0.000 OA
BRANCH  21  23
ATOM     23  C   UNL     1      -0.537  10.495  20.398  0.00  0.00    +0.000 A 
ATOM     24  C   UNL     1      -0.970  11.351  21.417  0.00  0.00    +0.000 A 
ATOM     25  C   UNL     1      -0.776  10.987  22.750  0.00  0.00    +0.000 A 
ATOM     26  C   UNL     1      -0.158   9.776  23.049  0.00  0.00    +0.000 A 
ATOM     27  F   UNL     1       0.019   9.426  24.330  0.00  0.00    +0.000 F 
ATOM     28  C   UNL     1       0.266   8.915  22.040  0.00  0.00    +0.000 A 
ATOM     29  C   UNL     1       0.065   9.268  20.705  0.00  0.00    +0.000 A 
ENDBRANCH  21  23
ENDBRANCH  18  21
ENDBRANCH  17  18
ENDBRANCH  16  17
ENDBRANCH   1  16
TORSDOF 7
ENDMDL
MODEL 9
REMARK VINA RESULT:      -7.8      1.191      1.591
REMARK  Name = 
REMARK  7 active torsions:
REMARK  status: ('A' for Active; 'I' for Inactive)
REMARK    1  A    between atoms: S_2  and  N_4
REMARK    2  A    between atoms: S_2  and  C_22
REMARK    3  A    between atoms: N_4  and  C_5
REMARK    4  A    between atoms: C_5  and  C_6
REMARK    5  A    between atoms: C_6  and  C_7
REMARK    6  A    between atoms: N_9  and  S_10
REMARK    7  A    between atoms: S_10  and  C_13
REMARK                            x       y       z     vdW  Elec       q    Type
REMARK                         _______ _______ _______ _____ _____    ______ ____
ROOT
ATOM      1  C   UNL     1       1.903   5.610  20.474  0.00  0.00    +0.000 A 
ATOM      2  C   UNL     1       3.115   5.170  19.973  0.00  0.00    +0.000 A 
ATOM      3  N   UNL     1       2.900   3.863  19.650  0.00  0.00    +0.000 N 
ATOM      4  C   UNL     1       1.625   3.530  19.978  0.00  0.00    +0.000 A 
ATOM      5  N   UNL     1       0.991   4.573  20.480  0.00  0.00    +0.000 NA
ENDROOT
BRANCH   3   6
ATOM      6  S   UNL     1       4.051   2.801  19.041  0.00  0.00    +0.000 S 
ATOM      7  O   UNL     1       4.895   2.476  20.170  0.00  0.00    +0.000 OA
ATOM      8  O   UNL     1       3.310   1.794  18.306  0.00  0.00    +0.000 OA
BRANCH   6   9
ATOM      9  C   UNL     1       4.997   3.739  17.868  0.00  0.00    +0.000 A 
ATOM     10  C   UNL     1       6.190   4.347  18.281  0.00  0.00    +0.000 A 
ATOM     11  C   UNL     1       6.975   5.027  17.349  0.00  0.00    +0.000 A 
ATOM     12  C   UNL     1       6.568   5.086  16.020  0.00  0.00    +0.000 A 
ATOM     13  F   UNL     1       7.330   5.731  15.126  0.00  0.00    +0.000 F 
ATOM     14  C   UNL     1       5.391   4.472  15.600  0.00  0.00    +0.000 A 
ATOM     15  C   UNL     1       4.599   3.789  16.526  0.00  0.00    +0.000 A 
ENDBRANCH   6   9
ENDBRANCH   3   6
BRANCH   1  16
ATOM     16  C   UNL     1       1.530   6.975  20.967  0.00  0.00    +0.000 C 
BRANCH  16  17
ATOM     17  C   UNL     1       1.850   8.039  19.919  0.00  0.00    +0.000 C 
BRANCH  17  18
ATOM     18  N   UNL     1       0.967   9.212  19.996  0.00  0.00    +0.000 NA
ATOM     19  H   UNL     1       0.016   9.058  20.331  0.00  0.00    +0.000 HD
BRANCH  18  21
ATOM     20  O   UNL     1       1.557  11.492  19.084  0.00  0.00    +0.000 OA
ATOM     21  S   UNL     1       0.992  10.237  18.645  0.00  0.00    +0.000 S 
ATOM     22  O   UNL     1       1.524   9.501  17.519  0.00  0.00    +0.000 OA
BRANCH  21  23
ATOM     23  C   UNL     1      -0.746  10.510  18.342  0.00  0.00    +0.000 A 
ATOM     24  C   UNL     1      -1.412  11.516  19.050  0.00  0.00    +0.000 A 
ATOM     25  C   UNL     1      -2.760  11.764  18.790  0.00  0.00    +0.000 A 
ATOM     26  C   UNL     1      -3.425  11.009  17.828  0.00  0.00    +0.000 A 
ATOM     27  F   UNL     1      -4.717  11.254  17.576  0.00  0.00    +0.000 F 
ATOM     28  C   UNL     1      -2.766  10.013  17.113  0.00  0.00    +0.000 A 
ATOM     29  C   UNL     1      -1.414   9.767  17.359  0.00  0.00    +0.000 A 
ENDBRANCH  21  23
ENDBRANCH  18  21
ENDBRANCH  17  18
ENDBRANCH  16  17
ENDBRANCH   1  16
TORSDOF 7
ENDMDL
