MODEL 1
REMARK VINA RESULT:      -6.6      0.000      0.000
REMARK  Name = 
REMARK  7 active torsions:
REMARK  status: ('A' for Active; 'I' for Inactive)
REMARK    1  A    between atoms: C_1  and  S_2
REMARK    2  A    between atoms: S_2  and  C_3
REMARK    3  A    between atoms: N_4  and  S_5
REMARK    4  A    between atoms: S_5  and  C_8
REMARK    5  A    between atoms: C_11  and  C_12
REMARK    6  A    between atoms: N_15  and  C_16
REMARK    7  A    between atoms: N_15  and  C_17
REMARK                            x       y       z     vdW  Elec       q    Type
REMARK                         _______ _______ _______ _____ _____    ______ ____
ROOT
ATOM      1  S   UNL     1       3.250   3.623  17.718  0.00  0.00    +0.000 S 
ATOM      2  O   UNL     1       2.078   2.982  17.157  0.00  0.00    +0.000 OA
ATOM      3  O   UNL     1       4.120   2.891  18.626  0.00  0.00    +0.000 OA
ENDROOT
BRANCH   1   4
ATOM      4  C   UNL     1       2.642   5.000  18.675  0.00  0.00    +0.000 A 
ATOM      5  C   UNL     1       2.166   4.796  19.972  0.00  0.00    +0.000 A 
ATOM      6  C   UNL     1       1.752   5.898  20.730  0.00  0.00    +0.000 A 
ATOM      7  C   UNL     1       1.818   7.196  20.203  0.00  0.00    +0.000 A 
ATOM      8  C   UNL     1       1.363   8.385  20.998  0.00  0.00    +0.000 C 
ATOM      9  C   UNL     1       2.317   7.386  18.910  0.00  0.00    +0.000 A 
ATOM     10  C   UNL     1       2.730   6.293  18.147  0.00  0.00    +0.000 A 
ENDBRANCH   1   4
BRANCH   1  12
ATOM     11  C   UNL     1       5.372   4.644  16.722  0.00  0.00    +0.000 C 
ATOM     12  N   UNL     1       4.149   4.279  16.551  0.00  0.00    +0.000 NA
ATOM     13  N   UNL     1       6.226   4.658  17.830  0.00  0.00    +0.000 N 
ATOM     14  C   UNL     1       7.686   4.596  17.740  0.00  0.00    +0.000 C 
ATOM     15  C   UNL     1       5.801   4.980  19.191  0.00  0.00    +0.000 C 
BRANCH  11  17
ATOM     16  C   UNL     1       6.225   3.884  14.129  0.00  0.00    +0.000 C 
ATOM     17  S   UNL     1       6.142   5.304  15.234  0.00  0.00    +0.000 S 
ENDBRANCH  11  17
ENDBRANCH   1  12
TORSDOF 3
ENDMDL
MODEL 2
REMARK VINA RESULT:      -6.6      0.126      1.182
REMARK  Name = 
REMARK  7 active torsions:
REMARK  status: ('A' for Active; 'I' for Inactive)
REMARK    1  A    between atoms: C_1  and  S_2
REMARK    2  A    between atoms: S_2  and  C_3
REMARK    3  A    between atoms: N_4  and  S_5
REMARK    4  A    between atoms: S_5  and  C_8
REMARK    5  A    between atoms: C_11  and  C_12
REMARK    6  A    between atoms: N_15  and  C_16
REMARK    7  A    between atoms: N_15  and  C_17
REMARK                            x       y       z     vdW  Elec       q    Type
REMARK                         _______ _______ _______ _____ _____    ______ ____
ROOT
ATOM      1  S   UNL     1       3.204   3.759  17.746  0.00  0.00    +0.000 S 
ATOM      2  O   UNL     1       1.984   3.196  17.202  0.00  0.00    +0.000 OA
ATOM      3  O   UNL     1       4.046   2.966  18.627  0.00  0.00    +0.000 OA
ENDROOT
BRANCH   1   4
ATOM      4  C   UNL     1       2.698   5.158  18.730  0.00  0.00    +0.000 A 
ATOM      5  C   UNL     1       2.741   6.446  18.191  0.00  0.00    +0.000 A 
ATOM      6  C   UNL     1       2.280   7.524  18.956  0.00  0.00    +0.000 A 
ATOM      7  C   UNL     1       1.773   7.321  20.249  0.00  0.00    +0.000 A 
ATOM      8  C   UNL     1       1.290   8.468  21.087  0.00  0.00    +0.000 C 
ATOM      9  C   UNL     1       1.717   6.021  20.766  0.00  0.00    +0.000 A 
ATOM     10  C   UNL     1       2.176   4.943  20.010  0.00  0.00    +0.000 A 
ENDBRANCH   1   4
BRANCH   1  12
ATOM     11  C   UNL     1       5.353   4.698  16.727  0.00  0.00    +0.000 C 
ATOM     12  N   UNL     1       4.117   4.375  16.567  0.00  0.00    +0.000 NA
ATOM     13  N   UNL     1       6.215   4.689  17.829  0.00  0.00    +0.000 N 
ATOM     14  C   UNL     1       7.671   4.575  17.729  0.00  0.00    +0.000 C 
ATOM     15  C   UNL     1       5.812   5.036  19.191  0.00  0.00    +0.000 C 
BRANCH  11  17
ATOM     16  C   UNL     1       6.216   3.874  14.157  0.00  0.00    +0.000 C 
ATOM     17  S   UNL     1       6.135   5.319  15.229  0.00  0.00    +0.000 S 
ENDBRANCH  11  17
ENDBRANCH   1  12
TORSDOF 3
ENDMDL
MODEL 3
REMARK VINA RESULT:      -6.5      1.996      3.050
REMARK  Name = 
REMARK  7 active torsions:
REMARK  status: ('A' for Active; 'I' for Inactive)
REMARK    1  A    between atoms: C_1  and  S_2
REMARK    2  A    between atoms: S_2  and  C_3
REMARK    3  A    between atoms: N_4  and  S_5
REMARK    4  A    between atoms: S_5  and  C_8
REMARK    5  A    between atoms: C_11  and  C_12
REMARK    6  A    between atoms: N_15  and  C_16
REMARK    7  A    between atoms: N_15  and  C_17
REMARK                            x       y       z     vdW  Elec       q    Type
REMARK                         _______ _______ _______ _____ _____    ______ ____
ROOT
ATOM      1  S   UNL     1       3.001   5.957  18.795  0.00  0.00    +0.000 S 
ATOM      2  O   UNL     1       2.234   5.365  17.717  0.00  0.00    +0.000 OA
ATOM      3  O   UNL     1       3.106   5.276  20.077  0.00  0.00    +0.000 OA
ENDROOT
BRANCH   1   4
ATOM      4  C   UNL     1       2.204   7.510  19.165  0.00  0.00    +0.000 A 
ATOM      5  C   UNL     1       2.012   8.455  18.155  0.00  0.00    +0.000 A 
ATOM      6  C   UNL     1       1.328   9.641  18.450  0.00  0.00    +0.000 A 
ATOM      7  C   UNL     1       0.833   9.881  19.740  0.00  0.00    +0.000 A 
ATOM      8  C   UNL     1       0.111  11.154  20.075  0.00  0.00    +0.000 C 
ATOM      9  C   UNL     1       1.015   8.914  20.735  0.00  0.00    +0.000 A 
ATOM     10  C   UNL     1       1.696   7.731  20.450  0.00  0.00    +0.000 A 
ENDBRANCH   1   4
BRANCH   1  12
ATOM     11  C   UNL     1       5.207   5.569  17.565  0.00  0.00    +0.000 C 
ATOM     12  N   UNL     1       4.481   6.347  18.289  0.00  0.00    +0.000 NA
ATOM     13  N   UNL     1       5.032   4.272  17.072  0.00  0.00    +0.000 N 
ATOM     14  C   UNL     1       5.685   3.758  15.867  0.00  0.00    +0.000 C 
ATOM     15  C   UNL     1       4.383   3.192  17.813  0.00  0.00    +0.000 C 
BRANCH  11  17
ATOM     16  C   UNL     1       7.742   6.232  18.643  0.00  0.00    +0.000 C 
ATOM     17  S   UNL     1       6.797   6.284  17.111  0.00  0.00    +0.000 S 
ENDBRANCH  11  17
ENDBRANCH   1  12
TORSDOF 3
ENDMDL
MODEL 4
REMARK VINA RESULT:      -6.5      2.681      5.377
REMARK  Name = 
REMARK  7 active torsions:
REMARK  status: ('A' for Active; 'I' for Inactive)
REMARK    1  A    between atoms: C_1  and  S_2
REMARK    2  A    between atoms: S_2  and  C_3
REMARK    3  A    between atoms: N_4  and  S_5
REMARK    4  A    between atoms: S_5  and  C_8
REMARK    5  A    between atoms: C_11  and  C_12
REMARK    6  A    between atoms: N_15  and  C_16
REMARK    7  A    between atoms: N_15  and  C_17
REMARK                            x       y       z     vdW  Elec       q    Type
REMARK                         _______ _______ _______ _____ _____    ______ ____
ROOT
ATOM      1  S   UNL     1       4.817   4.302  18.528  0.00  0.00    +0.000 S 
ATOM      2  O   UNL     1       5.489   3.431  19.472  0.00  0.00    +0.000 OA
ATOM      3  O   UNL     1       4.449   3.808  17.210  0.00  0.00    +0.000 OA
ENDROOT
BRANCH   1   4
ATOM      4  C   UNL     1       5.949   5.646  18.215  0.00  0.00    +0.000 A 
ATOM      5  C   UNL     1       5.584   6.682  17.354  0.00  0.00    +0.000 A 
ATOM      6  C   UNL     1       6.459   7.760  17.170  0.00  0.00    +0.000 A 
ATOM      7  C   UNL     1       7.688   7.808  17.846  0.00  0.00    +0.000 A 
ATOM      8  C   UNL     1       8.643   8.948  17.648  0.00  0.00    +0.000 C 
ATOM      9  C   UNL     1       8.028   6.772  18.723  0.00  0.00    +0.000 A 
ATOM     10  C   UNL     1       7.162   5.695  18.910  0.00  0.00    +0.000 A 
ENDBRANCH   1   4
BRANCH   1  12
ATOM     11  C   UNL     1       2.625   4.316  19.843  0.00  0.00    +0.000 C 
ATOM     12  N   UNL     1       3.524   4.984  19.209  0.00  0.00    +0.000 NA
ATOM     13  N   UNL     1       2.433   2.952  20.087  0.00  0.00    +0.000 N 
ATOM     14  C   UNL     1       1.692   2.421  21.233  0.00  0.00    +0.000 C 
ATOM     15  C   UNL     1       2.727   1.895  19.122  0.00  0.00    +0.000 C 
BRANCH  11  17
ATOM     16  C   UNL     1       1.915   7.023  20.282  0.00  0.00    +0.000 C 
ATOM     17  S   UNL     1       1.318   5.344  20.537  0.00  0.00    +0.000 S 
ENDBRANCH  11  17
ENDBRANCH   1  12
TORSDOF 3
ENDMDL
MODEL 5
REMARK VINA RESULT:      -6.4      2.054      2.877
REMARK  Name = 
REMARK  7 active torsions:
REMARK  status: ('A' for Active; 'I' for Inactive)
REMARK    1  A    between atoms: C_1  and  S_2
REMARK    2  A    between atoms: S_2  and  C_3
REMARK    3  A    between atoms: N_4  and  S_5
REMARK    4  A    between atoms: S_5  and  C_8
REMARK    5  A    between atoms: C_11  and  C_12
REMARK    6  A    between atoms: N_15  and  C_16
REMARK    7  A    between atoms: N_15  and  C_17
REMARK                            x       y       z     vdW  Elec       q    Type
REMARK                         _______ _______ _______ _____ _____    ______ ____
ROOT
ATOM      1  S   UNL     1       2.952   5.998  18.786  0.00  0.00    +0.000 S 
ATOM      2  O   UNL     1       2.204   5.360  17.721  0.00  0.00    +0.000 OA
ATOM      3  O   UNL     1       3.068   5.354  20.086  0.00  0.00    +0.000 OA
ENDROOT
BRANCH   1   4
ATOM      4  C   UNL     1       2.117   7.541  19.111  0.00  0.00    +0.000 A 
ATOM      5  C   UNL     1       1.655   7.830  20.396  0.00  0.00    +0.000 A 
ATOM      6  C   UNL     1       1.058   9.072  20.646  0.00  0.00    +0.000 A 
ATOM      7  C   UNL     1       0.930  10.024  19.623  0.00  0.00    +0.000 A 
ATOM      8  C   UNL     1       0.280  11.354  19.871  0.00  0.00    +0.000 C 
ATOM      9  C   UNL     1       1.419   9.727  18.346  0.00  0.00    +0.000 A 
ATOM     10  C   UNL     1       2.012   8.491  18.089  0.00  0.00    +0.000 A 
ENDBRANCH   1   4
BRANCH   1  12
ATOM     11  C   UNL     1       5.172   5.631  17.573  0.00  0.00    +0.000 C 
ATOM     12  N   UNL     1       4.425   6.410  18.275  0.00  0.00    +0.000 NA
ATOM     13  N   UNL     1       5.029   4.318  17.113  0.00  0.00    +0.000 N 
ATOM     14  C   UNL     1       5.699   3.790  15.923  0.00  0.00    +0.000 C 
ATOM     15  C   UNL     1       4.402   3.243  17.878  0.00  0.00    +0.000 C 
BRANCH  11  17
ATOM     16  C   UNL     1       7.727   6.277  18.615  0.00  0.00    +0.000 C 
ATOM     17  S   UNL     1       6.747   6.371  17.107  0.00  0.00    +0.000 S 
ENDBRANCH  11  17
ENDBRANCH   1  12
TORSDOF 3
ENDMDL
MODEL 6
REMARK VINA RESULT:      -6.3      2.600      4.294
REMARK  Name = 
REMARK  7 active torsions:
REMARK  status: ('A' for Active; 'I' for Inactive)
REMARK    1  A    between atoms: C_1  and  S_2
REMARK    2  A    between atoms: S_2  and  C_3
REMARK    3  A    between atoms: N_4  and  S_5
REMARK    4  A    between atoms: S_5  and  C_8
REMARK    5  A    between atoms: C_11  and  C_12
REMARK    6  A    between atoms: N_15  and  C_16
REMARK    7  A    between atoms: N_15  and  C_17
REMARK                            x       y       z     vdW  Elec       q    Type
REMARK                         _______ _______ _______ _____ _____    ______ ____
ROOT
ATOM      1  S   UNL     1       3.261   6.027  18.602  0.00  0.00    +0.000 S 
ATOM      2  O   UNL     1       4.404   6.022  19.494  0.00  0.00    +0.000 OA
ATOM      3  O   UNL     1       3.457   5.993  17.161  0.00  0.00    +0.000 OA
ENDROOT
BRANCH   1   4
ATOM      4  C   UNL     1       2.407   7.562  18.914  0.00  0.00    +0.000 A 
ATOM      5  C   UNL     1       2.226   8.484  17.882  0.00  0.00    +0.000 A 
ATOM      6  C   UNL     1       1.498   9.654  18.129  0.00  0.00    +0.000 A 
ATOM      7  C   UNL     1       0.948   9.901  19.396  0.00  0.00    +0.000 A 
ATOM      8  C   UNL     1       0.178  11.158  19.682  0.00  0.00    +0.000 C 
ATOM      9  C   UNL     1       1.120   8.956  20.414  0.00  0.00    +0.000 A 
ATOM     10  C   UNL     1       1.845   7.789  20.175  0.00  0.00    +0.000 A 
ENDBRANCH   1   4
BRANCH   1  12
ATOM     11  C   UNL     1       2.479   3.612  18.905  0.00  0.00    +0.000 C 
ATOM     12  N   UNL     1       2.218   4.868  19.014  0.00  0.00    +0.000 NA
ATOM     13  N   UNL     1       3.574   2.896  18.410  0.00  0.00    +0.000 N 
ATOM     14  C   UNL     1       3.928   1.541  18.838  0.00  0.00    +0.000 C 
ATOM     15  C   UNL     1       4.356   3.294  17.242  0.00  0.00    +0.000 C 
BRANCH  11  17
ATOM     16  C   UNL     1       1.249   2.663  21.275  0.00  0.00    +0.000 C 
ATOM     17  S   UNL     1       1.146   2.546  19.481  0.00  0.00    +0.000 S 
ENDBRANCH  11  17
ENDBRANCH   1  12
TORSDOF 3
ENDMDL
MODEL 7
REMARK VINA RESULT:      -6.3      2.706      5.309
REMARK  Name = 
REMARK  7 active torsions:
REMARK  status: ('A' for Active; 'I' for Inactive)
REMARK    1  A    between atoms: C_1  and  S_2
REMARK    2  A    between atoms: S_2  and  C_3
REMARK    3  A    between atoms: N_4  and  S_5
REMARK    4  A    between atoms: S_5  and  C_8
REMARK    5  A    between atoms: C_11  and  C_12
REMARK    6  A    between atoms: N_15  and  C_16
REMARK    7  A    between atoms: N_15  and  C_17
REMARK                            x       y       z     vdW  Elec       q    Type
REMARK                         _______ _______ _______ _____ _____    ______ ____
ROOT
ATOM      1  S   UNL     1       4.869   4.323  18.525  0.00  0.00    +0.000 S 
ATOM      2  O   UNL     1       5.540   3.425  19.444  0.00  0.00    +0.000 OA
ATOM      3  O   UNL     1       4.553   3.884  17.174  0.00  0.00    +0.000 OA
ENDROOT
BRANCH   1   4
ATOM      4  C   UNL     1       5.967   5.712  18.312  0.00  0.00    +0.000 A 
ATOM      5  C   UNL     1       7.198   5.739  18.970  0.00  0.00    +0.000 A 
ATOM      6  C   UNL     1       8.074   6.808  18.740  0.00  0.00    +0.000 A 
ATOM      7  C   UNL     1       7.728   7.840  17.855  0.00  0.00    +0.000 A 
ATOM      8  C   UNL     1       8.649   8.999  17.610  0.00  0.00    +0.000 C 
ATOM      9  C   UNL     1       6.500   7.786  17.187  0.00  0.00    +0.000 A 
ATOM     10  C   UNL     1       5.622   6.726  17.411  0.00  0.00    +0.000 A 
ENDBRANCH   1   4
BRANCH   1  12
ATOM     11  C   UNL     1       2.654   4.210  19.797  0.00  0.00    +0.000 C 
ATOM     12  N   UNL     1       3.537   4.932  19.200  0.00  0.00    +0.000 NA
ATOM     13  N   UNL     1       2.514   2.832  19.998  0.00  0.00    +0.000 N 
ATOM     14  C   UNL     1       1.774   2.239  21.113  0.00  0.00    +0.000 C 
ATOM     15  C   UNL     1       2.868   1.817  19.009  0.00  0.00    +0.000 C 
BRANCH  11  17
ATOM     16  C   UNL     1       1.869   6.867  20.390  0.00  0.00    +0.000 C 
ATOM     17  S   UNL     1       1.295   5.164  20.494  0.00  0.00    +0.000 S 
ENDBRANCH  11  17
ENDBRANCH   1  12
TORSDOF 3
ENDMDL
MODEL 8
REMARK VINA RESULT:      -6.2      2.624      4.183
REMARK  Name = 
REMARK  7 active torsions:
REMARK  status: ('A' for Active; 'I' for Inactive)
REMARK    1  A    between atoms: C_1  and  S_2
REMARK    2  A    between atoms: S_2  and  C_3
REMARK    3  A    between atoms: N_4  and  S_5
REMARK    4  A    between atoms: S_5  and  C_8
REMARK    5  A    between atoms: C_11  and  C_12
REMARK    6  A    between atoms: N_15  and  C_16
REMARK    7  A    between atoms: N_15  and  C_17
REMARK                            x       y       z     vdW  Elec       q    Type
REMARK                         _______ _______ _______ _____ _____    ______ ____
ROOT
ATOM      1  S   UNL     1       3.188   6.040  18.658  0.00  0.00    +0.000 S 
ATOM      2  O   UNL     1       4.339   6.087  19.538  0.00  0.00    +0.000 OA
ATOM      3  O   UNL     1       3.372   5.979  17.216  0.00  0.00    +0.000 OA
ENDROOT
BRANCH   1   4
ATOM      4  C   UNL     1       2.294   7.557  18.943  0.00  0.00    +0.000 A 
ATOM      5  C   UNL     1       1.759   7.828  20.204  0.00  0.00    +0.000 A 
ATOM      6  C   UNL     1       1.115   9.052  20.426  0.00  0.00    +0.000 A 
ATOM      7  C   UNL     1       1.012  10.003  19.400  0.00  0.00    +0.000 A 
ATOM      8  C   UNL     1       0.312  11.313  19.618  0.00  0.00    +0.000 C 
ATOM      9  C   UNL     1       1.572   9.725  18.148  0.00  0.00    +0.000 A 
ATOM     10  C   UNL     1       2.213   8.507  17.919  0.00  0.00    +0.000 A 
ENDBRANCH   1   4
BRANCH   1  12
ATOM     11  C   UNL     1       2.473   3.611  19.014  0.00  0.00    +0.000 C 
ATOM     12  N   UNL     1       2.182   4.862  19.105  0.00  0.00    +0.000 NA
ATOM     13  N   UNL     1       3.579   2.915  18.514  0.00  0.00    +0.000 N 
ATOM     14  C   UNL     1       3.975   1.578  18.959  0.00  0.00    +0.000 C 
ATOM     15  C   UNL     1       4.333   3.313  17.327  0.00  0.00    +0.000 C 
BRANCH  11  17
ATOM     16  C   UNL     1       1.324   2.650  21.419  0.00  0.00    +0.000 C 
ATOM     17  S   UNL     1       1.177   2.522  19.629  0.00  0.00    +0.000 S 
ENDBRANCH  11  17
ENDBRANCH   1  12
TORSDOF 3
ENDMDL
MODEL 9
REMARK VINA RESULT:      -6.2      5.666      7.900
REMARK  Name = 
REMARK  7 active torsions:
REMARK  status: ('A' for Active; 'I' for Inactive)
REMARK    1  A    between atoms: C_1  and  S_2
REMARK    2  A    between atoms: S_2  and  C_3
REMARK    3  A    between atoms: N_4  and  S_5
REMARK    4  A    between atoms: S_5  and  C_8
REMARK    5  A    between atoms: C_11  and  C_12
REMARK    6  A    between atoms: N_15  and  C_16
REMARK    7  A    between atoms: N_15  and  C_17
REMARK                            x       y       z     vdW  Elec       q    Type
REMARK                         _______ _______ _______ _____ _____    ______ ____
ROOT
ATOM      1  S   UNL     1       0.617   9.096  21.246  0.00  0.00    +0.000 S 
ATOM      2  O   UNL     1       1.525   9.580  22.267  0.00  0.00    +0.000 OA
ATOM      3  O   UNL     1      -0.522   8.268  21.615  0.00  0.00    +0.000 OA
ENDROOT
BRANCH   1   4
ATOM      4  C   UNL     1       1.600   8.070  20.167  0.00  0.00    +0.000 A 
ATOM      5  C   UNL     1       1.917   6.763  20.540  0.00  0.00    +0.000 A 
ATOM      6  C   UNL     1       2.636   5.952  19.653  0.00  0.00    +0.000 A 
ATOM      7  C   UNL     1       3.029   6.439  18.397  0.00  0.00    +0.000 A 
ATOM      8  C   UNL     1       3.812   5.588  17.440  0.00  0.00    +0.000 C 
ATOM      9  C   UNL     1       2.684   7.744  18.029  0.00  0.00    +0.000 A 
ATOM     10  C   UNL     1       1.970   8.558  18.909  0.00  0.00    +0.000 A 
ENDBRANCH   1   4
BRANCH   1  12
ATOM     11  C   UNL     1      -0.420  11.389  20.801  0.00  0.00    +0.000 C 
ATOM     12  N   UNL     1       0.100  10.313  20.324  0.00  0.00    +0.000 NA
ATOM     13  N   UNL     1      -0.735  11.813  22.097  0.00  0.00    +0.000 N 
ATOM     14  C   UNL     1      -0.815  13.217  22.502  0.00  0.00    +0.000 C 
ATOM     15  C   UNL     1      -1.262  10.938  23.142  0.00  0.00    +0.000 C 
BRANCH  11  17
ATOM     16  C   UNL     1      -2.159  11.771  18.597  0.00  0.00    +0.000 C 
ATOM     17  S   UNL     1      -0.865  12.596  19.540  0.00  0.00    +0.000 S 
ENDBRANCH  11  17
ENDBRANCH   1  12
TORSDOF 3
ENDMDL
