MODEL 1
REMARK VINA RESULT:      -7.4      0.000      0.000
REMARK  Name = 
REMARK  9 active torsions:
REMARK  status: ('A' for Active; 'I' for Inactive)
REMARK    1  A    between atoms: C_1  and  C_2
REMARK    2  A    between atoms: C_2  and  C_3
REMARK    3  A    between atoms: C_3  and  C_4
REMARK    4  A    between atoms: C_3  and  N_5
REMARK    5  A    between atoms: N_5  and  C_6
REMARK    6  A    between atoms: N_5  and  C_7
REMARK    7  A    between atoms: C_11  and  C_12
REMARK    8  A    between atoms: C_12  and  O_14
REMARK    9  A    between atoms: C_19  and  C_20
REMARK                            x       y       z     vdW  Elec       q    Type
REMARK                         _______ _______ _______ _____ _____    ______ ____
ROOT
ATOM      1  C   UNL     1      -0.552  10.712  19.632  0.00  0.00    +0.000 A 
ATOM      2  N   UNL     1      -1.775  11.308  19.549  0.00  0.00    +0.000 NA
ATOM      3  C   UNL     1      -2.513  11.212  18.431  0.00  0.00    +0.000 A 
ATOM      4  C   UNL     1      -3.792  11.752  18.410  0.00  0.00    +0.000 A 
ATOM      5  C   UNL     1      -4.602  11.665  17.275  0.00  0.00    +0.000 A 
ATOM      6  C   UNL     1      -4.115  11.028  16.133  0.00  0.00    +0.000 A 
ATOM      7  C   UNL     1      -2.823  10.491  16.154  0.00  0.00    +0.000 A 
ATOM      8  C   UNL     1      -2.023  10.557  17.290  0.00  0.00    +0.000 A 
ATOM      9  N   UNL     1      -0.822   9.972  17.309  0.00  0.00    +0.000 NA
ATOM     10  C   UNL     1      -0.116  10.000  18.486  0.00  0.00    +0.000 A 
ENDROOT
BRANCH  10  11
ATOM     11  C   UNL     1       1.040   9.112  18.392  0.00  0.00    +0.000 A 
ATOM     12  C   UNL     1       2.101   8.980  17.508  0.00  0.00    +0.000 A 
ATOM     13  C   UNL     1       2.859   7.852  17.936  0.00  0.00    +0.000 A 
ATOM     14  C   UNL     1       4.015   7.176  17.508  0.00  0.00    +0.000 A 
ATOM     15  C   UNL     1       4.457   6.084  18.266  0.00  0.00    +0.000 A 
ATOM     16  F   UNL     1       5.543   5.409  17.863  0.00  0.00    +0.000 F 
ATOM     17  C   UNL     1       3.805   5.673  19.428  0.00  0.00    +0.000 A 
ATOM     18  C   UNL     1       2.645   6.318  19.855  0.00  0.00    +0.000 A 
ATOM     19  C   UNL     1       2.205   7.375  19.062  0.00  0.00    +0.000 A 
ATOM     20  O   UNL     1       1.074   8.083  19.285  0.00  0.00    +0.000 OA
ENDBRANCH  10  11
BRANCH   1  21
ATOM     21  N   UNL     1       0.119  10.919  20.835  0.00  0.00    +0.000 N 
ATOM     22  C   UNL     1       1.180  11.898  21.013  0.00  0.00    +0.000 C 
BRANCH  21  23
ATOM     23  C   UNL     1      -0.243  10.088  22.010  0.00  0.00    +0.000 C 
ATOM     24  C   UNL     1       0.946   9.213  22.429  0.00  0.00    +0.000 C 
BRANCH  23  26
ATOM     25  C   UNL     1      -2.035  11.674  22.909  0.00  0.00    +0.000 C 
ATOM     26  C   UNL     1      -0.726  10.951  23.193  0.00  0.00    +0.000 C 
ENDBRANCH  23  26
ENDBRANCH  21  23
ENDBRANCH   1  21
BRANCH   5  27
ATOM     27  C   UNL     1      -5.985  12.193  17.368  0.00  0.00    +0.000 C 
ATOM     28  O   UNL     1      -6.903  11.549  17.832  0.00  0.00    +0.000 OA
BRANCH  27  29
ATOM     29  O   UNL     1      -6.130  13.457  16.916  0.00  0.00    +0.000 OA
ATOM     30  H   UNL     1      -5.303  13.923  16.688  0.00  0.00    +0.000 HD
ENDBRANCH  27  29
ENDBRANCH   5  27
TORSDOF 6
ENDMDL
MODEL 2
REMARK VINA RESULT:      -7.3      3.835      6.581
REMARK  Name = 
REMARK  9 active torsions:
REMARK  status: ('A' for Active; 'I' for Inactive)
REMARK    1  A    between atoms: C_1  and  C_2
REMARK    2  A    between atoms: C_2  and  C_3
REMARK    3  A    between atoms: C_3  and  C_4
REMARK    4  A    between atoms: C_3  and  N_5
REMARK    5  A    between atoms: N_5  and  C_6
REMARK    6  A    between atoms: N_5  and  C_7
REMARK    7  A    between atoms: C_11  and  C_12
REMARK    8  A    between atoms: C_12  and  O_14
REMARK    9  A    between atoms: C_19  and  C_20
REMARK                            x       y       z     vdW  Elec       q    Type
REMARK                         _______ _______ _______ _____ _____    ______ ____
ROOT
ATOM      1  C   UNL     1      -0.918  11.065  19.648  0.00  0.00    +0.000 A 
ATOM      2  N   UNL     1      -1.106  10.524  18.412  0.00  0.00    +0.000 NA
ATOM      3  C   UNL     1      -2.226  10.771  17.715  0.00  0.00    +0.000 A 
ATOM      4  C   UNL     1      -2.347  10.279  16.422  0.00  0.00    +0.000 A 
ATOM      5  C   UNL     1      -3.488  10.521  15.652  0.00  0.00    +0.000 A 
ATOM      6  C   UNL     1      -4.533  11.269  16.195  0.00  0.00    +0.000 A 
ATOM      7  C   UNL     1      -4.413  11.758  17.501  0.00  0.00    +0.000 A 
ATOM      8  C   UNL     1      -3.269  11.536  18.261  0.00  0.00    +0.000 A 
ATOM      9  N   UNL     1      -3.147  12.075  19.477  0.00  0.00    +0.000 NA
ATOM     10  C   UNL     1      -1.961  11.889  20.143  0.00  0.00    +0.000 A 
ENDROOT
BRANCH  10  11
ATOM     11  C   UNL     1      -1.918  12.744  21.327  0.00  0.00    +0.000 A 
ATOM     12  C   UNL     1      -0.994  13.634  21.855  0.00  0.00    +0.000 A 
ATOM     13  C   UNL     1      -1.525  14.096  23.094  0.00  0.00    +0.000 A 
ATOM     14  C   UNL     1      -1.121  14.974  24.115  0.00  0.00    +0.000 A 
ATOM     15  C   UNL     1      -1.995  15.177  25.191  0.00  0.00    +0.000 A 
ATOM     16  F   UNL     1      -1.620  15.992  26.187  0.00  0.00    +0.000 F 
ATOM     17  C   UNL     1      -3.243  14.561  25.263  0.00  0.00    +0.000 A 
ATOM     18  C   UNL     1      -3.651  13.670  24.270  0.00  0.00    +0.000 A 
ATOM     19  C   UNL     1      -2.748  13.455  23.232  0.00  0.00    +0.000 A 
ATOM     20  O   UNL     1      -2.942  12.589  22.212  0.00  0.00    +0.000 OA
ENDBRANCH  10  11
BRANCH   1  21
ATOM     21  N   UNL     1       0.272  10.701  20.274  0.00  0.00    +0.000 N 
ATOM     22  C   UNL     1       1.460  11.538  20.306  0.00  0.00    +0.000 C 
BRANCH  21  23
ATOM     23  C   UNL     1       0.356   9.376  20.937  0.00  0.00    +0.000 C 
ATOM     24  C   UNL     1       1.450   8.522  20.282  0.00  0.00    +0.000 C 
BRANCH  23  26
ATOM     25  C   UNL     1      -0.622   9.970  23.223  0.00  0.00    +0.000 C 
ATOM     26  C   UNL     1       0.607   9.511  22.453  0.00  0.00    +0.000 C 
ENDBRANCH  23  26
ENDBRANCH  21  23
ENDBRANCH   1  21
BRANCH   5  27
ATOM     27  C   UNL     1      -3.497  10.032  14.253  0.00  0.00    +0.000 C 
ATOM     28  O   UNL     1      -2.481   9.856  13.613  0.00  0.00    +0.000 OA
BRANCH  27  29
ATOM     29  O   UNL     1      -4.728   9.775  13.761  0.00  0.00    +0.000 OA
ATOM     30  H   UNL     1      -5.461  10.270  14.173  0.00  0.00    +0.000 HD
ENDBRANCH  27  29
ENDBRANCH   5  27
TORSDOF 6
ENDMDL
MODEL 3
REMARK VINA RESULT:      -7.2      4.625      8.923
REMARK  Name = 
REMARK  9 active torsions:
REMARK  status: ('A' for Active; 'I' for Inactive)
REMARK    1  A    between atoms: C_1  and  C_2
REMARK    2  A    between atoms: C_2  and  C_3
REMARK    3  A    between atoms: C_3  and  C_4
REMARK    4  A    between atoms: C_3  and  N_5
REMARK    5  A    between atoms: N_5  and  C_6
REMARK    6  A    between atoms: N_5  and  C_7
REMARK    7  A    between atoms: C_11  and  C_12
REMARK    8  A    between atoms: C_12  and  O_14
REMARK    9  A    between atoms: C_19  and  C_20
REMARK                            x       y       z     vdW  Elec       q    Type
REMARK                         _______ _______ _______ _____ _____    ______ ____
ROOT
ATOM      1  C   UNL     1       2.670   5.130  18.985  0.00  0.00    +0.000 A 
ATOM      2  N   UNL     1       3.513   4.539  18.093  0.00  0.00    +0.000 NA
ATOM      3  C   UNL     1       4.167   5.270  17.175  0.00  0.00    +0.000 A 
ATOM      4  C   UNL     1       5.087   4.651  16.340  0.00  0.00    +0.000 A 
ATOM      5  C   UNL     1       5.801   5.372  15.379  0.00  0.00    +0.000 A 
ATOM      6  C   UNL     1       5.582   6.744  15.250  0.00  0.00    +0.000 A 
ATOM      7  C   UNL     1       4.647   7.365  16.087  0.00  0.00    +0.000 A 
ATOM      8  C   UNL     1       3.951   6.653  17.058  0.00  0.00    +0.000 A 
ATOM      9  N   UNL     1       3.121   7.280  17.894  0.00  0.00    +0.000 NA
ATOM     10  C   UNL     1       2.527   6.537  18.885  0.00  0.00    +0.000 A 
ENDROOT
BRANCH  10  11
ATOM     11  C   UNL     1       1.861   7.422  19.838  0.00  0.00    +0.000 A 
ATOM     12  C   UNL     1       1.347   7.269  21.117  0.00  0.00    +0.000 A 
ATOM     13  C   UNL     1       0.748   8.512  21.474  0.00  0.00    +0.000 A 
ATOM     14  C   UNL     1       0.062   9.034  22.585  0.00  0.00    +0.000 A 
ATOM     15  C   UNL     1      -0.347  10.373  22.535  0.00  0.00    +0.000 A 
ATOM     16  F   UNL     1      -1.023  10.885  23.573  0.00  0.00    +0.000 F 
ATOM     17  C   UNL     1      -0.074  11.194  21.442  0.00  0.00    +0.000 A 
ATOM     18  C   UNL     1       0.586  10.687  20.323  0.00  0.00    +0.000 A 
ATOM     19  C   UNL     1       0.946   9.344  20.381  0.00  0.00    +0.000 A 
ATOM     20  O   UNL     1       1.542   8.663  19.375  0.00  0.00    +0.000 OA
ENDBRANCH  10  11
BRANCH   1  21
ATOM     21  N   UNL     1       2.033   4.252  19.859  0.00  0.00    +0.000 N 
ATOM     22  C   UNL     1       0.599   4.008  19.861  0.00  0.00    +0.000 C 
BRANCH  21  23
ATOM     23  C   UNL     1       2.846   3.527  20.866  0.00  0.00    +0.000 C 
ATOM     24  C   UNL     1       1.935   2.755  21.830  0.00  0.00    +0.000 C 
BRANCH  23  26
ATOM     25  C   UNL     1       3.210   1.524  19.319  0.00  0.00    +0.000 C 
ATOM     26  C   UNL     1       3.864   2.576  20.202  0.00  0.00    +0.000 C 
ENDBRANCH  23  26
ENDBRANCH  21  23
ENDBRANCH   1  21
BRANCH   5  27
ATOM     27  C   UNL     1       6.826   4.648  14.589  0.00  0.00    +0.000 C 
ATOM     28  O   UNL     1       7.912   5.125  14.330  0.00  0.00    +0.000 OA
BRANCH  27  29
ATOM     29  O   UNL     1       6.459   3.407  14.206  0.00  0.00    +0.000 OA
ATOM     30  H   UNL     1       6.595   3.197  13.262  0.00  0.00    +0.000 HD
ENDBRANCH  27  29
ENDBRANCH   5  27
TORSDOF 6
ENDMDL
MODEL 4
REMARK VINA RESULT:      -7.2      4.261      7.148
REMARK  Name = 
REMARK  9 active torsions:
REMARK  status: ('A' for Active; 'I' for Inactive)
REMARK    1  A    between atoms: C_1  and  C_2
REMARK    2  A    between atoms: C_2  and  C_3
REMARK    3  A    between atoms: C_3  and  C_4
REMARK    4  A    between atoms: C_3  and  N_5
REMARK    5  A    between atoms: N_5  and  C_6
REMARK    6  A    between atoms: N_5  and  C_7
REMARK    7  A    between atoms: C_11  and  C_12
REMARK    8  A    between atoms: C_12  and  O_14
REMARK    9  A    between atoms: C_19  and  C_20
REMARK                            x       y       z     vdW  Elec       q    Type
REMARK                         _______ _______ _______ _____ _____    ______ ____
ROOT
ATOM      1  C   UNL     1       3.774   5.355  18.685  0.00  0.00    +0.000 A 
ATOM      2  N   UNL     1       2.986   6.014  19.580  0.00  0.00    +0.000 NA
ATOM      3  C   UNL     1       2.505   7.237  19.305  0.00  0.00    +0.000 A 
ATOM      4  C   UNL     1       1.631   7.842  20.198  0.00  0.00    +0.000 A 
ATOM      5  C   UNL     1       1.094   9.108  19.949  0.00  0.00    +0.000 A 
ATOM      6  C   UNL     1       1.447   9.784  18.781  0.00  0.00    +0.000 A 
ATOM      7  C   UNL     1       2.335   9.175  17.886  0.00  0.00    +0.000 A 
ATOM      8  C   UNL     1       2.853   7.906  18.121  0.00  0.00    +0.000 A 
ATOM      9  N   UNL     1       3.639   7.316  17.217  0.00  0.00    +0.000 NA
ATOM     10  C   UNL     1       4.051   6.031  17.470  0.00  0.00    +0.000 A 
ENDROOT
BRANCH  10  11
ATOM     11  C   UNL     1       4.684   5.470  16.278  0.00  0.00    +0.000 A 
ATOM     12  C   UNL     1       4.405   4.404  15.435  0.00  0.00    +0.000 A 
ATOM     13  C   UNL     1       5.467   4.337  14.487  0.00  0.00    +0.000 A 
ATOM     14  C   UNL     1       5.810   3.523  13.393  0.00  0.00    +0.000 A 
ATOM     15  C   UNL     1       6.976   3.836  12.681  0.00  0.00    +0.000 A 
ATOM     16  F   UNL     1       7.335   3.059  11.649  0.00  0.00    +0.000 F 
ATOM     17  C   UNL     1       7.777   4.929  13.009  0.00  0.00    +0.000 A 
ATOM     18  C   UNL     1       7.464   5.733  14.104  0.00  0.00    +0.000 A 
ATOM     19  C   UNL     1       6.323   5.378  14.819  0.00  0.00    +0.000 A 
ATOM     20  O   UNL     1       5.891   6.003  15.938  0.00  0.00    +0.000 OA
ENDBRANCH  10  11
BRANCH   1  21
ATOM     21  N   UNL     1       4.231   4.110  19.111  0.00  0.00    +0.000 N 
ATOM     22  C   UNL     1       5.631   3.799  19.350  0.00  0.00    +0.000 C 
BRANCH  21  23
ATOM     23  C   UNL     1       3.247   3.020  19.321  0.00  0.00    +0.000 C 
ATOM     24  C   UNL     1       3.533   1.853  18.365  0.00  0.00    +0.000 C 
BRANCH  23  26
ATOM     25  C   UNL     1       2.040   3.044  21.574  0.00  0.00    +0.000 C 
ATOM     26  C   UNL     1       3.236   2.533  20.785  0.00  0.00    +0.000 C 
ENDBRANCH  23  26
ENDBRANCH  21  23
ENDBRANCH   1  21
BRANCH   5  27
ATOM     27  C   UNL     1       0.102   9.643  20.913  0.00  0.00    +0.000 C 
ATOM     28  O   UNL     1      -0.744  10.455  20.602  0.00  0.00    +0.000 OA
BRANCH  27  29
ATOM     29  O   UNL     1       0.205   9.131  22.159  0.00  0.00    +0.000 OA
ATOM     30  H   UNL     1       0.883   8.439  22.279  0.00  0.00    +0.000 HD
ENDBRANCH  27  29
ENDBRANCH   5  27
TORSDOF 6
ENDMDL
MODEL 5
REMARK VINA RESULT:      -7.1      4.615      8.909
REMARK  Name = 
REMARK  9 active torsions:
REMARK  status: ('A' for Active; 'I' for Inactive)
REMARK    1  A    between atoms: C_1  and  C_2
REMARK    2  A    between atoms: C_2  and  C_3
REMARK    3  A    between atoms: C_3  and  C_4
REMARK    4  A    between atoms: C_3  and  N_5
REMARK    5  A    between atoms: N_5  and  C_6
REMARK    6  A    between atoms: N_5  and  C_7
REMARK    7  A    between atoms: C_11  and  C_12
REMARK    8  A    between atoms: C_12  and  O_14
REMARK    9  A    between atoms: C_19  and  C_20
REMARK                            x       y       z     vdW  Elec       q    Type
REMARK                         _______ _______ _______ _____ _____    ______ ____
ROOT
ATOM      1  C   UNL     1       2.745   5.228  19.218  0.00  0.00    +0.000 A 
ATOM      2  N   UNL     1       3.604   4.631  18.343  0.00  0.00    +0.000 NA
ATOM      3  C   UNL     1       4.198   5.340  17.370  0.00  0.00    +0.000 A 
ATOM      4  C   UNL     1       5.136   4.723  16.553  0.00  0.00    +0.000 A 
ATOM      5  C   UNL     1       5.791   5.423  15.536  0.00  0.00    +0.000 A 
ATOM      6  C   UNL     1       5.492   6.770  15.330  0.00  0.00    +0.000 A 
ATOM      7  C   UNL     1       4.540   7.388  16.150  0.00  0.00    +0.000 A 
ATOM      8  C   UNL     1       3.903   6.699  17.176  0.00  0.00    +0.000 A 
ATOM      9  N   UNL     1       3.054   7.330  17.992  0.00  0.00    +0.000 NA
ATOM     10  C   UNL     1       2.522   6.616  19.037  0.00  0.00    +0.000 A 
ENDROOT
BRANCH  10  11
ATOM     11  C   UNL     1       1.825   7.519  19.950  0.00  0.00    +0.000 A 
ATOM     12  C   UNL     1       1.246   7.384  21.203  0.00  0.00    +0.000 A 
ATOM     13  C   UNL     1       0.651   8.640  21.522  0.00  0.00    +0.000 A 
ATOM     14  C   UNL     1      -0.079   9.181  22.594  0.00  0.00    +0.000 A 
ATOM     15  C   UNL     1      -0.462  10.527  22.516  0.00  0.00    +0.000 A 
ATOM     16  F   UNL     1      -1.180  11.058  23.516  0.00  0.00    +0.000 F 
ATOM     17  C   UNL     1      -0.121  11.335  21.433  0.00  0.00    +0.000 A 
ATOM     18  C   UNL     1       0.584  10.809  20.351  0.00  0.00    +0.000 A 
ATOM     19  C   UNL     1       0.918   9.460  20.435  0.00  0.00    +0.000 A 
ATOM     20  O   UNL     1       1.551   8.763  19.465  0.00  0.00    +0.000 OA
ENDBRANCH  10  11
BRANCH   1  21
ATOM     21  N   UNL     1       2.174   4.370  20.156  0.00  0.00    +0.000 N 
ATOM     22  C   UNL     1       2.493   4.394  21.575  0.00  0.00    +0.000 C 
BRANCH  21  23
ATOM     23  C   UNL     1       1.195   3.356  19.696  0.00  0.00    +0.000 C 
ATOM     24  C   UNL     1       0.772   3.641  18.249  0.00  0.00    +0.000 C 
BRANCH  23  26
ATOM     25  C   UNL     1       2.658   1.527  18.672  0.00  0.00    +0.000 C 
ATOM     26  C   UNL     1       1.751   1.923  19.828  0.00  0.00    +0.000 C 
ENDBRANCH  23  26
ENDBRANCH  21  23
ENDBRANCH   1  21
BRANCH   5  27
ATOM     27  C   UNL     1       6.840   4.710  14.768  0.00  0.00    +0.000 C 
ATOM     28  O   UNL     1       7.938   5.183  14.562  0.00  0.00    +0.000 OA
BRANCH  27  29
ATOM     29  O   UNL     1       6.479   3.481  14.341  0.00  0.00    +0.000 OA
ATOM     30  H   UNL     1       6.777   2.735  14.894  0.00  0.00    +0.000 HD
ENDBRANCH  27  29
ENDBRANCH   5  27
TORSDOF 6
ENDMDL
MODEL 6
REMARK VINA RESULT:      -7.0      0.646      1.036
REMARK  Name = 
REMARK  9 active torsions:
REMARK  status: ('A' for Active; 'I' for Inactive)
REMARK    1  A    between atoms: C_1  and  C_2
REMARK    2  A    between atoms: C_2  and  C_3
REMARK    3  A    between atoms: C_3  and  C_4
REMARK    4  A    between atoms: C_3  and  N_5
REMARK    5  A    between atoms: N_5  and  C_6
REMARK    6  A    between atoms: N_5  and  C_7
REMARK    7  A    between atoms: C_11  and  C_12
REMARK    8  A    between atoms: C_12  and  O_14
REMARK    9  A    between atoms: C_19  and  C_20
REMARK                            x       y       z     vdW  Elec       q    Type
REMARK                         _______ _______ _______ _____ _____    ______ ____
ROOT
ATOM      1  C   UNL     1      -0.236  11.117  19.302  0.00  0.00    +0.000 A 
ATOM      2  N   UNL     1      -1.456  11.721  19.252  0.00  0.00    +0.000 NA
ATOM      3  C   UNL     1      -2.363  11.365  18.328  0.00  0.00    +0.000 A 
ATOM      4  C   UNL     1      -3.629  11.935  18.361  0.00  0.00    +0.000 A 
ATOM      5  C   UNL     1      -4.611  11.586  17.429  0.00  0.00    +0.000 A 
ATOM      6  C   UNL     1      -4.313  10.649  16.439  0.00  0.00    +0.000 A 
ATOM      7  C   UNL     1      -3.033  10.082  16.403  0.00  0.00    +0.000 A 
ATOM      8  C   UNL     1      -2.062  10.412  17.342  0.00  0.00    +0.000 A 
ATOM      9  N   UNL     1      -0.874   9.802  17.332  0.00  0.00    +0.000 NA
ATOM     10  C   UNL     1       0.012  10.110  18.335  0.00  0.00    +0.000 A 
ENDROOT
BRANCH  10  11
ATOM     11  C   UNL     1       1.138   9.179  18.305  0.00  0.00    +0.000 A 
ATOM     12  C   UNL     1       2.221   8.984  17.461  0.00  0.00    +0.000 A 
ATOM     13  C   UNL     1       2.925   7.844  17.946  0.00  0.00    +0.000 A 
ATOM     14  C   UNL     1       4.069   7.115  17.576  0.00  0.00    +0.000 A 
ATOM     15  C   UNL     1       4.447   6.032  18.380  0.00  0.00    +0.000 A 
ATOM     16  F   UNL     1       5.521   5.309  18.033  0.00  0.00    +0.000 F 
ATOM     17  C   UNL     1       3.744   5.679  19.532  0.00  0.00    +0.000 A 
ATOM     18  C   UNL     1       2.595   6.377  19.902  0.00  0.00    +0.000 A 
ATOM     19  C   UNL     1       2.218   7.424  19.064  0.00  0.00    +0.000 A 
ATOM     20  O   UNL     1       1.107   8.177  19.228  0.00  0.00    +0.000 OA
ENDBRANCH  10  11
BRANCH   1  21
ATOM     21  N   UNL     1       0.620  11.605  20.287  0.00  0.00    +0.000 N 
ATOM     22  C   UNL     1       1.831  12.361  20.007  0.00  0.00    +0.000 C 
BRANCH  21  23
ATOM     23  C   UNL     1       0.303  11.333  21.711  0.00  0.00    +0.000 C 
ATOM     24  C   UNL     1      -0.670  12.389  22.250  0.00  0.00    +0.000 C 
BRANCH  23  26
ATOM     25  C   UNL     1      -0.125   9.405  23.334  0.00  0.00    +0.000 C 
ATOM     26  C   UNL     1      -0.270   9.914  21.908  0.00  0.00    +0.000 C 
ENDBRANCH  23  26
ENDBRANCH  21  23
ENDBRANCH   1  21
BRANCH   5  27
ATOM     27  C   UNL     1      -5.960  12.178  17.590  0.00  0.00    +0.000 C 
ATOM     28  O   UNL     1      -6.899  11.558  18.044  0.00  0.00    +0.000 OA
BRANCH  27  29
ATOM     29  O   UNL     1      -6.050  13.472  17.212  0.00  0.00    +0.000 OA
ATOM     30  H   UNL     1      -5.711  14.125  17.853  0.00  0.00    +0.000 HD
ENDBRANCH  27  29
ENDBRANCH   5  27
TORSDOF 6
ENDMDL
MODEL 7
REMARK VINA RESULT:      -6.9      0.776      1.524
REMARK  Name = 
REMARK  9 active torsions:
REMARK  status: ('A' for Active; 'I' for Inactive)
REMARK    1  A    between atoms: C_1  and  C_2
REMARK    2  A    between atoms: C_2  and  C_3
REMARK    3  A    between atoms: C_3  and  C_4
REMARK    4  A    between atoms: C_3  and  N_5
REMARK    5  A    between atoms: N_5  and  C_6
REMARK    6  A    between atoms: N_5  and  C_7
REMARK    7  A    between atoms: C_11  and  C_12
REMARK    8  A    between atoms: C_12  and  O_14
REMARK    9  A    between atoms: C_19  and  C_20
REMARK                            x       y       z     vdW  Elec       q    Type
REMARK                         _______ _______ _______ _____ _____    ______ ____
ROOT
ATOM      1  C   UNL     1      -0.262  10.742  19.588  0.00  0.00    +0.000 A 
ATOM      2  N   UNL     1      -1.484  11.342  19.533  0.00  0.00    +0.000 NA
ATOM      3  C   UNL     1      -2.296  11.156  18.480  0.00  0.00    +0.000 A 
ATOM      4  C   UNL     1      -3.570  11.709  18.496  0.00  0.00    +0.000 A 
ATOM      5  C   UNL     1      -4.456  11.531  17.429  0.00  0.00    +0.000 A 
ATOM      6  C   UNL     1      -4.051  10.788  16.320  0.00  0.00    +0.000 A 
ATOM      7  C   UNL     1      -2.763  10.240  16.302  0.00  0.00    +0.000 A 
ATOM      8  C   UNL     1      -1.888  10.397  17.372  0.00  0.00    +0.000 A 
ATOM      9  N   UNL     1      -0.693   9.801  17.364  0.00  0.00    +0.000 NA
ATOM     10  C   UNL     1       0.091   9.925  18.483  0.00  0.00    +0.000 A 
ENDROOT
BRANCH  10  11
ATOM     11  C   UNL     1       1.233   9.018  18.393  0.00  0.00    +0.000 A 
ATOM     12  C   UNL     1       2.296   8.871  17.514  0.00  0.00    +0.000 A 
ATOM     13  C   UNL     1       3.033   7.728  17.942  0.00  0.00    +0.000 A 
ATOM     14  C   UNL     1       4.179   7.034  17.519  0.00  0.00    +0.000 A 
ATOM     15  C   UNL     1       4.598   5.932  18.276  0.00  0.00    +0.000 A 
ATOM     16  F   UNL     1       5.675   5.241  17.877  0.00  0.00    +0.000 F 
ATOM     17  C   UNL     1       3.933   5.528  19.433  0.00  0.00    +0.000 A 
ATOM     18  C   UNL     1       2.782   6.192  19.856  0.00  0.00    +0.000 A 
ATOM     19  C   UNL     1       2.364   7.258  19.064  0.00  0.00    +0.000 A 
ATOM     20  O   UNL     1       1.245   7.985  19.283  0.00  0.00    +0.000 OA
ENDBRANCH  10  11
BRANCH   1  21
ATOM     21  N   UNL     1       0.490  11.046  20.720  0.00  0.00    +0.000 N 
ATOM     22  C   UNL     1       0.501  10.236  21.928  0.00  0.00    +0.000 C 
BRANCH  21  23
ATOM     23  C   UNL     1       1.323  12.274  20.718  0.00  0.00    +0.000 C 
ATOM     24  C   UNL     1       1.775  12.608  19.290  0.00  0.00    +0.000 C 
BRANCH  23  26
ATOM     25  C   UNL     1       0.133  14.501  20.321  0.00  0.00    +0.000 C 
ATOM     26  C   UNL     1       0.580  13.470  21.347  0.00  0.00    +0.000 C 
ENDBRANCH  23  26
ENDBRANCH  21  23
ENDBRANCH   1  21
BRANCH   5  27
ATOM     27  C   UNL     1      -5.825  12.082  17.566  0.00  0.00    +0.000 C 
ATOM     28  O   UNL     1      -6.742  11.449  18.047  0.00  0.00    +0.000 OA
BRANCH  27  29
ATOM     29  O   UNL     1      -5.959  13.355  17.136  0.00  0.00    +0.000 OA
ATOM     30  H   UNL     1      -6.547  13.484  16.368  0.00  0.00    +0.000 HD
ENDBRANCH  27  29
ENDBRANCH   5  27
TORSDOF 6
ENDMDL
MODEL 8
REMARK VINA RESULT:      -6.9      4.435      7.087
REMARK  Name = 
REMARK  9 active torsions:
REMARK  status: ('A' for Active; 'I' for Inactive)
REMARK    1  A    between atoms: C_1  and  C_2
REMARK    2  A    between atoms: C_2  and  C_3
REMARK    3  A    between atoms: C_3  and  C_4
REMARK    4  A    between atoms: C_3  and  N_5
REMARK    5  A    between atoms: N_5  and  C_6
REMARK    6  A    between atoms: N_5  and  C_7
REMARK    7  A    between atoms: C_11  and  C_12
REMARK    8  A    between atoms: C_12  and  O_14
REMARK    9  A    between atoms: C_19  and  C_20
REMARK                            x       y       z     vdW  Elec       q    Type
REMARK                         _______ _______ _______ _____ _____    ______ ____
ROOT
ATOM      1  C   UNL     1       3.618   5.067  19.077  0.00  0.00    +0.000 A 
ATOM      2  N   UNL     1       2.829   5.664  20.013  0.00  0.00    +0.000 NA
ATOM      3  C   UNL     1       2.306   6.882  19.797  0.00  0.00    +0.000 A 
ATOM      4  C   UNL     1       1.433   7.425  20.731  0.00  0.00    +0.000 A 
ATOM      5  C   UNL     1       0.854   8.683  20.544  0.00  0.00    +0.000 A 
ATOM      6  C   UNL     1       1.163   9.415  19.397  0.00  0.00    +0.000 A 
ATOM      7  C   UNL     1       2.050   8.870  18.461  0.00  0.00    +0.000 A 
ATOM      8  C   UNL     1       2.610   7.609  18.635  0.00  0.00    +0.000 A 
ATOM      9  N   UNL     1       3.394   7.079  17.692  0.00  0.00    +0.000 NA
ATOM     10  C   UNL     1       3.850   5.799  17.884  0.00  0.00    +0.000 A 
ENDROOT
BRANCH  10  11
ATOM     11  C   UNL     1       4.474   5.305  16.659  0.00  0.00    +0.000 A 
ATOM     12  C   UNL     1       4.177   4.302  15.748  0.00  0.00    +0.000 A 
ATOM     13  C   UNL     1       5.239   4.277  14.798  0.00  0.00    +0.000 A 
ATOM     14  C   UNL     1       5.569   3.531  13.653  0.00  0.00    +0.000 A 
ATOM     15  C   UNL     1       6.741   3.867  12.964  0.00  0.00    +0.000 A 
ATOM     16  F   UNL     1       7.088   3.153  11.884  0.00  0.00    +0.000 F 
ATOM     17  C   UNL     1       7.562   4.921  13.363  0.00  0.00    +0.000 A 
ATOM     18  C   UNL     1       7.262   5.658  14.509  0.00  0.00    +0.000 A 
ATOM     19  C   UNL     1       6.113   5.278  15.198  0.00  0.00    +0.000 A 
ATOM     20  O   UNL     1       5.691   5.836  16.355  0.00  0.00    +0.000 OA
ENDBRANCH  10  11
BRANCH   1  21
ATOM     21  N   UNL     1       4.120   3.820  19.443  0.00  0.00    +0.000 N 
ATOM     22  C   UNL     1       5.532   3.547  19.662  0.00  0.00    +0.000 C 
BRANCH  21  23
ATOM     23  C   UNL     1       3.176   2.687  19.606  0.00  0.00    +0.000 C 
ATOM     24  C   UNL     1       2.478   2.769  20.971  0.00  0.00    +0.000 C 
BRANCH  23  26
ATOM     25  C   UNL     1       0.702   2.698  18.965  0.00  0.00    +0.000 C 
ATOM     26  C   UNL     1       2.138   2.638  18.467  0.00  0.00    +0.000 C 
ENDBRANCH  23  26
ENDBRANCH  21  23
ENDBRANCH   1  21
BRANCH   5  27
ATOM     27  C   UNL     1      -0.133   9.148  21.548  0.00  0.00    +0.000 C 
ATOM     28  O   UNL     1      -0.758   8.385  22.256  0.00  0.00    +0.000 OA
BRANCH  27  29
ATOM     29  O   UNL     1      -0.258  10.490  21.625  0.00  0.00    +0.000 OA
ATOM     30  H   UNL     1      -1.173  10.829  21.661  0.00  0.00    +0.000 HD
ENDBRANCH  27  29
ENDBRANCH   5  27
TORSDOF 6
ENDMDL
MODEL 9
REMARK VINA RESULT:      -6.9      4.212      7.037
REMARK  Name = 
REMARK  9 active torsions:
REMARK  status: ('A' for Active; 'I' for Inactive)
REMARK    1  A    between atoms: C_1  and  C_2
REMARK    2  A    between atoms: C_2  and  C_3
REMARK    3  A    between atoms: C_3  and  C_4
REMARK    4  A    between atoms: C_3  and  N_5
REMARK    5  A    between atoms: N_5  and  C_6
REMARK    6  A    between atoms: N_5  and  C_7
REMARK    7  A    between atoms: C_11  and  C_12
REMARK    8  A    between atoms: C_12  and  O_14
REMARK    9  A    between atoms: C_19  and  C_20
REMARK                            x       y       z     vdW  Elec       q    Type
REMARK                         _______ _______ _______ _____ _____    ______ ____
ROOT
ATOM      1  C   UNL     1       3.816   5.388  18.725  0.00  0.00    +0.000 A 
ATOM      2  N   UNL     1       2.925   5.973  19.574  0.00  0.00    +0.000 NA
ATOM      3  C   UNL     1       2.443   7.201  19.327  0.00  0.00    +0.000 A 
ATOM      4  C   UNL     1       1.469   7.732  20.162  0.00  0.00    +0.000 A 
ATOM      5  C   UNL     1       0.927   9.000  19.938  0.00  0.00    +0.000 A 
ATOM      6  C   UNL     1       1.378   9.755  18.854  0.00  0.00    +0.000 A 
ATOM      7  C   UNL     1       2.366   9.222  18.018  0.00  0.00    +0.000 A 
ATOM      8  C   UNL     1       2.890   7.951  18.227  0.00  0.00    +0.000 A 
ATOM      9  N   UNL     1       3.777   7.434  17.373  0.00  0.00    +0.000 NA
ATOM     10  C   UNL     1       4.196   6.144  17.587  0.00  0.00    +0.000 A 
ENDROOT
BRANCH  10  11
ATOM     11  C   UNL     1       4.958   5.672  16.434  0.00  0.00    +0.000 A 
ATOM     12  C   UNL     1       6.196   5.979  15.889  0.00  0.00    +0.000 A 
ATOM     13  C   UNL     1       6.327   5.210  14.697  0.00  0.00    +0.000 A 
ATOM     14  C   UNL     1       7.293   5.044  13.688  0.00  0.00    +0.000 A 
ATOM     15  C   UNL     1       7.026   4.123  12.667  0.00  0.00    +0.000 A 
ATOM     16  F   UNL     1       7.922   3.967  11.682  0.00  0.00    +0.000 F 
ATOM     17  C   UNL     1       5.859   3.361  12.639  0.00  0.00    +0.000 A 
ATOM     18  C   UNL     1       4.881   3.527  13.619  0.00  0.00    +0.000 A 
ATOM     19  C   UNL     1       5.153   4.477  14.600  0.00  0.00    +0.000 A 
ATOM     20  O   UNL     1       4.305   4.816  15.598  0.00  0.00    +0.000 OA
ENDBRANCH  10  11
BRANCH   1  21
ATOM     21  N   UNL     1       4.260   4.127  19.118  0.00  0.00    +0.000 N 
ATOM     22  C   UNL     1       5.657   3.795  19.348  0.00  0.00    +0.000 C 
BRANCH  21  23
ATOM     23  C   UNL     1       3.265   3.042  19.302  0.00  0.00    +0.000 C 
ATOM     24  C   UNL     1       3.555   1.885  18.336  0.00  0.00    +0.000 C 
BRANCH  23  26
ATOM     25  C   UNL     1       2.013   3.027  21.530  0.00  0.00    +0.000 C 
ATOM     26  C   UNL     1       3.230   2.538  20.759  0.00  0.00    +0.000 C 
ENDBRANCH  23  26
ENDBRANCH  21  23
ENDBRANCH   1  21
BRANCH   5  27
ATOM     27  C   UNL     1      -0.169   9.453  20.827  0.00  0.00    +0.000 C 
ATOM     28  O   UNL     1      -0.463   8.875  21.853  0.00  0.00    +0.000 OA
BRANCH  27  29
ATOM     29  O   UNL     1      -0.794  10.576  20.413  0.00  0.00    +0.000 OA
ATOM     30  H   UNL     1      -1.611  10.808  20.893  0.00  0.00    +0.000 HD
ENDBRANCH  27  29
ENDBRANCH   5  27
TORSDOF 6
ENDMDL
