MODEL 1
REMARK VINA RESULT:      -7.6      0.000      0.000
REMARK  Name = 
REMARK  8 active torsions:
REMARK  status: ('A' for Active; 'I' for Inactive)
REMARK    1  A    between atoms: C_1  and  C_2
REMARK    2  A    between atoms: C_7  and  C_8
REMARK    3  A    between atoms: C_11  and  C_12
REMARK    4  A    between atoms: C_12  and  N_13
REMARK    5  A    between atoms: C_17  and  C_18
REMARK    6  A    between atoms: C_21  and  C_22
REMARK    7  A    between atoms: C_22  and  O_23
REMARK    8  A    between atoms: N_24  and  C_25
REMARK                            x       y       z     vdW  Elec       q    Type
REMARK                         _______ _______ _______ _____ _____    ______ ____
ROOT
ATOM      1  N   UNL     1       2.496   5.194  20.337  0.00  0.00    +0.000 NA
ATOM      2  C   UNL     1       2.395   3.879  20.996  0.00  0.00    +0.000 C 
ATOM      3  C   UNL     1       3.383   2.853  20.432  0.00  0.00    +0.000 C 
ATOM      4  C   UNL     1       3.391   2.808  18.901  0.00  0.00    +0.000 C 
ATOM      5  C   UNL     1       3.501   4.216  18.278  0.00  0.00    +0.000 C 
ATOM      6  C   UNL     1       2.368   5.063  18.883  0.00  0.00    +0.000 C 
ENDROOT
BRANCH   5   7
ATOM      7  C   UNL     1       4.889   4.803  18.448  0.00  0.00    +0.000 A 
ATOM      8  N   UNL     1       5.835   4.307  19.224  0.00  0.00    +0.000 NA
ATOM      9  N   UNL     1       6.973   5.049  19.072  0.00  0.00    +0.000 NA
ATOM     10  C   UNL     1       6.728   5.994  18.190  0.00  0.00    +0.000 A 
ATOM     11  N   UNL     1       5.424   5.875  17.763  0.00  0.00    +0.000 N 
ATOM     12  C   UNL     1       4.780   6.682  16.761  0.00  0.00    +0.000 C 
BRANCH  10  13
ATOM     13  C   UNL     1       7.703   7.017  17.739  0.00  0.00    +0.000 C 
BRANCH  13  14
ATOM     14  O   UNL     1       8.499   7.401  18.856  0.00  0.00    +0.000 OA
ATOM     15  H   UNL     1       8.772   8.321  18.684  0.00  0.00    +0.000 HD
ENDBRANCH  13  14
ENDBRANCH  10  13
ENDBRANCH   5   7
BRANCH   1  16
ATOM     16  C   UNL     1       1.521   6.158  20.864  0.00  0.00    +0.000 C 
BRANCH  16  20
ATOM     17  C   UNL     1       1.193   9.692  19.254  0.00  0.00    +0.000 A 
ATOM     18  N   UNL     1       2.009   9.020  18.465  0.00  0.00    +0.000 NA
ATOM     19  C   UNL     1       2.221   7.754  18.957  0.00  0.00    +0.000 A 
ATOM     20  C   UNL     1       1.551   7.450  20.121  0.00  0.00    +0.000 A 
ATOM     21  S   UNL     1       0.683   8.828  20.657  0.00  0.00    +0.000 S 
BRANCH  17  28
ATOM     22  C   UNL     1      -1.468  10.291  18.074  0.00  0.00    +0.000 C 
ATOM     23  C   UNL     1      -0.503  11.377  18.482  0.00  0.00    +0.000 A 
ATOM     24  C   UNL     1      -0.879  12.716  18.297  0.00  0.00    +0.000 A 
ATOM     25  C   UNL     1      -0.026  13.759  18.641  0.00  0.00    +0.000 A 
ATOM     26  C   UNL     1       1.227  13.480  19.181  0.00  0.00    +0.000 A 
ATOM     27  C   UNL     1       1.618  12.155  19.374  0.00  0.00    +0.000 A 
ATOM     28  C   UNL     1       0.770  11.083  19.025  0.00  0.00    +0.000 A 
ENDBRANCH  17  28
ENDBRANCH  16  20
ENDBRANCH   1  16
TORSDOF 6
ENDMDL
MODEL 2
REMARK VINA RESULT:      -7.3      2.421      3.134
REMARK  Name = 
REMARK  8 active torsions:
REMARK  status: ('A' for Active; 'I' for Inactive)
REMARK    1  A    between atoms: C_1  and  C_2
REMARK    2  A    between atoms: C_7  and  C_8
REMARK    3  A    between atoms: C_11  and  C_12
REMARK    4  A    between atoms: C_12  and  N_13
REMARK    5  A    between atoms: C_17  and  C_18
REMARK    6  A    between atoms: C_21  and  C_22
REMARK    7  A    between atoms: C_22  and  O_23
REMARK    8  A    between atoms: N_24  and  C_25
REMARK                            x       y       z     vdW  Elec       q    Type
REMARK                         _______ _______ _______ _____ _____    ______ ____
ROOT
ATOM      1  N   UNL     1       2.468   7.821  18.772  0.00  0.00    +0.000 NA
ATOM      2  C   UNL     1       1.691   7.631  20.009  0.00  0.00    +0.000 C 
ATOM      3  C   UNL     1       1.854   6.230  20.606  0.00  0.00    +0.000 C 
ATOM      4  C   UNL     1       1.696   5.115  19.568  0.00  0.00    +0.000 C 
ATOM      5  C   UNL     1       2.537   5.375  18.301  0.00  0.00    +0.000 C 
ATOM      6  C   UNL     1       2.156   6.777  17.791  0.00  0.00    +0.000 C 
ENDROOT
BRANCH   5   7
ATOM      7  C   UNL     1       4.018   5.176  18.554  0.00  0.00    +0.000 A 
ATOM      8  N   UNL     1       4.534   4.480  19.551  0.00  0.00    +0.000 NA
ATOM      9  N   UNL     1       5.894   4.455  19.423  0.00  0.00    +0.000 NA
ATOM     10  C   UNL     1       6.214   5.125  18.338  0.00  0.00    +0.000 A 
ATOM     11  N   UNL     1       5.060   5.597  17.752  0.00  0.00    +0.000 N 
ATOM     12  C   UNL     1       4.972   6.330  16.517  0.00  0.00    +0.000 C 
BRANCH  10  13
ATOM     13  C   UNL     1       7.595   5.336  17.838  0.00  0.00    +0.000 C 
BRANCH  13  14
ATOM     14  O   UNL     1       8.178   4.062  17.582  0.00  0.00    +0.000 OA
ATOM     15  H   UNL     1       9.120   4.150  17.815  0.00  0.00    +0.000 HD
ENDBRANCH  13  14
ENDBRANCH  10  13
ENDBRANCH   5   7
BRANCH   1  16
ATOM     16  C   UNL     1       2.276   9.157  18.192  0.00  0.00    +0.000 C 
BRANCH  16  20
ATOM     17  C   UNL     1      -0.610  11.065  19.987  0.00  0.00    +0.000 A 
ATOM     18  N   UNL     1      -1.186  10.398  19.005  0.00  0.00    +0.000 NA
ATOM     19  C   UNL     1      -0.248   9.703  18.280  0.00  0.00    +0.000 A 
ATOM     20  C   UNL     1       1.051   9.826  18.718  0.00  0.00    +0.000 A 
ATOM     21  S   UNL     1       1.107  10.913  20.043  0.00  0.00    +0.000 S 
BRANCH  17  28
ATOM     22  C   UNL     1      -0.768  10.326  22.861  0.00  0.00    +0.000 C 
ATOM     23  C   UNL     1      -1.390  11.589  22.318  0.00  0.00    +0.000 A 
ATOM     24  C   UNL     1      -2.064  12.443  23.203  0.00  0.00    +0.000 A 
ATOM     25  C   UNL     1      -2.669  13.613  22.757  0.00  0.00    +0.000 A 
ATOM     26  C   UNL     1      -2.608  13.953  21.408  0.00  0.00    +0.000 A 
ATOM     27  C   UNL     1      -1.940  13.119  20.512  0.00  0.00    +0.000 A 
ATOM     28  C   UNL     1      -1.327  11.924  20.945  0.00  0.00    +0.000 A 
ENDBRANCH  17  28
ENDBRANCH  16  20
ENDBRANCH   1  16
TORSDOF 6
ENDMDL
MODEL 3
REMARK VINA RESULT:      -7.3      1.818      2.730
REMARK  Name = 
REMARK  8 active torsions:
REMARK  status: ('A' for Active; 'I' for Inactive)
REMARK    1  A    between atoms: C_1  and  C_2
REMARK    2  A    between atoms: C_7  and  C_8
REMARK    3  A    between atoms: C_11  and  C_12
REMARK    4  A    between atoms: C_12  and  N_13
REMARK    5  A    between atoms: C_17  and  C_18
REMARK    6  A    between atoms: C_21  and  C_22
REMARK    7  A    between atoms: C_22  and  O_23
REMARK    8  A    between atoms: N_24  and  C_25
REMARK                            x       y       z     vdW  Elec       q    Type
REMARK                         _______ _______ _______ _____ _____    ______ ____
ROOT
ATOM      1  N   UNL     1       2.221   6.834  20.165  0.00  0.00    +0.000 NA
ATOM      2  C   UNL     1       1.269   5.848  20.709  0.00  0.00    +0.000 C 
ATOM      3  C   UNL     1       1.486   4.439  20.148  0.00  0.00    +0.000 C 
ATOM      4  C   UNL     1       1.635   4.418  18.624  0.00  0.00    +0.000 C 
ATOM      5  C   UNL     1       2.646   5.471  18.123  0.00  0.00    +0.000 C 
ATOM      6  C   UNL     1       2.202   6.827  18.699  0.00  0.00    +0.000 C 
ENDROOT
BRANCH   5   7
ATOM      7  C   UNL     1       4.075   5.083  18.449  0.00  0.00    +0.000 A 
ATOM      8  N   UNL     1       4.433   4.164  19.328  0.00  0.00    +0.000 NA
ATOM      9  N   UNL     1       5.793   4.031  19.306  0.00  0.00    +0.000 NA
ATOM     10  C   UNL     1       6.269   4.859  18.402  0.00  0.00    +0.000 A 
ATOM     11  N   UNL     1       5.220   5.543  17.830  0.00  0.00    +0.000 N 
ATOM     12  C   UNL     1       5.311   6.501  16.761  0.00  0.00    +0.000 C 
BRANCH  10  13
ATOM     13  C   UNL     1       7.705   5.023  18.064  0.00  0.00    +0.000 C 
BRANCH  13  14
ATOM     14  O   UNL     1       8.010   4.160  16.973  0.00  0.00    +0.000 OA
ATOM     15  H   UNL     1       7.177   4.052  16.479  0.00  0.00    +0.000 HD
ENDBRANCH  13  14
ENDBRANCH  10  13
ENDBRANCH   5   7
BRANCH   1  16
ATOM     16  C   UNL     1       1.981   8.186  20.686  0.00  0.00    +0.000 C 
BRANCH  16  20
ATOM     17  C   UNL     1      -0.663  10.058  18.519  0.00  0.00    +0.000 A 
ATOM     18  N   UNL     1       0.507  10.361  17.988  0.00  0.00    +0.000 NA
ATOM     19  C   UNL     1       1.525   9.770  18.697  0.00  0.00    +0.000 A 
ATOM     20  C   UNL     1       1.133   8.999  19.767  0.00  0.00    +0.000 A 
ATOM     21  S   UNL     1      -0.571   9.078  19.935  0.00  0.00    +0.000 S 
BRANCH  17  28
ATOM     22  C   UNL     1      -2.166  12.175  19.965  0.00  0.00    +0.000 C 
ATOM     23  C   UNL     1      -2.671  11.560  18.683  0.00  0.00    +0.000 A 
ATOM     24  C   UNL     1      -3.892  12.006  18.157  0.00  0.00    +0.000 A 
ATOM     25  C   UNL     1      -4.414  11.466  16.986  0.00  0.00    +0.000 A 
ATOM     26  C   UNL     1      -3.718  10.464  16.316  0.00  0.00    +0.000 A 
ATOM     27  C   UNL     1      -2.501  10.008  16.821  0.00  0.00    +0.000 A 
ATOM     28  C   UNL     1      -1.958  10.539  18.011  0.00  0.00    +0.000 A 
ENDBRANCH  17  28
ENDBRANCH  16  20
ENDBRANCH   1  16
TORSDOF 6
ENDMDL
MODEL 4
REMARK VINA RESULT:      -7.2      5.950     10.406
REMARK  Name = 
REMARK  8 active torsions:
REMARK  status: ('A' for Active; 'I' for Inactive)
REMARK    1  A    between atoms: C_1  and  C_2
REMARK    2  A    between atoms: C_7  and  C_8
REMARK    3  A    between atoms: C_11  and  C_12
REMARK    4  A    between atoms: C_12  and  N_13
REMARK    5  A    between atoms: C_17  and  C_18
REMARK    6  A    between atoms: C_21  and  C_22
REMARK    7  A    between atoms: C_22  and  O_23
REMARK    8  A    between atoms: N_24  and  C_25
REMARK                            x       y       z     vdW  Elec       q    Type
REMARK                         _______ _______ _______ _____ _____    ______ ____
ROOT
ATOM      1  N   UNL     1      -3.137  12.979  22.181  0.00  0.00    +0.000 NA
ATOM      2  C   UNL     1      -3.065  12.783  23.640  0.00  0.00    +0.000 C 
ATOM      3  C   UNL     1      -4.440  12.572  24.283  0.00  0.00    +0.000 C 
ATOM      4  C   UNL     1      -5.479  13.599  23.821  0.00  0.00    +0.000 C 
ATOM      5  C   UNL     1      -5.504  13.752  22.286  0.00  0.00    +0.000 C 
ATOM      6  C   UNL     1      -4.063  14.065  21.844  0.00  0.00    +0.000 C 
ENDROOT
BRANCH   5   7
ATOM      7  C   UNL     1      -6.126  12.548  21.607  0.00  0.00    +0.000 A 
ATOM      8  N   UNL     1      -7.001  11.729  22.162  0.00  0.00    +0.000 NA
ATOM      9  N   UNL     1      -7.398  10.806  21.236  0.00  0.00    +0.000 NA
ATOM     10  C   UNL     1      -6.778  11.068  20.106  0.00  0.00    +0.000 A 
ATOM     11  N   UNL     1      -5.966  12.165  20.291  0.00  0.00    +0.000 N 
ATOM     12  C   UNL     1      -5.161  12.805  19.285  0.00  0.00    +0.000 C 
BRANCH  10  13
ATOM     13  C   UNL     1      -6.932  10.299  18.846  0.00  0.00    +0.000 C 
BRANCH  13  14
ATOM     14  O   UNL     1      -7.327   8.971  19.177  0.00  0.00    +0.000 OA
ATOM     15  H   UNL     1      -6.952   8.795  20.059  0.00  0.00    +0.000 HD
ENDBRANCH  13  14
ENDBRANCH  10  13
ENDBRANCH   5   7
BRANCH   1  16
ATOM     16  C   UNL     1      -1.816  13.212  21.584  0.00  0.00    +0.000 C 
BRANCH  16  20
ATOM     17  C   UNL     1      -0.106  10.065  20.047  0.00  0.00    +0.000 A 
ATOM     18  N   UNL     1      -1.008  10.443  19.162  0.00  0.00    +0.000 NA
ATOM     19  C   UNL     1      -1.699  11.541  19.617  0.00  0.00    +0.000 A 
ATOM     20  C   UNL     1      -1.313  12.015  20.850  0.00  0.00    +0.000 A 
ATOM     21  S   UNL     1      -0.090  11.002  21.496  0.00  0.00    +0.000 S 
BRANCH  17  28
ATOM     22  C   UNL     1       1.617   9.828  17.638  0.00  0.00    +0.000 C 
ATOM     23  C   UNL     1       1.633   8.802  18.745  0.00  0.00    +0.000 A 
ATOM     24  C   UNL     1       2.494   7.701  18.630  0.00  0.00    +0.000 A 
ATOM     25  C   UNL     1       2.541   6.717  19.613  0.00  0.00    +0.000 A 
ATOM     26  C   UNL     1       1.724   6.820  20.735  0.00  0.00    +0.000 A 
ATOM     27  C   UNL     1       0.863   7.908  20.869  0.00  0.00    +0.000 A 
ATOM     28  C   UNL     1       0.795   8.913  19.879  0.00  0.00    +0.000 A 
ENDBRANCH  17  28
ENDBRANCH  16  20
ENDBRANCH   1  16
TORSDOF 6
ENDMDL
MODEL 5
REMARK VINA RESULT:      -7.2      3.155      4.353
REMARK  Name = 
REMARK  8 active torsions:
REMARK  status: ('A' for Active; 'I' for Inactive)
REMARK    1  A    between atoms: C_1  and  C_2
REMARK    2  A    between atoms: C_7  and  C_8
REMARK    3  A    between atoms: C_11  and  C_12
REMARK    4  A    between atoms: C_12  and  N_13
REMARK    5  A    between atoms: C_17  and  C_18
REMARK    6  A    between atoms: C_21  and  C_22
REMARK    7  A    between atoms: C_22  and  O_23
REMARK    8  A    between atoms: N_24  and  C_25
REMARK                            x       y       z     vdW  Elec       q    Type
REMARK                         _______ _______ _______ _____ _____    ______ ____
ROOT
ATOM      1  N   UNL     1       4.725   5.828  17.488  0.00  0.00    +0.000 NA
ATOM      2  C   UNL     1       5.219   7.156  17.895  0.00  0.00    +0.000 C 
ATOM      3  C   UNL     1       6.625   7.456  17.368  0.00  0.00    +0.000 C 
ATOM      4  C   UNL     1       7.609   6.305  17.599  0.00  0.00    +0.000 C 
ATOM      5  C   UNL     1       7.031   4.947  17.149  0.00  0.00    +0.000 C 
ATOM      6  C   UNL     1       5.677   4.778  17.862  0.00  0.00    +0.000 C 
ENDROOT
BRANCH   5   7
ATOM      7  C   UNL     1       6.968   4.830  15.639  0.00  0.00    +0.000 A 
ATOM      8  N   UNL     1       7.728   5.501  14.791  0.00  0.00    +0.000 NA
ATOM      9  N   UNL     1       7.448   5.090  13.518  0.00  0.00    +0.000 NA
ATOM     10  C   UNL     1       6.524   4.156  13.585  0.00  0.00    +0.000 A 
ATOM     11  N   UNL     1       6.193   3.954  14.907  0.00  0.00    +0.000 N 
ATOM     12  C   UNL     1       5.263   2.979  15.411  0.00  0.00    +0.000 C 
BRANCH  10  13
ATOM     13  C   UNL     1       5.940   3.445  12.421  0.00  0.00    +0.000 C 
BRANCH  13  14
ATOM     14  O   UNL     1       6.915   2.540  11.913  0.00  0.00    +0.000 OA
ATOM     15  H   UNL     1       6.467   2.032  11.213  0.00  0.00    +0.000 HD
ENDBRANCH  13  14
ENDBRANCH  10  13
ENDBRANCH   5   7
BRANCH   1  16
ATOM     16  C   UNL     1       3.390   5.540  18.027  0.00  0.00    +0.000 C 
BRANCH  16  20
ATOM     17  C   UNL     1       1.475   8.441  19.790  0.00  0.00    +0.000 A 
ATOM     18  N   UNL     1       1.771   8.895  18.587  0.00  0.00    +0.000 NA
ATOM     19  C   UNL     1       2.480   7.953  17.879  0.00  0.00    +0.000 A 
ATOM     20  C   UNL     1       2.714   6.768  18.537  0.00  0.00    +0.000 A 
ATOM     21  S   UNL     1       2.087   6.864  20.130  0.00  0.00    +0.000 S 
BRANCH  17  28
ATOM     22  C   UNL     1      -0.390  10.615  18.998  0.00  0.00    +0.000 C 
ATOM     23  C   UNL     1      -0.170  10.226  20.440  0.00  0.00    +0.000 A 
ATOM     24  C   UNL     1      -0.874  10.915  21.438  0.00  0.00    +0.000 A 
ATOM     25  C   UNL     1      -0.702  10.610  22.784  0.00  0.00    +0.000 A 
ATOM     26  C   UNL     1       0.182   9.601  23.157  0.00  0.00    +0.000 A 
ATOM     27  C   UNL     1       0.890   8.902  22.180  0.00  0.00    +0.000 A 
ATOM     28  C   UNL     1       0.734   9.203  20.809  0.00  0.00    +0.000 A 
ENDBRANCH  17  28
ENDBRANCH  16  20
ENDBRANCH   1  16
TORSDOF 6
ENDMDL
MODEL 6
REMARK VINA RESULT:      -7.2      3.253      8.295
REMARK  Name = 
REMARK  8 active torsions:
REMARK  status: ('A' for Active; 'I' for Inactive)
REMARK    1  A    between atoms: C_1  and  C_2
REMARK    2  A    between atoms: C_7  and  C_8
REMARK    3  A    between atoms: C_11  and  C_12
REMARK    4  A    between atoms: C_12  and  N_13
REMARK    5  A    between atoms: C_17  and  C_18
REMARK    6  A    between atoms: C_21  and  C_22
REMARK    7  A    between atoms: C_22  and  O_23
REMARK    8  A    between atoms: N_24  and  C_25
REMARK                            x       y       z     vdW  Elec       q    Type
REMARK                         _______ _______ _______ _____ _____    ______ ____
ROOT
ATOM      1  N   UNL     1       0.337  11.001  19.979  0.00  0.00    +0.000 NA
ATOM      2  C   UNL     1      -0.980  11.102  19.324  0.00  0.00    +0.000 C 
ATOM      3  C   UNL     1      -1.330  12.534  18.907  0.00  0.00    +0.000 C 
ATOM      4  C   UNL     1      -1.083  13.558  20.020  0.00  0.00    +0.000 C 
ATOM      5  C   UNL     1       0.312  13.398  20.659  0.00  0.00    +0.000 C 
ATOM      6  C   UNL     1       0.433  11.931  21.109  0.00  0.00    +0.000 C 
ENDROOT
BRANCH   5   7
ATOM      7  C   UNL     1       1.417  13.868  19.734  0.00  0.00    +0.000 A 
ATOM      8  N   UNL     1       2.388  13.108  19.259  0.00  0.00    +0.000 NA
ATOM      9  N   UNL     1       3.155  13.846  18.402  0.00  0.00    +0.000 NA
ATOM     10  C   UNL     1       2.646  15.057  18.340  0.00  0.00    +0.000 A 
ATOM     11  N   UNL     1       1.543  15.118  19.162  0.00  0.00    +0.000 N 
ATOM     12  C   UNL     1       0.671  16.250  19.333  0.00  0.00    +0.000 C 
BRANCH  10  13
ATOM     13  C   UNL     1       3.183  16.170  17.518  0.00  0.00    +0.000 C 
BRANCH  13  14
ATOM     14  O   UNL     1       4.167  16.858  18.284  0.00  0.00    +0.000 OA
ATOM     15  H   UNL     1       4.526  17.548  17.697  0.00  0.00    +0.000 HD
ENDBRANCH  13  14
ENDBRANCH  10  13
ENDBRANCH   5   7
BRANCH   1  16
ATOM     16  C   UNL     1       0.645   9.629  20.403  0.00  0.00    +0.000 C 
BRANCH  16  20
ATOM     17  C   UNL     1       2.879   7.374  18.142  0.00  0.00    +0.000 A 
ATOM     18  N   UNL     1       2.527   8.395  17.383  0.00  0.00    +0.000 NA
ATOM     19  C   UNL     1       1.706   9.251  18.078  0.00  0.00    +0.000 A 
ATOM     20  C   UNL     1       1.439   8.890  19.380  0.00  0.00    +0.000 A 
ATOM     21  S   UNL     1       2.186   7.386  19.722  0.00  0.00    +0.000 S 
BRANCH  17  28
ATOM     22  C   UNL     1       1.790   4.625  17.848  0.00  0.00    +0.000 C 
ATOM     23  C   UNL     1       3.229   4.960  17.540  0.00  0.00    +0.000 A 
ATOM     24  C   UNL     1       4.079   3.935  17.097  0.00  0.00    +0.000 A 
ATOM     25  C   UNL     1       5.418   4.182  16.811  0.00  0.00    +0.000 A 
ATOM     26  C   UNL     1       5.933   5.467  16.962  0.00  0.00    +0.000 A 
ATOM     27  C   UNL     1       5.103   6.499  17.399  0.00  0.00    +0.000 A 
ATOM     28  C   UNL     1       3.744   6.267  17.701  0.00  0.00    +0.000 A 
ENDBRANCH  17  28
ENDBRANCH  16  20
ENDBRANCH   1  16
TORSDOF 6
ENDMDL
MODEL 7
REMARK VINA RESULT:      -7.2      3.120      8.070
REMARK  Name = 
REMARK  8 active torsions:
REMARK  status: ('A' for Active; 'I' for Inactive)
REMARK    1  A    between atoms: C_1  and  C_2
REMARK    2  A    between atoms: C_7  and  C_8
REMARK    3  A    between atoms: C_11  and  C_12
REMARK    4  A    between atoms: C_12  and  N_13
REMARK    5  A    between atoms: C_17  and  C_18
REMARK    6  A    between atoms: C_21  and  C_22
REMARK    7  A    between atoms: C_22  and  O_23
REMARK    8  A    between atoms: N_24  and  C_25
REMARK                            x       y       z     vdW  Elec       q    Type
REMARK                         _______ _______ _______ _____ _____    ______ ____
ROOT
ATOM      1  N   UNL     1       0.569  10.105  20.075  0.00  0.00    +0.000 NA
ATOM      2  C   UNL     1      -0.834  10.152  19.627  0.00  0.00    +0.000 C 
ATOM      3  C   UNL     1      -1.333  11.580  19.381  0.00  0.00    +0.000 C 
ATOM      4  C   UNL     1      -0.990  12.538  20.525  0.00  0.00    +0.000 C 
ATOM      5  C   UNL     1       0.493  12.440  20.943  0.00  0.00    +0.000 C 
ATOM      6  C   UNL     1       0.773  10.958  21.250  0.00  0.00    +0.000 C 
ENDROOT
BRANCH   5   7
ATOM      7  C   UNL     1       1.414  13.055  19.909  0.00  0.00    +0.000 A 
ATOM      8  N   UNL     1       2.009  12.396  18.930  0.00  0.00    +0.000 NA
ATOM      9  N   UNL     1       2.701  13.282  18.152  0.00  0.00    +0.000 NA
ATOM     10  C   UNL     1       2.520  14.487  18.645  0.00  0.00    +0.000 A 
ATOM     11  N   UNL     1       1.708  14.395  19.754  0.00  0.00    +0.000 N 
ATOM     12  C   UNL     1       1.226  15.494  20.548  0.00  0.00    +0.000 C 
BRANCH  10  13
ATOM     13  C   UNL     1       3.101  15.735  18.091  0.00  0.00    +0.000 C 
BRANCH  13  14
ATOM     14  O   UNL     1       3.635  15.447  16.803  0.00  0.00    +0.000 OA
ATOM     15  H   UNL     1       3.347  16.178  16.227  0.00  0.00    +0.000 HD
ENDBRANCH  13  14
ENDBRANCH  10  13
ENDBRANCH   5   7
BRANCH   1  16
ATOM     16  C   UNL     1       1.024   8.733  20.338  0.00  0.00    +0.000 C 
BRANCH  16  20
ATOM     17  C   UNL     1       3.462   7.003  17.838  0.00  0.00    +0.000 A 
ATOM     18  N   UNL     1       3.002   8.065  17.204  0.00  0.00    +0.000 NA
ATOM     19  C   UNL     1       2.101   8.743  17.990  0.00  0.00    +0.000 A 
ATOM     20  C   UNL     1       1.883   8.207  19.239  0.00  0.00    +0.000 A 
ATOM     21  S   UNL     1       2.783   6.757  19.405  0.00  0.00    +0.000 S 
BRANCH  17  28
ATOM     22  C   UNL     1       2.714   4.162  17.392  0.00  0.00    +0.000 C 
ATOM     23  C   UNL     1       4.079   4.701  17.040  0.00  0.00    +0.000 A 
ATOM     24  C   UNL     1       5.024   3.829  16.482  0.00  0.00    +0.000 A 
ATOM     25  C   UNL     1       6.302   4.267  16.150  0.00  0.00    +0.000 A 
ATOM     26  C   UNL     1       6.659   5.594  16.372  0.00  0.00    +0.000 A 
ATOM     27  C   UNL     1       5.732   6.478  16.924  0.00  0.00    +0.000 A 
ATOM     28  C   UNL     1       4.433   6.051  17.274  0.00  0.00    +0.000 A 
ENDBRANCH  17  28
ENDBRANCH  16  20
ENDBRANCH   1  16
TORSDOF 6
ENDMDL
MODEL 8
REMARK VINA RESULT:      -7.2      3.857      8.666
REMARK  Name = 
REMARK  8 active torsions:
REMARK  status: ('A' for Active; 'I' for Inactive)
REMARK    1  A    between atoms: C_1  and  C_2
REMARK    2  A    between atoms: C_7  and  C_8
REMARK    3  A    between atoms: C_11  and  C_12
REMARK    4  A    between atoms: C_12  and  N_13
REMARK    5  A    between atoms: C_17  and  C_18
REMARK    6  A    between atoms: C_21  and  C_22
REMARK    7  A    between atoms: C_22  and  O_23
REMARK    8  A    between atoms: N_24  and  C_25
REMARK                            x       y       z     vdW  Elec       q    Type
REMARK                         _______ _______ _______ _____ _____    ______ ____
ROOT
ATOM      1  N   UNL     1       0.188  10.022  21.773  0.00  0.00    +0.000 NA
ATOM      2  C   UNL     1      -0.549  10.216  23.035  0.00  0.00    +0.000 C 
ATOM      3  C   UNL     1      -1.705  11.213  22.903  0.00  0.00    +0.000 C 
ATOM      4  C   UNL     1      -1.301  12.505  22.187  0.00  0.00    +0.000 C 
ATOM      5  C   UNL     1      -0.537  12.230  20.875  0.00  0.00    +0.000 C 
ATOM      6  C   UNL     1       0.641  11.305  21.228  0.00  0.00    +0.000 C 
ENDROOT
BRANCH   5   7
ATOM      7  C   UNL     1      -1.452  11.701  19.788  0.00  0.00    +0.000 A 
ATOM      8  N   UNL     1      -1.168  10.698  18.976  0.00  0.00    +0.000 NA
ATOM      9  N   UNL     1      -2.250  10.450  18.178  0.00  0.00    +0.000 NA
ATOM     10  C   UNL     1      -3.204  11.292  18.510  0.00  0.00    +0.000 A 
ATOM     11  N   UNL     1      -2.747  12.100  19.528  0.00  0.00    +0.000 N 
ATOM     12  C   UNL     1      -3.503  13.116  20.212  0.00  0.00    +0.000 C 
BRANCH  10  13
ATOM     13  C   UNL     1      -4.547  11.355  17.883  0.00  0.00    +0.000 C 
BRANCH  13  14
ATOM     14  O   UNL     1      -4.462  12.177  16.723  0.00  0.00    +0.000 OA
ATOM     15  H   UNL     1      -5.272  11.999  16.212  0.00  0.00    +0.000 HD
ENDBRANCH  13  14
ENDBRANCH  10  13
ENDBRANCH   5   7
BRANCH   1  16
ATOM     16  C   UNL     1       1.312   9.089  21.922  0.00  0.00    +0.000 C 
BRANCH  16  20
ATOM     17  C   UNL     1       2.268   6.783  18.929  0.00  0.00    +0.000 A 
ATOM     18  N   UNL     1       1.997   7.959  18.395  0.00  0.00    +0.000 NA
ATOM     19  C   UNL     1       1.617   8.854  19.368  0.00  0.00    +0.000 A 
ATOM     20  C   UNL     1       1.612   8.364  20.654  0.00  0.00    +0.000 A 
ATOM     21  S   UNL     1       2.027   6.701  20.635  0.00  0.00    +0.000 S 
BRANCH  17  28
ATOM     22  C   UNL     1       4.889   6.739  17.529  0.00  0.00    +0.000 C 
ATOM     23  C   UNL     1       3.945   5.562  17.511  0.00  0.00    +0.000 A 
ATOM     24  C   UNL     1       4.322   4.407  16.810  0.00  0.00    +0.000 A 
ATOM     25  C   UNL     1       3.487   3.296  16.748  0.00  0.00    +0.000 A 
ATOM     26  C   UNL     1       2.253   3.321  17.391  0.00  0.00    +0.000 A 
ATOM     27  C   UNL     1       1.861   4.459  18.095  0.00  0.00    +0.000 A 
ATOM     28  C   UNL     1       2.691   5.599  18.164  0.00  0.00    +0.000 A 
ENDBRANCH  17  28
ENDBRANCH  16  20
ENDBRANCH   1  16
TORSDOF 6
ENDMDL
MODEL 9
REMARK VINA RESULT:      -7.1      2.742      3.235
REMARK  Name = 
REMARK  8 active torsions:
REMARK  status: ('A' for Active; 'I' for Inactive)
REMARK    1  A    between atoms: C_1  and  C_2
REMARK    2  A    between atoms: C_7  and  C_8
REMARK    3  A    between atoms: C_11  and  C_12
REMARK    4  A    between atoms: C_12  and  N_13
REMARK    5  A    between atoms: C_17  and  C_18
REMARK    6  A    between atoms: C_21  and  C_22
REMARK    7  A    between atoms: C_22  and  O_23
REMARK    8  A    between atoms: N_24  and  C_25
REMARK                            x       y       z     vdW  Elec       q    Type
REMARK                         _______ _______ _______ _____ _____    ______ ____
ROOT
ATOM      1  N   UNL     1       2.192   7.179  19.289  0.00  0.00    +0.000 NA
ATOM      2  C   UNL     1       1.446   6.657  20.447  0.00  0.00    +0.000 C 
ATOM      3  C   UNL     1       1.750   5.184  20.738  0.00  0.00    +0.000 C 
ATOM      4  C   UNL     1       1.694   4.304  19.486  0.00  0.00    +0.000 C 
ATOM      5  C   UNL     1       2.498   4.906  18.314  0.00  0.00    +0.000 C 
ATOM      6  C   UNL     1       1.978   6.340  18.106  0.00  0.00    +0.000 C 
ENDROOT
BRANCH   5   7
ATOM      7  C   UNL     1       3.993   4.803  18.540  0.00  0.00    +0.000 A 
ATOM      8  N   UNL     1       4.575   4.037  19.445  0.00  0.00    +0.000 NA
ATOM      9  N   UNL     1       5.931   4.142  19.314  0.00  0.00    +0.000 NA
ATOM     10  C   UNL     1       6.182   4.963  18.318  0.00  0.00    +0.000 A 
ATOM     11  N   UNL     1       4.987   5.403  17.794  0.00  0.00    +0.000 N 
ATOM     12  C   UNL     1       4.825   6.271  16.658  0.00  0.00    +0.000 C 
BRANCH  10  13
ATOM     13  C   UNL     1       7.535   5.348  17.846  0.00  0.00    +0.000 C 
BRANCH  13  14
ATOM     14  O   UNL     1       7.961   4.393  16.879  0.00  0.00    +0.000 OA
ATOM     15  H   UNL     1       8.870   4.647  16.637  0.00  0.00    +0.000 HD
ENDBRANCH  13  14
ENDBRANCH  10  13
ENDBRANCH   5   7
BRANCH   1  16
ATOM     16  C   UNL     1       1.866   8.582  19.002  0.00  0.00    +0.000 C 
BRANCH  16  20
ATOM     17  C   UNL     1       0.080  10.717  21.729  0.00  0.00    +0.000 A 
ATOM     18  N   UNL     1       0.940   9.960  22.383  0.00  0.00    +0.000 NA
ATOM     19  C   UNL     1       1.614   9.136  21.513  0.00  0.00    +0.000 A 
ATOM     20  C   UNL     1       1.279   9.275  20.185  0.00  0.00    +0.000 A 
ATOM     21  S   UNL     1       0.020  10.428  20.030  0.00  0.00    +0.000 S 
BRANCH  17  28
ATOM     22  C   UNL     1       0.650  13.628  21.534  0.00  0.00    +0.000 C 
ATOM     23  C   UNL     1      -0.560  13.089  22.258  0.00  0.00    +0.000 A 
ATOM     24  C   UNL     1      -1.445  13.998  22.857  0.00  0.00    +0.000 A 
ATOM     25  C   UNL     1      -2.569  13.559  23.550  0.00  0.00    +0.000 A 
ATOM     26  C   UNL     1      -2.830  12.196  23.654  0.00  0.00    +0.000 A 
ATOM     27  C   UNL     1      -1.963  11.277  23.063  0.00  0.00    +0.000 A 
ATOM     28  C   UNL     1      -0.813  11.702  22.363  0.00  0.00    +0.000 A 
ENDBRANCH  17  28
ENDBRANCH  16  20
ENDBRANCH   1  16
TORSDOF 6
ENDMDL
