MODEL 1
REMARK VINA RESULT:      -8.1      0.000      0.000
REMARK  Name = 
REMARK  10 active torsions:
REMARK  status: ('A' for Active; 'I' for Inactive)
REMARK    1  A    between atoms: C_1  and  O_2
REMARK    2  A    between atoms: O_2  and  C_3
REMARK    3  A    between atoms: C_6  and  C_7
REMARK    4  A    between atoms: C_7  and  C_8
REMARK    5  A    between atoms: C_7  and  C_9
REMARK    6  A    between atoms: C_7  and  C_10
REMARK    7  A    between atoms: C_12  and  N_13
REMARK    8  A    between atoms: C_14  and  C_16
REMARK    9  A    between atoms: C_16  and  C_18
REMARK   10  A    between atoms: C_19  and  C_20
REMARK                            x       y       z     vdW  Elec       q    Type
REMARK                         _______ _______ _______ _____ _____    ______ ____
ROOT
ATOM      1  C   UNL     1       0.744  11.655  18.859  0.00  0.00    +0.000 C 
ATOM      2  O   UNL     1       1.701  12.275  18.393  0.00  0.00    +0.000 OA
ENDROOT
BRANCH   1   3
ATOM      3  C   UNL     1       0.831  10.474  19.723  0.00  0.00    +0.000 A 
ATOM      4  C   UNL     1       0.388  10.389  21.058  0.00  0.00    +0.000 A 
ATOM      5  C   UNL     1       0.762   9.122  21.570  0.00  0.00    +0.000 A 
ATOM      6  C   UNL     1       1.365   8.425  20.560  0.00  0.00    +0.000 A 
ATOM      7  C   UNL     1       1.908   7.107  20.508  0.00  0.00    +0.000 A 
ATOM      8  C   UNL     1       2.450   6.652  19.366  0.00  0.00    +0.000 A 
ATOM      9  C   UNL     1       2.508   7.489  18.186  0.00  0.00    +0.000 A 
ATOM     10  C   UNL     1       2.012   8.737  18.241  0.00  0.00    +0.000 A 
ATOM     11  N   UNL     1       1.414   9.227  19.416  0.00  0.00    +0.000 N 
BRANCH   4  12
ATOM     12  C   UNL     1      -0.297  11.435  21.824  0.00  0.00    +0.000 A 
ATOM     13  C   UNL     1      -1.395  11.155  22.644  0.00  0.00    +0.000 A 
ATOM     14  C   UNL     1      -2.064  12.182  23.317  0.00  0.00    +0.000 A 
ATOM     15  C   UNL     1      -1.601  13.492  23.232  0.00  0.00    +0.000 A 
ATOM     16  C   UNL     1      -0.464  13.776  22.480  0.00  0.00    +0.000 A 
ATOM     17  C   UNL     1       0.181  12.756  21.776  0.00  0.00    +0.000 A 
ENDBRANCH   4  12
ENDBRANCH   1   3
BRANCH   1  19
ATOM     18  N   UNL     1      -1.634  11.283  18.537  0.00  0.00    +0.000 N 
ATOM     19  C   UNL     1      -0.604  12.215  18.447  0.00  0.00    +0.000 C 
ATOM     20  O   UNL     1      -0.654  13.382  18.096  0.00  0.00    +0.000 OA
ATOM     21  H   UNL     1      -1.404  10.348  18.868  0.00  0.00    +0.000 HD
BRANCH  18  27
ATOM     22  C   UNL     1      -3.445  11.280  16.886  0.00  0.00    +0.000 A 
ATOM     23  C   UNL     1      -4.798  11.488  16.581  0.00  0.00    +0.000 A 
ATOM     24  C   UNL     1      -5.706  11.858  17.581  0.00  0.00    +0.000 A 
ATOM     25  C   UNL     1      -5.288  12.058  18.900  0.00  0.00    +0.000 A 
ATOM     26  C   UNL     1      -3.920  11.903  19.170  0.00  0.00    +0.000 A 
ATOM     27  C   UNL     1      -2.996  11.496  18.201  0.00  0.00    +0.000 A 
BRANCH  25  28
ATOM     28  C   UNL     1      -6.297  12.398  20.008  0.00  0.00    +0.000 C 
ATOM     29  C   UNL     1      -7.240  11.194  20.218  0.00  0.00    +0.000 C 
ATOM     30  C   UNL     1      -5.632  12.704  21.371  0.00  0.00    +0.000 C 
ATOM     31  C   UNL     1      -7.129  13.631  19.611  0.00  0.00    +0.000 C 
ENDBRANCH  25  28
BRANCH  22  33
ATOM     32  C   UNL     1      -3.083  10.250  14.786  0.00  0.00    +0.000 C 
ATOM     33  O   UNL     1      -2.524  10.860  15.954  0.00  0.00    +0.000 OA
ENDBRANCH  22  33
ENDBRANCH  18  27
ENDBRANCH   1  19
TORSDOF 6
ENDMDL
MODEL 2
REMARK VINA RESULT:      -8.1      0.114      1.148
REMARK  Name = 
REMARK  10 active torsions:
REMARK  status: ('A' for Active; 'I' for Inactive)
REMARK    1  A    between atoms: C_1  and  O_2
REMARK    2  A    between atoms: O_2  and  C_3
REMARK    3  A    between atoms: C_6  and  C_7
REMARK    4  A    between atoms: C_7  and  C_8
REMARK    5  A    between atoms: C_7  and  C_9
REMARK    6  A    between atoms: C_7  and  C_10
REMARK    7  A    between atoms: C_12  and  N_13
REMARK    8  A    between atoms: C_14  and  C_16
REMARK    9  A    between atoms: C_16  and  C_18
REMARK   10  A    between atoms: C_19  and  C_20
REMARK                            x       y       z     vdW  Elec       q    Type
REMARK                         _______ _______ _______ _____ _____    ______ ____
ROOT
ATOM      1  C   UNL     1       0.755  11.689  18.808  0.00  0.00    +0.000 C 
ATOM      2  O   UNL     1       1.709  12.321  18.353  0.00  0.00    +0.000 OA
ENDROOT
BRANCH   1   3
ATOM      3  C   UNL     1       0.847  10.517  19.684  0.00  0.00    +0.000 A 
ATOM      4  C   UNL     1       0.415  10.448  21.024  0.00  0.00    +0.000 A 
ATOM      5  C   UNL     1       0.791   9.186  21.547  0.00  0.00    +0.000 A 
ATOM      6  C   UNL     1       1.383   8.476  20.539  0.00  0.00    +0.000 A 
ATOM      7  C   UNL     1       1.922   7.157  20.497  0.00  0.00    +0.000 A 
ATOM      8  C   UNL     1       2.453   6.687  19.355  0.00  0.00    +0.000 A 
ATOM      9  C   UNL     1       2.503   7.511  18.166  0.00  0.00    +0.000 A 
ATOM     10  C   UNL     1       2.010   8.760  18.211  0.00  0.00    +0.000 A 
ATOM     11  N   UNL     1       1.424   9.265  19.386  0.00  0.00    +0.000 N 
BRANCH   4  12
ATOM     12  C   UNL     1      -0.260  11.504  21.784  0.00  0.00    +0.000 A 
ATOM     13  C   UNL     1       0.175  12.834  21.753  0.00  0.00    +0.000 A 
ATOM     14  C   UNL     1      -0.453  13.810  22.533  0.00  0.00    +0.000 A 
ATOM     15  C   UNL     1      -1.566  13.481  23.301  0.00  0.00    +0.000 A 
ATOM     16  C   UNL     1      -2.058  12.178  23.285  0.00  0.00    +0.000 A 
ATOM     17  C   UNL     1      -1.406  11.195  22.535  0.00  0.00    +0.000 A 
ENDBRANCH   4  12
ENDBRANCH   1   3
BRANCH   1  19
ATOM     18  N   UNL     1      -1.624  11.297  18.517  0.00  0.00    +0.000 N 
ATOM     19  C   UNL     1      -0.596  12.222  18.367  0.00  0.00    +0.000 C 
ATOM     20  O   UNL     1      -0.648  13.365  17.947  0.00  0.00    +0.000 OA
ATOM     21  H   UNL     1      -1.392  10.383  18.903  0.00  0.00    +0.000 HD
BRANCH  18  27
ATOM     22  C   UNL     1      -3.447  11.162  16.885  0.00  0.00    +0.000 A 
ATOM     23  C   UNL     1      -4.801  11.351  16.572  0.00  0.00    +0.000 A 
ATOM     24  C   UNL     1      -5.700  11.810  17.543  0.00  0.00    +0.000 A 
ATOM     25  C   UNL     1      -5.271  12.120  18.838  0.00  0.00    +0.000 A 
ATOM     26  C   UNL     1      -3.902  11.981  19.110  0.00  0.00    +0.000 A 
ATOM     27  C   UNL     1      -2.987  11.487  18.174  0.00  0.00    +0.000 A 
BRANCH  25  28
ATOM     28  C   UNL     1      -6.270  12.559  19.919  0.00  0.00    +0.000 C 
ATOM     29  C   UNL     1      -5.500  12.877  21.218  0.00  0.00    +0.000 C 
ATOM     30  C   UNL     1      -7.071  13.827  19.537  0.00  0.00    +0.000 C 
ATOM     31  C   UNL     1      -7.287  11.436  20.194  0.00  0.00    +0.000 C 
ENDBRANCH  25  28
BRANCH  22  33
ATOM     32  C   UNL     1      -3.083  10.275  14.720  0.00  0.00    +0.000 C 
ATOM     33  O   UNL     1      -2.534  10.658  15.986  0.00  0.00    +0.000 OA
ENDBRANCH  22  33
ENDBRANCH  18  27
ENDBRANCH   1  19
TORSDOF 6
ENDMDL
MODEL 3
REMARK VINA RESULT:      -7.5      2.928      8.211
REMARK  Name = 
REMARK  10 active torsions:
REMARK  status: ('A' for Active; 'I' for Inactive)
REMARK    1  A    between atoms: C_1  and  O_2
REMARK    2  A    between atoms: O_2  and  C_3
REMARK    3  A    between atoms: C_6  and  C_7
REMARK    4  A    between atoms: C_7  and  C_8
REMARK    5  A    between atoms: C_7  and  C_9
REMARK    6  A    between atoms: C_7  and  C_10
REMARK    7  A    between atoms: C_12  and  N_13
REMARK    8  A    between atoms: C_14  and  C_16
REMARK    9  A    between atoms: C_16  and  C_18
REMARK   10  A    between atoms: C_19  and  C_20
REMARK                            x       y       z     vdW  Elec       q    Type
REMARK                         _______ _______ _______ _____ _____    ______ ____
ROOT
ATOM      1  C   UNL     1       0.953   9.931  19.494  0.00  0.00    +0.000 C 
ATOM      2  O   UNL     1       1.221   9.886  20.696  0.00  0.00    +0.000 OA
ENDROOT
BRANCH   1   3
ATOM      3  C   UNL     1       0.044  10.889  18.858  0.00  0.00    +0.000 A 
ATOM      4  C   UNL     1       0.270  12.273  18.709  0.00  0.00    +0.000 A 
ATOM      5  C   UNL     1      -0.896  12.855  18.152  0.00  0.00    +0.000 A 
ATOM      6  C   UNL     1      -1.790  11.848  17.910  0.00  0.00    +0.000 A 
ATOM      7  C   UNL     1      -3.098  11.858  17.341  0.00  0.00    +0.000 A 
ATOM      8  C   UNL     1      -3.776  10.705  17.207  0.00  0.00    +0.000 A 
ATOM      9  C   UNL     1      -3.205   9.451  17.648  0.00  0.00    +0.000 A 
ATOM     10  C   UNL     1      -1.979   9.446  18.200  0.00  0.00    +0.000 A 
ATOM     11  N   UNL     1      -1.237  10.635  18.326  0.00  0.00    +0.000 N 
BRANCH   4  12
ATOM     12  C   UNL     1       1.472  13.013  19.103  0.00  0.00    +0.000 A 
ATOM     13  C   UNL     1       1.739  13.337  20.437  0.00  0.00    +0.000 A 
ATOM     14  C   UNL     1       2.864  14.094  20.778  0.00  0.00    +0.000 A 
ATOM     15  C   UNL     1       3.773  14.478  19.794  0.00  0.00    +0.000 A 
ATOM     16  C   UNL     1       3.561  14.099  18.471  0.00  0.00    +0.000 A 
ATOM     17  C   UNL     1       2.415  13.376  18.127  0.00  0.00    +0.000 A 
ENDBRANCH   4  12
ENDBRANCH   1   3
BRANCH   1  19
ATOM     18  N   UNL     1       2.081   7.781  19.435  0.00  0.00    +0.000 N 
ATOM     19  C   UNL     1       1.652   8.864  18.673  0.00  0.00    +0.000 C 
ATOM     20  O   UNL     1       1.760   9.048  17.473  0.00  0.00    +0.000 OA
ATOM     21  H   UNL     1       1.888   7.794  20.435  0.00  0.00    +0.000 HD
BRANCH  18  27
ATOM     22  C   UNL     1       2.411   5.354  19.386  0.00  0.00    +0.000 A 
ATOM     23  C   UNL     1       3.114   4.242  18.898  0.00  0.00    +0.000 A 
ATOM     24  C   UNL     1       4.143   4.404  17.962  0.00  0.00    +0.000 A 
ATOM     25  C   UNL     1       4.518   5.674  17.511  0.00  0.00    +0.000 A 
ATOM     26  C   UNL     1       3.841   6.775  18.057  0.00  0.00    +0.000 A 
ATOM     27  C   UNL     1       2.783   6.642  18.963  0.00  0.00    +0.000 A 
BRANCH  25  28
ATOM     28  C   UNL     1       5.601   5.844  16.435  0.00  0.00    +0.000 C 
ATOM     29  C   UNL     1       5.973   4.456  15.870  0.00  0.00    +0.000 C 
ATOM     30  C   UNL     1       5.149   6.719  15.241  0.00  0.00    +0.000 C 
ATOM     31  C   UNL     1       6.856   6.498  17.040  0.00  0.00    +0.000 C 
ENDBRANCH  25  28
BRANCH  22  33
ATOM     32  C   UNL     1       0.922   3.905  20.522  0.00  0.00    +0.000 C 
ATOM     33  O   UNL     1       1.354   5.245  20.261  0.00  0.00    +0.000 OA
ENDBRANCH  22  33
ENDBRANCH  18  27
ENDBRANCH   1  19
TORSDOF 6
ENDMDL
MODEL 4
REMARK VINA RESULT:      -7.5      2.922      8.233
REMARK  Name = 
REMARK  10 active torsions:
REMARK  status: ('A' for Active; 'I' for Inactive)
REMARK    1  A    between atoms: C_1  and  O_2
REMARK    2  A    between atoms: O_2  and  C_3
REMARK    3  A    between atoms: C_6  and  C_7
REMARK    4  A    between atoms: C_7  and  C_8
REMARK    5  A    between atoms: C_7  and  C_9
REMARK    6  A    between atoms: C_7  and  C_10
REMARK    7  A    between atoms: C_12  and  N_13
REMARK    8  A    between atoms: C_14  and  C_16
REMARK    9  A    between atoms: C_16  and  C_18
REMARK   10  A    between atoms: C_19  and  C_20
REMARK                            x       y       z     vdW  Elec       q    Type
REMARK                         _______ _______ _______ _____ _____    ______ ____
ROOT
ATOM      1  C   UNL     1       0.945   9.940  19.501  0.00  0.00    +0.000 C 
ATOM      2  O   UNL     1       1.189   9.887  20.707  0.00  0.00    +0.000 OA
ENDROOT
BRANCH   1   3
ATOM      3  C   UNL     1       0.039  10.895  18.855  0.00  0.00    +0.000 A 
ATOM      4  C   UNL     1       0.268  12.277  18.694  0.00  0.00    +0.000 A 
ATOM      5  C   UNL     1      -0.896  12.857  18.131  0.00  0.00    +0.000 A 
ATOM      6  C   UNL     1      -1.792  11.850  17.897  0.00  0.00    +0.000 A 
ATOM      7  C   UNL     1      -3.099  11.858  17.327  0.00  0.00    +0.000 A 
ATOM      8  C   UNL     1      -3.780  10.705  17.202  0.00  0.00    +0.000 A 
ATOM      9  C   UNL     1      -3.212   9.454  17.655  0.00  0.00    +0.000 A 
ATOM     10  C   UNL     1      -1.987   9.451  18.208  0.00  0.00    +0.000 A 
ATOM     11  N   UNL     1      -1.242  10.639  18.325  0.00  0.00    +0.000 N 
BRANCH   4  12
ATOM     12  C   UNL     1       1.471  13.018  19.083  0.00  0.00    +0.000 A 
ATOM     13  C   UNL     1       2.420  13.437  18.143  0.00  0.00    +0.000 A 
ATOM     14  C   UNL     1       3.586  14.092  18.549  0.00  0.00    +0.000 A 
ATOM     15  C   UNL     1       3.787  14.396  19.893  0.00  0.00    +0.000 A 
ATOM     16  C   UNL     1       2.817  14.052  20.832  0.00  0.00    +0.000 A 
ATOM     17  C   UNL     1       1.669  13.363  20.430  0.00  0.00    +0.000 A 
ENDBRANCH   4  12
ENDBRANCH   1   3
BRANCH   1  19
ATOM     18  N   UNL     1       2.080   7.794  19.441  0.00  0.00    +0.000 N 
ATOM     19  C   UNL     1       1.671   8.888  18.684  0.00  0.00    +0.000 C 
ATOM     20  O   UNL     1       1.815   9.091  17.491  0.00  0.00    +0.000 OA
ATOM     21  H   UNL     1       1.857   7.791  20.435  0.00  0.00    +0.000 HD
BRANCH  18  27
ATOM     22  C   UNL     1       2.425   5.370  19.373  0.00  0.00    +0.000 A 
ATOM     23  C   UNL     1       3.145   4.267  18.889  0.00  0.00    +0.000 A 
ATOM     24  C   UNL     1       4.193   4.445  17.977  0.00  0.00    +0.000 A 
ATOM     25  C   UNL     1       4.570   5.722  17.547  0.00  0.00    +0.000 A 
ATOM     26  C   UNL     1       3.875   6.813  18.090  0.00  0.00    +0.000 A 
ATOM     27  C   UNL     1       2.798   6.665  18.972  0.00  0.00    +0.000 A 
BRANCH  25  28
ATOM     28  C   UNL     1       5.675   5.909  16.496  0.00  0.00    +0.000 C 
ATOM     29  C   UNL     1       5.125   6.761  15.333  0.00  0.00    +0.000 C 
ATOM     30  C   UNL     1       6.927   6.634  17.045  0.00  0.00    +0.000 C 
ATOM     31  C   UNL     1       6.132   4.543  15.953  0.00  0.00    +0.000 C 
ENDBRANCH  25  28
BRANCH  22  33
ATOM     32  C   UNL     1       0.931   3.900  20.474  0.00  0.00    +0.000 C 
ATOM     33  O   UNL     1       1.350   5.246  20.224  0.00  0.00    +0.000 OA
ENDBRANCH  22  33
ENDBRANCH  18  27
ENDBRANCH   1  19
TORSDOF 6
ENDMDL
MODEL 5
REMARK VINA RESULT:      -7.3      2.871      7.504
REMARK  Name = 
REMARK  10 active torsions:
REMARK  status: ('A' for Active; 'I' for Inactive)
REMARK    1  A    between atoms: C_1  and  O_2
REMARK    2  A    between atoms: O_2  and  C_3
REMARK    3  A    between atoms: C_6  and  C_7
REMARK    4  A    between atoms: C_7  and  C_8
REMARK    5  A    between atoms: C_7  and  C_9
REMARK    6  A    between atoms: C_7  and  C_10
REMARK    7  A    between atoms: C_12  and  N_13
REMARK    8  A    between atoms: C_14  and  C_16
REMARK    9  A    between atoms: C_16  and  C_18
REMARK   10  A    between atoms: C_19  and  C_20
REMARK                            x       y       z     vdW  Elec       q    Type
REMARK                         _______ _______ _______ _____ _____    ______ ____
ROOT
ATOM      1  C   UNL     1      -6.791  12.919  18.745  0.00  0.00    +0.000 C 
ATOM      2  O   UNL     1      -7.916  12.466  18.532  0.00  0.00    +0.000 OA
ENDROOT
BRANCH   1   3
ATOM      3  C   UNL     1      -6.461  14.336  18.921  0.00  0.00    +0.000 A 
ATOM      4  C   UNL     1      -5.917  14.922  20.082  0.00  0.00    +0.000 A 
ATOM      5  C   UNL     1      -5.860  16.324  19.885  0.00  0.00    +0.000 A 
ATOM      6  C   UNL     1      -6.299  16.586  18.616  0.00  0.00    +0.000 A 
ATOM      7  C   UNL     1      -6.427  17.807  17.889  0.00  0.00    +0.000 A 
ATOM      8  C   UNL     1      -6.889  17.787  16.628  0.00  0.00    +0.000 A 
ATOM      9  C   UNL     1      -7.279  16.544  15.998  0.00  0.00    +0.000 A 
ATOM     10  C   UNL     1      -7.174  15.396  16.690  0.00  0.00    +0.000 A 
ATOM     11  N   UNL     1      -6.667  15.386  18.002  0.00  0.00    +0.000 N 
BRANCH   4  12
ATOM     12  C   UNL     1      -5.522  14.230  21.312  0.00  0.00    +0.000 A 
ATOM     13  C   UNL     1      -6.435  13.962  22.337  0.00  0.00    +0.000 A 
ATOM     14  C   UNL     1      -6.018  13.351  23.524  0.00  0.00    +0.000 A 
ATOM     15  C   UNL     1      -4.696  12.941  23.672  0.00  0.00    +0.000 A 
ATOM     16  C   UNL     1      -3.791  13.133  22.631  0.00  0.00    +0.000 A 
ATOM     17  C   UNL     1      -4.200  13.779  21.460  0.00  0.00    +0.000 A 
ENDBRANCH   4  12
ENDBRANCH   1   3
BRANCH   1  19
ATOM     18  N   UNL     1      -4.499  12.281  18.258  0.00  0.00    +0.000 N 
ATOM     19  C   UNL     1      -5.708  11.858  18.802  0.00  0.00    +0.000 C 
ATOM     20  O   UNL     1      -5.988  10.783  19.304  0.00  0.00    +0.000 OA
ATOM     21  H   UNL     1      -4.446  13.230  17.893  0.00  0.00    +0.000 HD
BRANCH  18  27
ATOM     22  C   UNL     1      -3.061  10.759  16.985  0.00  0.00    +0.000 A 
ATOM     23  C   UNL     1      -1.874  10.016  16.893  0.00  0.00    +0.000 A 
ATOM     24  C   UNL     1      -0.923  10.063  17.919  0.00  0.00    +0.000 A 
ATOM     25  C   UNL     1      -1.138  10.824  19.072  0.00  0.00    +0.000 A 
ATOM     26  C   UNL     1      -2.358  11.511  19.170  0.00  0.00    +0.000 A 
ATOM     27  C   UNL     1      -3.310  11.515  18.145  0.00  0.00    +0.000 A 
BRANCH  25  28
ATOM     28  C   UNL     1      -0.063  10.927  20.165  0.00  0.00    +0.000 C 
ATOM     29  C   UNL     1       0.649   9.565  20.302  0.00  0.00    +0.000 C 
ATOM     30  C   UNL     1       1.024  11.985  19.860  0.00  0.00    +0.000 C 
ATOM     31  C   UNL     1      -0.707  11.300  21.513  0.00  0.00    +0.000 C 
ENDBRANCH  25  28
BRANCH  22  33
ATOM     32  C   UNL     1      -3.559  10.277  14.722  0.00  0.00    +0.000 C 
ATOM     33  O   UNL     1      -4.002  10.794  15.981  0.00  0.00    +0.000 OA
ENDBRANCH  22  33
ENDBRANCH  18  27
ENDBRANCH   1  19
TORSDOF 6
ENDMDL
MODEL 6
REMARK VINA RESULT:      -7.3      3.136      5.782
REMARK  Name = 
REMARK  10 active torsions:
REMARK  status: ('A' for Active; 'I' for Inactive)
REMARK    1  A    between atoms: C_1  and  O_2
REMARK    2  A    between atoms: O_2  and  C_3
REMARK    3  A    between atoms: C_6  and  C_7
REMARK    4  A    between atoms: C_7  and  C_8
REMARK    5  A    between atoms: C_7  and  C_9
REMARK    6  A    between atoms: C_7  and  C_10
REMARK    7  A    between atoms: C_12  and  N_13
REMARK    8  A    between atoms: C_14  and  C_16
REMARK    9  A    between atoms: C_16  and  C_18
REMARK   10  A    between atoms: C_19  and  C_20
REMARK                            x       y       z     vdW  Elec       q    Type
REMARK                         _______ _______ _______ _____ _____    ______ ____
ROOT
ATOM      1  C   UNL     1       0.118   8.873  21.196  0.00  0.00    +0.000 C 
ATOM      2  O   UNL     1      -0.804   8.157  21.588  0.00  0.00    +0.000 OA
ENDROOT
BRANCH   1   3
ATOM      3  C   UNL     1       1.021   8.569  20.082  0.00  0.00    +0.000 A 
ATOM      4  C   UNL     1       1.256   9.388  18.959  0.00  0.00    +0.000 A 
ATOM      5  C   UNL     1       2.097   8.682  18.063  0.00  0.00    +0.000 A 
ATOM      6  C   UNL     1       2.419   7.487  18.647  0.00  0.00    +0.000 A 
ATOM      7  C   UNL     1       3.244   6.409  18.210  0.00  0.00    +0.000 A 
ATOM      8  C   UNL     1       3.401   5.328  18.993  0.00  0.00    +0.000 A 
ATOM      9  C   UNL     1       2.728   5.232  20.271  0.00  0.00    +0.000 A 
ATOM     10  C   UNL     1       1.937   6.241  20.674  0.00  0.00    +0.000 A 
ATOM     11  N   UNL     1       1.778   7.396  19.886  0.00  0.00    +0.000 N 
BRANCH   4  12
ATOM     12  C   UNL     1       0.697  10.720  18.712  0.00  0.00    +0.000 A 
ATOM     13  C   UNL     1       1.489  11.873  18.739  0.00  0.00    +0.000 A 
ATOM     14  C   UNL     1       0.919  13.136  18.556  0.00  0.00    +0.000 A 
ATOM     15  C   UNL     1      -0.440  13.256  18.277  0.00  0.00    +0.000 A 
ATOM     16  C   UNL     1      -1.228  12.113  18.172  0.00  0.00    +0.000 A 
ATOM     17  C   UNL     1      -0.665  10.853  18.393  0.00  0.00    +0.000 A 
ENDBRANCH   4  12
ENDBRANCH   1   3
BRANCH   1  19
ATOM     18  N   UNL     1      -0.648  11.133  21.647  0.00  0.00    +0.000 N 
ATOM     19  C   UNL     1       0.277  10.153  21.994  0.00  0.00    +0.000 C 
ATOM     20  O   UNL     1       1.160  10.196  22.833  0.00  0.00    +0.000 OA
ATOM     21  H   UNL     1      -1.330  10.910  20.924  0.00  0.00    +0.000 HD
BRANCH  18  27
ATOM     22  C   UNL     1      -1.742  12.744  23.134  0.00  0.00    +0.000 A 
ATOM     23  C   UNL     1      -1.808  14.040  23.668  0.00  0.00    +0.000 A 
ATOM     24  C   UNL     1      -0.861  15.007  23.310  0.00  0.00    +0.000 A 
ATOM     25  C   UNL     1       0.157  14.721  22.393  0.00  0.00    +0.000 A 
ATOM     26  C   UNL     1       0.167  13.437  21.827  0.00  0.00    +0.000 A 
ATOM     27  C   UNL     1      -0.741  12.438  22.194  0.00  0.00    +0.000 A 
BRANCH  25  28
ATOM     28  C   UNL     1       1.233  15.763  22.054  0.00  0.00    +0.000 C 
ATOM     29  C   UNL     1       2.589  15.047  21.874  0.00  0.00    +0.000 C 
ATOM     30  C   UNL     1       0.947  16.539  20.746  0.00  0.00    +0.000 C 
ATOM     31  C   UNL     1       1.352  16.796  23.189  0.00  0.00    +0.000 C 
ENDBRANCH  25  28
BRANCH  22  33
ATOM     32  C   UNL     1      -3.821  12.187  24.119  0.00  0.00    +0.000 C 
ATOM     33  O   UNL     1      -2.612  11.741  23.496  0.00  0.00    +0.000 OA
ENDBRANCH  22  33
ENDBRANCH  18  27
ENDBRANCH   1  19
TORSDOF 6
ENDMDL
MODEL 7
REMARK VINA RESULT:      -7.2      3.140      5.728
REMARK  Name = 
REMARK  10 active torsions:
REMARK  status: ('A' for Active; 'I' for Inactive)
REMARK    1  A    between atoms: C_1  and  O_2
REMARK    2  A    between atoms: O_2  and  C_3
REMARK    3  A    between atoms: C_6  and  C_7
REMARK    4  A    between atoms: C_7  and  C_8
REMARK    5  A    between atoms: C_7  and  C_9
REMARK    6  A    between atoms: C_7  and  C_10
REMARK    7  A    between atoms: C_12  and  N_13
REMARK    8  A    between atoms: C_14  and  C_16
REMARK    9  A    between atoms: C_16  and  C_18
REMARK   10  A    between atoms: C_19  and  C_20
REMARK                            x       y       z     vdW  Elec       q    Type
REMARK                         _______ _______ _______ _____ _____    ______ ____
ROOT
ATOM      1  C   UNL     1       0.103   8.861  21.188  0.00  0.00    +0.000 C 
ATOM      2  O   UNL     1      -0.818   8.137  21.570  0.00  0.00    +0.000 OA
ENDROOT
BRANCH   1   3
ATOM      3  C   UNL     1       1.008   8.573  20.071  0.00  0.00    +0.000 A 
ATOM      4  C   UNL     1       1.229   9.399  18.950  0.00  0.00    +0.000 A 
ATOM      5  C   UNL     1       2.078   8.708  18.051  0.00  0.00    +0.000 A 
ATOM      6  C   UNL     1       2.418   7.516  18.630  0.00  0.00    +0.000 A 
ATOM      7  C   UNL     1       3.257   6.452  18.187  0.00  0.00    +0.000 A 
ATOM      8  C   UNL     1       3.431   5.370  18.966  0.00  0.00    +0.000 A 
ATOM      9  C   UNL     1       2.763   5.260  20.245  0.00  0.00    +0.000 A 
ATOM     10  C   UNL     1       1.958   6.257  20.653  0.00  0.00    +0.000 A 
ATOM     11  N   UNL     1       1.781   7.412  19.869  0.00  0.00    +0.000 N 
BRANCH   4  12
ATOM     12  C   UNL     1       0.651  10.724  18.709  0.00  0.00    +0.000 A 
ATOM     13  C   UNL     1      -0.710  10.901  18.437  0.00  0.00    +0.000 A 
ATOM     14  C   UNL     1      -1.224  12.170  18.154  0.00  0.00    +0.000 A 
ATOM     15  C   UNL     1      -0.395  13.287  18.206  0.00  0.00    +0.000 A 
ATOM     16  C   UNL     1       0.947  13.138  18.548  0.00  0.00    +0.000 A 
ATOM     17  C   UNL     1       1.468  11.864  18.793  0.00  0.00    +0.000 A 
ENDBRANCH   4  12
ENDBRANCH   1   3
BRANCH   1  19
ATOM     18  N   UNL     1      -0.647  11.125  21.644  0.00  0.00    +0.000 N 
ATOM     19  C   UNL     1       0.258  10.131  22.003  0.00  0.00    +0.000 C 
ATOM     20  O   UNL     1       1.122  10.155  22.863  0.00  0.00    +0.000 OA
ATOM     21  H   UNL     1      -1.315  10.918  20.903  0.00  0.00    +0.000 HD
BRANCH  18  27
ATOM     22  C   UNL     1      -1.733  12.724  23.150  0.00  0.00    +0.000 A 
ATOM     23  C   UNL     1      -1.797  14.015  23.695  0.00  0.00    +0.000 A 
ATOM     24  C   UNL     1      -0.852  14.986  23.339  0.00  0.00    +0.000 A 
ATOM     25  C   UNL     1       0.159  14.708  22.414  0.00  0.00    +0.000 A 
ATOM     26  C   UNL     1       0.167  13.429  21.838  0.00  0.00    +0.000 A 
ATOM     27  C   UNL     1      -0.738  12.426  22.202  0.00  0.00    +0.000 A 
BRANCH  25  28
ATOM     28  C   UNL     1       1.233  15.753  22.077  0.00  0.00    +0.000 C 
ATOM     29  C   UNL     1       0.828  16.495  20.786  0.00  0.00    +0.000 C 
ATOM     30  C   UNL     1       1.419  16.821  23.182  0.00  0.00    +0.000 C 
ATOM     31  C   UNL     1       2.596  15.068  21.862  0.00  0.00    +0.000 C 
ENDBRANCH  25  28
BRANCH  22  33
ATOM     32  C   UNL     1      -3.823  12.159  24.109  0.00  0.00    +0.000 C 
ATOM     33  O   UNL     1      -2.600  11.717  23.509  0.00  0.00    +0.000 OA
ENDBRANCH  22  33
ENDBRANCH  18  27
ENDBRANCH   1  19
TORSDOF 6
ENDMDL
MODEL 8
REMARK VINA RESULT:      -7.2      2.854      7.643
REMARK  Name = 
REMARK  10 active torsions:
REMARK  status: ('A' for Active; 'I' for Inactive)
REMARK    1  A    between atoms: C_1  and  O_2
REMARK    2  A    between atoms: O_2  and  C_3
REMARK    3  A    between atoms: C_6  and  C_7
REMARK    4  A    between atoms: C_7  and  C_8
REMARK    5  A    between atoms: C_7  and  C_9
REMARK    6  A    between atoms: C_7  and  C_10
REMARK    7  A    between atoms: C_12  and  N_13
REMARK    8  A    between atoms: C_14  and  C_16
REMARK    9  A    between atoms: C_16  and  C_18
REMARK   10  A    between atoms: C_19  and  C_20
REMARK                            x       y       z     vdW  Elec       q    Type
REMARK                         _______ _______ _______ _____ _____    ______ ____
ROOT
ATOM      1  C   UNL     1       1.775  10.372  17.999  0.00  0.00    +0.000 C 
ATOM      2  O   UNL     1       2.674  10.755  17.250  0.00  0.00    +0.000 OA
ENDROOT
BRANCH   1   3
ATOM      3  C   UNL     1       0.590  11.149  18.378  0.00  0.00    +0.000 A 
ATOM      4  C   UNL     1       0.591  12.368  19.087  0.00  0.00    +0.000 A 
ATOM      5  C   UNL     1      -0.754  12.726  19.353  0.00  0.00    +0.000 A 
ATOM      6  C   UNL     1      -1.560  11.786  18.771  0.00  0.00    +0.000 A 
ATOM      7  C   UNL     1      -2.979  11.664  18.703  0.00  0.00    +0.000 A 
ATOM      8  C   UNL     1      -3.529  10.625  18.052  0.00  0.00    +0.000 A 
ATOM      9  C   UNL     1      -2.701   9.613  17.431  0.00  0.00    +0.000 A 
ATOM     10  C   UNL     1      -1.363   9.720  17.511  0.00  0.00    +0.000 A 
ATOM     11  N   UNL     1      -0.762  10.813  18.163  0.00  0.00    +0.000 N 
BRANCH   4  12
ATOM     12  C   UNL     1       1.765  13.125  19.530  0.00  0.00    +0.000 A 
ATOM     13  C   UNL     1       2.168  13.150  20.870  0.00  0.00    +0.000 A 
ATOM     14  C   UNL     1       3.258  13.927  21.273  0.00  0.00    +0.000 A 
ATOM     15  C   UNL     1       4.000  14.635  20.331  0.00  0.00    +0.000 A 
ATOM     16  C   UNL     1       3.657  14.560  18.983  0.00  0.00    +0.000 A 
ATOM     17  C   UNL     1       2.544  13.814  18.586  0.00  0.00    +0.000 A 
ENDBRANCH   4  12
ENDBRANCH   1   3
BRANCH   1  19
ATOM     18  N   UNL     1       2.820   8.195  17.744  0.00  0.00    +0.000 N 
ATOM     19  C   UNL     1       1.990   8.973  18.545  0.00  0.00    +0.000 C 
ATOM     20  O   UNL     1       1.443   8.680  19.594  0.00  0.00    +0.000 OA
ATOM     21  H   UNL     1       3.203   8.618  16.900  0.00  0.00    +0.000 HD
BRANCH  18  27
ATOM     22  C   UNL     1       4.467   6.387  17.602  0.00  0.00    +0.000 A 
ATOM     23  C   UNL     1       4.814   5.049  17.847  0.00  0.00    +0.000 A 
ATOM     24  C   UNL     1       3.920   4.189  18.497  0.00  0.00    +0.000 A 
ATOM     25  C   UNL     1       2.652   4.627  18.894  0.00  0.00    +0.000 A 
ATOM     26  C   UNL     1       2.305   5.951  18.586  0.00  0.00    +0.000 A 
ATOM     27  C   UNL     1       3.190   6.845  17.973  0.00  0.00    +0.000 A 
BRANCH  25  28
ATOM     28  C   UNL     1       1.701   3.701  19.667  0.00  0.00    +0.000 C 
ATOM     29  C   UNL     1       0.717   4.561  20.488  0.00  0.00    +0.000 C 
ATOM     30  C   UNL     1       0.856   2.785  18.750  0.00  0.00    +0.000 C 
ATOM     31  C   UNL     1       2.499   2.793  20.621  0.00  0.00    +0.000 C 
ENDBRANCH  25  28
BRANCH  22  33
ATOM     32  C   UNL     1       6.708   7.108  17.357  0.00  0.00    +0.000 C 
ATOM     33  O   UNL     1       5.329   7.288  17.019  0.00  0.00    +0.000 OA
ENDBRANCH  22  33
ENDBRANCH  18  27
ENDBRANCH   1  19
TORSDOF 6
ENDMDL
MODEL 9
REMARK VINA RESULT:      -7.2      2.804      8.246
REMARK  Name = 
REMARK  10 active torsions:
REMARK  status: ('A' for Active; 'I' for Inactive)
REMARK    1  A    between atoms: C_1  and  O_2
REMARK    2  A    between atoms: O_2  and  C_3
REMARK    3  A    between atoms: C_6  and  C_7
REMARK    4  A    between atoms: C_7  and  C_8
REMARK    5  A    between atoms: C_7  and  C_9
REMARK    6  A    between atoms: C_7  and  C_10
REMARK    7  A    between atoms: C_12  and  N_13
REMARK    8  A    between atoms: C_14  and  C_16
REMARK    9  A    between atoms: C_16  and  C_18
REMARK   10  A    between atoms: C_19  and  C_20
REMARK                            x       y       z     vdW  Elec       q    Type
REMARK                         _______ _______ _______ _____ _____    ______ ____
ROOT
ATOM      1  C   UNL     1       0.583  10.082  19.781  0.00  0.00    +0.000 C 
ATOM      2  O   UNL     1       0.067   9.558  20.769  0.00  0.00    +0.000 OA
ENDROOT
BRANCH   1   3
ATOM      3  C   UNL     1       0.406  11.476  19.364  0.00  0.00    +0.000 A 
ATOM      4  C   UNL     1      -0.628  11.971  18.543  0.00  0.00    +0.000 A 
ATOM      5  C   UNL     1      -0.371  13.340  18.283  0.00  0.00    +0.000 A 
ATOM      6  C   UNL     1       0.756  13.692  18.974  0.00  0.00    +0.000 A 
ATOM      7  C   UNL     1       1.446  14.934  19.094  0.00  0.00    +0.000 A 
ATOM      8  C   UNL     1       2.550  15.014  19.856  0.00  0.00    +0.000 A 
ATOM      9  C   UNL     1       3.062  13.850  20.547  0.00  0.00    +0.000 A 
ATOM     10  C   UNL     1       2.421  12.675  20.419  0.00  0.00    +0.000 A 
ATOM     11  N   UNL     1       1.248  12.571  19.649  0.00  0.00    +0.000 N 
BRANCH   4  12
ATOM     12  C   UNL     1      -1.754  11.209  17.996  0.00  0.00    +0.000 A 
ATOM     13  C   UNL     1      -1.572  10.180  17.067  0.00  0.00    +0.000 A 
ATOM     14  C   UNL     1      -2.669   9.509  16.519  0.00  0.00    +0.000 A 
ATOM     15  C   UNL     1      -3.959   9.813  16.945  0.00  0.00    +0.000 A 
ATOM     16  C   UNL     1      -4.153  10.784  17.925  0.00  0.00    +0.000 A 
ATOM     17  C   UNL     1      -3.058  11.481  18.443  0.00  0.00    +0.000 A 
ENDBRANCH   4  12
ENDBRANCH   1   3
BRANCH   1  19
ATOM     18  N   UNL     1       1.768   7.966  19.655  0.00  0.00    +0.000 N 
ATOM     19  C   UNL     1       1.451   9.136  18.972  0.00  0.00    +0.000 C 
ATOM     20  O   UNL     1       1.768   9.476  17.845  0.00  0.00    +0.000 OA
ATOM     21  H   UNL     1       1.397   7.847  20.597  0.00  0.00    +0.000 HD
BRANCH  18  27
ATOM     22  C   UNL     1       2.310   5.578  19.566  0.00  0.00    +0.000 A 
ATOM     23  C   UNL     1       3.118   4.543  19.073  0.00  0.00    +0.000 A 
ATOM     24  C   UNL     1       4.151   4.815  18.167  0.00  0.00    +0.000 A 
ATOM     25  C   UNL     1       4.423   6.122  17.750  0.00  0.00    +0.000 A 
ATOM     26  C   UNL     1       3.641   7.147  18.302  0.00  0.00    +0.000 A 
ATOM     27  C   UNL     1       2.577   6.903  19.178  0.00  0.00    +0.000 A 
BRANCH  25  28
ATOM     28  C   UNL     1       5.512   6.409  16.705  0.00  0.00    +0.000 C 
ATOM     29  C   UNL     1       4.864   7.069  15.470  0.00  0.00    +0.000 C 
ATOM     30  C   UNL     1       6.614   7.369  17.214  0.00  0.00    +0.000 C 
ATOM     31  C   UNL     1       6.200   5.099  16.278  0.00  0.00    +0.000 C 
ENDBRANCH  25  28
BRANCH  22  33
ATOM     32  C   UNL     1       0.992   3.983  20.717  0.00  0.00    +0.000 C 
ATOM     33  O   UNL     1       1.246   5.359  20.412  0.00  0.00    +0.000 OA
ENDBRANCH  22  33
ENDBRANCH  18  27
ENDBRANCH   1  19
TORSDOF 6
ENDMDL
