MODEL 1
REMARK VINA RESULT:      -7.6      0.000      0.000
REMARK  Name = 
REMARK  4 active torsions:
REMARK  status: ('A' for Active; 'I' for Inactive)
REMARK    1  A    between atoms: N_1  and  N_2
REMARK    2  A    between atoms: C_3  and  C_4
REMARK    3  A    between atoms: C_4  and  O_5
REMARK    4  A    between atoms: O_5  and  C_6
REMARK                            x       y       z     vdW  Elec       q    Type
REMARK                         _______ _______ _______ _____ _____    ______ ____
ROOT
ATOM      1  N   UNL     1       1.424   9.070  19.088  0.00  0.00    +0.000 N 
ATOM      2  C   UNL     1       1.678   8.148  20.079  0.00  0.00    +0.000 A 
ATOM      3  N   UNL     1       1.134   8.212  21.253  0.00  0.00    +0.000 NA
ATOM      4  C   UNL     1       0.300   9.295  21.555  0.00  0.00    +0.000 A 
ATOM      5  C   UNL     1      -0.114   9.434  22.883  0.00  0.00    +0.000 A 
ATOM      6  C   UNL     1      -0.915  10.504  23.271  0.00  0.00    +0.000 A 
ATOM      7  C   UNL     1      -1.340  11.423  22.318  0.00  0.00    +0.000 A 
ATOM      8  C   UNL     1      -0.960  11.283  20.977  0.00  0.00    +0.000 A 
ATOM      9 CL   UNL     1      -1.578  12.475  19.889  0.00  0.00    +0.000 Cl
ATOM     10  C   UNL     1      -0.117  10.230  20.597  0.00  0.00    +0.000 A 
ATOM     11  C   UNL     1       0.433  10.053  19.232  0.00  0.00    +0.000 A 
ATOM     12  O   UNL     1       0.036  10.704  18.263  0.00  0.00    +0.000 OA
ENDROOT
BRANCH   1  13
ATOM     13  N   UNL     1       2.122   9.054  17.844  0.00  0.00    +0.000 N 
ATOM     14  H   UNL     1       3.126   9.098  18.007  0.00  0.00    +0.000 HD
ATOM     15  H   UNL     1       1.969   8.114  17.453  0.00  0.00    +0.000 HD
ENDBRANCH   1  13
BRANCH   2  16
ATOM     16  C   UNL     1       2.555   6.940  19.768  0.00  0.00    +0.000 C 
BRANCH  16  17
ATOM     17  O   UNL     1       2.120   6.208  18.632  0.00  0.00    +0.000 OA
BRANCH  17  18
ATOM     18  C   UNL     1       3.119   5.643  17.875  0.00  0.00    +0.000 A 
ATOM     19  C   UNL     1       4.193   6.374  17.342  0.00  0.00    +0.000 A 
ATOM     20  C   UNL     1       5.155   5.758  16.546  0.00  0.00    +0.000 A 
ATOM     21  C   UNL     1       5.063   4.400  16.269  0.00  0.00    +0.000 A 
ATOM     22 CL   UNL     1       6.253   3.663  15.272  0.00  0.00    +0.000 Cl
ATOM     23  C   UNL     1       4.011   3.651  16.783  0.00  0.00    +0.000 A 
ATOM     24  C   UNL     1       3.036   4.276  17.574  0.00  0.00    +0.000 A 
ATOM     25 CL   UNL     1       1.743   3.294  18.173  0.00  0.00    +0.000 Cl
ENDBRANCH  17  18
ENDBRANCH  16  17
ENDBRANCH   2  16
TORSDOF 4
ENDMDL
MODEL 2
REMARK VINA RESULT:      -7.4      1.236      1.283
REMARK  Name = 
REMARK  4 active torsions:
REMARK  status: ('A' for Active; 'I' for Inactive)
REMARK    1  A    between atoms: N_1  and  N_2
REMARK    2  A    between atoms: C_3  and  C_4
REMARK    3  A    between atoms: C_4  and  O_5
REMARK    4  A    between atoms: O_5  and  C_6
REMARK                            x       y       z     vdW  Elec       q    Type
REMARK                         _______ _______ _______ _____ _____    ______ ____
ROOT
ATOM      1  N   UNL     1       1.471  10.750  18.748  0.00  0.00    +0.000 N 
ATOM      2  C   UNL     1       1.530   9.407  19.044  0.00  0.00    +0.000 A 
ATOM      3  N   UNL     1       0.959   8.892  20.088  0.00  0.00    +0.000 NA
ATOM      4  C   UNL     1       0.307   9.741  20.989  0.00  0.00    +0.000 A 
ATOM      5  C   UNL     1      -0.130   9.181  22.194  0.00  0.00    +0.000 A 
ATOM      6  C   UNL     1      -0.756   9.966  23.158  0.00  0.00    +0.000 A 
ATOM      7  C   UNL     1      -0.986  11.314  22.902  0.00  0.00    +0.000 A 
ATOM      8  C   UNL     1      -0.582  11.885  21.688  0.00  0.00    +0.000 A 
ATOM      9 CL   UNL     1      -0.951  13.560  21.483  0.00  0.00    +0.000 Cl
ATOM     10  C   UNL     1       0.088  11.102  20.738  0.00  0.00    +0.000 A 
ATOM     11  C   UNL     1       0.653  11.630  19.473  0.00  0.00    +0.000 A 
ATOM     12  O   UNL     1       0.408  12.763  19.053  0.00  0.00    +0.000 OA
ENDROOT
BRANCH   1  13
ATOM     13  N   UNL     1       2.205  11.317  17.664  0.00  0.00    +0.000 N 
ATOM     14  H   UNL     1       1.567  11.734  16.990  0.00  0.00    +0.000 HD
ATOM     15  H   UNL     1       2.713  12.120  18.062  0.00  0.00    +0.000 HD
ENDBRANCH   1  13
BRANCH   2  16
ATOM     16  C   UNL     1       2.206   8.454  18.064  0.00  0.00    +0.000 C 
BRANCH  16  17
ATOM     17  O   UNL     1       2.486   7.180  18.623  0.00  0.00    +0.000 OA
BRANCH  17  18
ATOM     18  C   UNL     1       3.349   6.393  17.897  0.00  0.00    +0.000 A 
ATOM     19  C   UNL     1       4.466   6.897  17.213  0.00  0.00    +0.000 A 
ATOM     20  C   UNL     1       5.283   6.060  16.458  0.00  0.00    +0.000 A 
ATOM     21  C   UNL     1       5.000   4.702  16.375  0.00  0.00    +0.000 A 
ATOM     22 CL   UNL     1       6.013   3.688  15.425  0.00  0.00    +0.000 Cl
ATOM     23  C   UNL     1       3.901   4.174  17.042  0.00  0.00    +0.000 A 
ATOM     24  C   UNL     1       3.073   5.022  17.792  0.00  0.00    +0.000 A 
ATOM     25 CL   UNL     1       1.712   4.309  18.589  0.00  0.00    +0.000 Cl
ENDBRANCH  17  18
ENDBRANCH  16  17
ENDBRANCH   2  16
TORSDOF 4
ENDMDL
MODEL 3
REMARK VINA RESULT:      -7.4      1.965      7.897
REMARK  Name = 
REMARK  4 active torsions:
REMARK  status: ('A' for Active; 'I' for Inactive)
REMARK    1  A    between atoms: N_1  and  N_2
REMARK    2  A    between atoms: C_3  and  C_4
REMARK    3  A    between atoms: C_4  and  O_5
REMARK    4  A    between atoms: O_5  and  C_6
REMARK                            x       y       z     vdW  Elec       q    Type
REMARK                         _______ _______ _______ _____ _____    ______ ____
ROOT
ATOM      1  N   UNL     1       2.438   7.214  18.931  0.00  0.00    +0.000 N 
ATOM      2  C   UNL     1       1.820   7.216  20.161  0.00  0.00    +0.000 A 
ATOM      3  N   UNL     1       1.547   6.128  20.811  0.00  0.00    +0.000 NA
ATOM      4  C   UNL     1       1.833   4.894  20.216  0.00  0.00    +0.000 A 
ATOM      5  C   UNL     1       1.354   3.747  20.857  0.00  0.00    +0.000 A 
ATOM      6  C   UNL     1       1.566   2.484  20.310  0.00  0.00    +0.000 A 
ATOM      7  C   UNL     1       2.299   2.361  19.134  0.00  0.00    +0.000 A 
ATOM      8  C   UNL     1       2.812   3.496  18.495  0.00  0.00    +0.000 A 
ATOM      9 CL   UNL     1       3.727   3.204  17.058  0.00  0.00    +0.000 Cl
ATOM     10  C   UNL     1       2.559   4.770  19.023  0.00  0.00    +0.000 A 
ATOM     11  C   UNL     1       2.959   6.038  18.369  0.00  0.00    +0.000 A 
ATOM     12  O   UNL     1       3.726   6.079  17.404  0.00  0.00    +0.000 OA
ENDROOT
BRANCH   1  13
ATOM     13  N   UNL     1       2.622   8.411  18.177  0.00  0.00    +0.000 N 
ATOM     14  H   UNL     1       1.728   8.873  18.032  0.00  0.00    +0.000 HD
ATOM     15  H   UNL     1       3.142   9.050  18.793  0.00  0.00    +0.000 HD
ENDBRANCH   1  13
BRANCH   2  16
ATOM     16  C   UNL     1       1.526   8.545  20.848  0.00  0.00    +0.000 C 
BRANCH  16  17
ATOM     17  O   UNL     1       0.520   9.304  20.194  0.00  0.00    +0.000 OA
BRANCH  17  18
ATOM     18  C   UNL     1      -0.209  10.142  21.005  0.00  0.00    +0.000 A 
ATOM     19  C   UNL     1      -0.381   9.930  22.382  0.00  0.00    +0.000 A 
ATOM     20  C   UNL     1      -1.165  10.788  23.148  0.00  0.00    +0.000 A 
ATOM     21  C   UNL     1      -1.790  11.876  22.552  0.00  0.00    +0.000 A 
ATOM     22 CL   UNL     1      -2.766  12.915  23.513  0.00  0.00    +0.000 Cl
ATOM     23  C   UNL     1      -1.639  12.112  21.190  0.00  0.00    +0.000 A 
ATOM     24  C   UNL     1      -0.858  11.238  20.419  0.00  0.00    +0.000 A 
ATOM     25 CL   UNL     1      -0.718  11.575  18.727  0.00  0.00    +0.000 Cl
ENDBRANCH  17  18
ENDBRANCH  16  17
ENDBRANCH   2  16
TORSDOF 4
ENDMDL
MODEL 4
REMARK VINA RESULT:      -7.4      1.619      2.378
REMARK  Name = 
REMARK  4 active torsions:
REMARK  status: ('A' for Active; 'I' for Inactive)
REMARK    1  A    between atoms: N_1  and  N_2
REMARK    2  A    between atoms: C_3  and  C_4
REMARK    3  A    between atoms: C_4  and  O_5
REMARK    4  A    between atoms: O_5  and  C_6
REMARK                            x       y       z     vdW  Elec       q    Type
REMARK                         _______ _______ _______ _____ _____    ______ ____
ROOT
ATOM      1  N   UNL     1       1.210   9.017  20.603  0.00  0.00    +0.000 N 
ATOM      2  C   UNL     1       1.256   9.202  19.239  0.00  0.00    +0.000 A 
ATOM      3  N   UNL     1       0.539  10.092  18.627  0.00  0.00    +0.000 NA
ATOM      4  C   UNL     1      -0.367  10.857  19.369  0.00  0.00    +0.000 A 
ATOM      5  C   UNL     1      -1.256  11.668  18.656  0.00  0.00    +0.000 A 
ATOM      6  C   UNL     1      -2.212  12.433  19.319  0.00  0.00    +0.000 A 
ATOM      7  C   UNL     1      -2.256  12.421  20.709  0.00  0.00    +0.000 A 
ATOM      8  C   UNL     1      -1.354  11.639  21.441  0.00  0.00    +0.000 A 
ATOM      9 CL   UNL     1      -1.495  11.734  23.161  0.00  0.00    +0.000 Cl
ATOM     10  C   UNL     1      -0.422  10.835  20.770  0.00  0.00    +0.000 A 
ATOM     11  C   UNL     1       0.501   9.889  21.442  0.00  0.00    +0.000 A 
ATOM     12  O   UNL     1       0.668   9.874  22.664  0.00  0.00    +0.000 OA
ENDROOT
BRANCH   1  13
ATOM     13  N   UNL     1       1.914   7.955  21.244  0.00  0.00    +0.000 N 
ATOM     14  H   UNL     1       2.915   8.061  21.098  0.00  0.00    +0.000 HD
ATOM     15  H   UNL     1       1.787   8.108  22.255  0.00  0.00    +0.000 HD
ENDBRANCH   1  13
BRANCH   2  16
ATOM     16  C   UNL     1       2.257   8.406  18.409  0.00  0.00    +0.000 C 
BRANCH  16  17
ATOM     17  O   UNL     1       2.179   7.005  18.629  0.00  0.00    +0.000 OA
BRANCH  17  18
ATOM     18  C   UNL     1       3.103   6.248  17.947  0.00  0.00    +0.000 A 
ATOM     19  C   UNL     1       4.249   6.786  17.341  0.00  0.00    +0.000 A 
ATOM     20  C   UNL     1       5.129   5.978  16.627  0.00  0.00    +0.000 A 
ATOM     21  C   UNL     1       4.881   4.617  16.506  0.00  0.00    +0.000 A 
ATOM     22 CL   UNL     1       5.974   3.640  15.607  0.00  0.00    +0.000 Cl
ATOM     23  C   UNL     1       3.755   4.055  17.096  0.00  0.00    +0.000 A 
ATOM     24  C   UNL     1       2.863   4.873  17.804  0.00  0.00    +0.000 A 
ATOM     25 CL   UNL     1       1.471   4.120  18.503  0.00  0.00    +0.000 Cl
ENDBRANCH  17  18
ENDBRANCH  16  17
ENDBRANCH   2  16
TORSDOF 4
ENDMDL
MODEL 5
REMARK VINA RESULT:      -7.3      1.601      2.321
REMARK  Name = 
REMARK  4 active torsions:
REMARK  status: ('A' for Active; 'I' for Inactive)
REMARK    1  A    between atoms: N_1  and  N_2
REMARK    2  A    between atoms: C_3  and  C_4
REMARK    3  A    between atoms: C_4  and  O_5
REMARK    4  A    between atoms: O_5  and  C_6
REMARK                            x       y       z     vdW  Elec       q    Type
REMARK                         _______ _______ _______ _____ _____    ______ ____
ROOT
ATOM      1  N   UNL     1       1.485  10.789  18.704  0.00  0.00    +0.000 N 
ATOM      2  C   UNL     1       1.498   9.419  18.849  0.00  0.00    +0.000 A 
ATOM      3  N   UNL     1       0.937   8.813  19.848  0.00  0.00    +0.000 NA
ATOM      4  C   UNL     1       0.347   9.580  20.858  0.00  0.00    +0.000 A 
ATOM      5  C   UNL     1      -0.077   8.906  22.009  0.00  0.00    +0.000 A 
ATOM      6  C   UNL     1      -0.642   9.602  23.074  0.00  0.00    +0.000 A 
ATOM      7  C   UNL     1      -0.824  10.978  22.976  0.00  0.00    +0.000 A 
ATOM      8  C   UNL     1      -0.434  11.664  21.819  0.00  0.00    +0.000 A 
ATOM      9 CL   UNL     1      -0.740  13.365  21.812  0.00  0.00    +0.000 Cl
ATOM     10  C   UNL     1       0.176  10.968  20.766  0.00  0.00    +0.000 A 
ATOM     11  C   UNL     1       0.725  11.612  19.549  0.00  0.00    +0.000 A 
ATOM     12  O   UNL     1       0.514  12.793  19.265  0.00  0.00    +0.000 OA
ENDROOT
BRANCH   1  13
ATOM     13  N   UNL     1       2.209  11.445  17.665  0.00  0.00    +0.000 N 
ATOM     14  H   UNL     1       2.319  12.432  17.885  0.00  0.00    +0.000 HD
ATOM     15  H   UNL     1       3.165  11.066  17.711  0.00  0.00    +0.000 HD
ENDBRANCH   1  13
BRANCH   2  16
ATOM     16  C   UNL     1       2.105   8.557  17.747  0.00  0.00    +0.000 C 
BRANCH  16  17
ATOM     17  O   UNL     1       3.259   7.844  18.165  0.00  0.00    +0.000 OA
BRANCH  17  18
ATOM     18  C   UNL     1       3.173   6.475  18.074  0.00  0.00    +0.000 A 
ATOM     19  C   UNL     1       2.236   5.710  18.786  0.00  0.00    +0.000 A 
ATOM     20  C   UNL     1       2.220   4.321  18.689  0.00  0.00    +0.000 A 
ATOM     21  C   UNL     1       3.140   3.671  17.876  0.00  0.00    +0.000 A 
ATOM     22 CL   UNL     1       3.114   1.954  17.781  0.00  0.00    +0.000 Cl
ATOM     23  C   UNL     1       4.081   4.402  17.159  0.00  0.00    +0.000 A 
ATOM     24  C   UNL     1       4.102   5.800  17.268  0.00  0.00    +0.000 A 
ATOM     25 CL   UNL     1       5.304   6.654  16.364  0.00  0.00    +0.000 Cl
ENDBRANCH  17  18
ENDBRANCH  16  17
ENDBRANCH   2  16
TORSDOF 4
ENDMDL
MODEL 6
REMARK VINA RESULT:      -7.2      1.248      1.963
REMARK  Name = 
REMARK  4 active torsions:
REMARK  status: ('A' for Active; 'I' for Inactive)
REMARK    1  A    between atoms: N_1  and  N_2
REMARK    2  A    between atoms: C_3  and  C_4
REMARK    3  A    between atoms: C_4  and  O_5
REMARK    4  A    between atoms: O_5  and  C_6
REMARK                            x       y       z     vdW  Elec       q    Type
REMARK                         _______ _______ _______ _____ _____    ______ ____
ROOT
ATOM      1  N   UNL     1       1.213   9.485  18.907  0.00  0.00    +0.000 N 
ATOM      2  C   UNL     1       1.567   8.549  19.853  0.00  0.00    +0.000 A 
ATOM      3  N   UNL     1       1.070   8.538  21.050  0.00  0.00    +0.000 NA
ATOM      4  C   UNL     1       0.183   9.554  21.424  0.00  0.00    +0.000 A 
ATOM      5  C   UNL     1      -0.183   9.621  22.772  0.00  0.00    +0.000 A 
ATOM      6  C   UNL     1      -1.033  10.624  23.230  0.00  0.00    +0.000 A 
ATOM      7  C   UNL     1      -1.555  11.545  22.329  0.00  0.00    +0.000 A 
ATOM      8  C   UNL     1      -1.224  11.475  20.970  0.00  0.00    +0.000 A 
ATOM      9 CL   UNL     1      -1.961  12.660  19.951  0.00  0.00    +0.000 Cl
ATOM     10  C   UNL     1      -0.332  10.492  20.518  0.00  0.00    +0.000 A 
ATOM     11  C   UNL     1       0.169  10.397  19.127  0.00  0.00    +0.000 A 
ATOM     12  O   UNL     1      -0.308  11.053  18.199  0.00  0.00    +0.000 OA
ENDROOT
BRANCH   1  13
ATOM     13  N   UNL     1       1.858   9.556  17.637  0.00  0.00    +0.000 N 
ATOM     14  H   UNL     1       2.440  10.389  17.587  0.00  0.00    +0.000 HD
ATOM     15  H   UNL     1       2.530   8.775  17.623  0.00  0.00    +0.000 HD
ENDBRANCH   1  13
BRANCH   2  16
ATOM     16  C   UNL     1       2.505   7.411  19.464  0.00  0.00    +0.000 C 
BRANCH  16  17
ATOM     17  O   UNL     1       2.085   6.710  18.303  0.00  0.00    +0.000 OA
BRANCH  17  18
ATOM     18  C   UNL     1       2.432   5.380  18.258  0.00  0.00    +0.000 A 
ATOM     19  C   UNL     1       1.698   4.367  18.894  0.00  0.00    +0.000 A 
ATOM     20  C   UNL     1       2.119   3.041  18.850  0.00  0.00    +0.000 A 
ATOM     21  C   UNL     1       3.281   2.702  18.168  0.00  0.00    +0.000 A 
ATOM     22 CL   UNL     1       3.791   1.060  18.139  0.00  0.00    +0.000 Cl
ATOM     23  C   UNL     1       4.029   3.684  17.528  0.00  0.00    +0.000 A 
ATOM     24  C   UNL     1       3.609   5.021  17.584  0.00  0.00    +0.000 A 
ATOM     25 CL   UNL     1       4.588   6.200  16.782  0.00  0.00    +0.000 Cl
ENDBRANCH  17  18
ENDBRANCH  16  17
ENDBRANCH   2  16
TORSDOF 4
ENDMDL
MODEL 7
REMARK VINA RESULT:      -7.1      2.046      7.932
REMARK  Name = 
REMARK  4 active torsions:
REMARK  status: ('A' for Active; 'I' for Inactive)
REMARK    1  A    between atoms: N_1  and  N_2
REMARK    2  A    between atoms: C_3  and  C_4
REMARK    3  A    between atoms: C_4  and  O_5
REMARK    4  A    between atoms: O_5  and  C_6
REMARK                            x       y       z     vdW  Elec       q    Type
REMARK                         _______ _______ _______ _____ _____    ______ ____
ROOT
ATOM      1  N   UNL     1       2.328   7.446  19.491  0.00  0.00    +0.000 N 
ATOM      2  C   UNL     1       2.526   8.236  18.381  0.00  0.00    +0.000 A 
ATOM      3  N   UNL     1       3.249   7.861  17.372  0.00  0.00    +0.000 NA
ATOM      4  C   UNL     1       3.910   6.629  17.435  0.00  0.00    +0.000 A 
ATOM      5  C   UNL     1       4.828   6.343  16.420  0.00  0.00    +0.000 A 
ATOM      6  C   UNL     1       5.552   5.154  16.429  0.00  0.00    +0.000 A 
ATOM      7  C   UNL     1       5.330   4.223  17.438  0.00  0.00    +0.000 A 
ATOM      8  C   UNL     1       4.391   4.479  18.446  0.00  0.00    +0.000 A 
ATOM      9 CL   UNL     1       4.189   3.231  19.623  0.00  0.00    +0.000 Cl
ATOM     10  C   UNL     1       3.696   5.697  18.460  0.00  0.00    +0.000 A 
ATOM     11  C   UNL     1       2.767   6.114  19.536  0.00  0.00    +0.000 A 
ATOM     12  O   UNL     1       2.371   5.342  20.413  0.00  0.00    +0.000 OA
ENDROOT
BRANCH   1  13
ATOM     13  N   UNL     1       1.630   7.921  20.641  0.00  0.00    +0.000 N 
ATOM     14  H   UNL     1       0.660   8.115  20.406  0.00  0.00    +0.000 HD
ATOM     15  H   UNL     1       1.580   7.119  21.286  0.00  0.00    +0.000 HD
ENDBRANCH   1  13
BRANCH   2  16
ATOM     16  C   UNL     1       1.792   9.568  18.271  0.00  0.00    +0.000 C 
BRANCH  16  17
ATOM     17  O   UNL     1       0.410   9.425  17.978  0.00  0.00    +0.000 OA
BRANCH  17  18
ATOM     18  C   UNL     1      -0.420  10.339  18.582  0.00  0.00    +0.000 A 
ATOM     19  C   UNL     1      -0.102  11.000  19.779  0.00  0.00    +0.000 A 
ATOM     20  C   UNL     1      -0.999  11.886  20.369  0.00  0.00    +0.000 A 
ATOM     21  C   UNL     1      -2.230  12.129  19.773  0.00  0.00    +0.000 A 
ATOM     22 CL   UNL     1      -3.329  13.216  20.527  0.00  0.00    +0.000 Cl
ATOM     23  C   UNL     1      -2.573  11.489  18.588  0.00  0.00    +0.000 A 
ATOM     24  C   UNL     1      -1.672  10.588  18.001  0.00  0.00    +0.000 A 
ATOM     25 CL   UNL     1      -2.161   9.812  16.534  0.00  0.00    +0.000 Cl
ENDBRANCH  17  18
ENDBRANCH  16  17
ENDBRANCH   2  16
TORSDOF 4
ENDMDL
MODEL 8
REMARK VINA RESULT:      -7.1      2.984      7.237
REMARK  Name = 
REMARK  4 active torsions:
REMARK  status: ('A' for Active; 'I' for Inactive)
REMARK    1  A    between atoms: N_1  and  N_2
REMARK    2  A    between atoms: C_3  and  C_4
REMARK    3  A    between atoms: C_4  and  O_5
REMARK    4  A    between atoms: O_5  and  C_6
REMARK                            x       y       z     vdW  Elec       q    Type
REMARK                         _______ _______ _______ _____ _____    ______ ____
ROOT
ATOM      1  N   UNL     1       4.216   5.953  18.282  0.00  0.00    +0.000 N 
ATOM      2  C   UNL     1       3.054   6.656  18.512  0.00  0.00    +0.000 A 
ATOM      3  N   UNL     1       2.105   6.212  19.275  0.00  0.00    +0.000 NA
ATOM      4  C   UNL     1       2.232   4.938  19.841  0.00  0.00    +0.000 A 
ATOM      5  C   UNL     1       1.113   4.414  20.497  0.00  0.00    +0.000 A 
ATOM      6  C   UNL     1       1.147   3.140  21.055  0.00  0.00    +0.000 A 
ATOM      7  C   UNL     1       2.320   2.395  20.995  0.00  0.00    +0.000 A 
ATOM      8  C   UNL     1       3.460   2.916  20.368  0.00  0.00    +0.000 A 
ATOM      9 CL   UNL     1       4.860   1.903  20.386  0.00  0.00    +0.000 Cl
ATOM     10  C   UNL     1       3.409   4.182  19.767  0.00  0.00    +0.000 A 
ATOM     11  C   UNL     1       4.519   4.778  18.986  0.00  0.00    +0.000 A 
ATOM     12  O   UNL     1       5.654   4.298  18.965  0.00  0.00    +0.000 OA
ENDROOT
BRANCH   1  13
ATOM     13  N   UNL     1       5.196   6.401  17.347  0.00  0.00    +0.000 N 
ATOM     14  H   UNL     1       5.565   5.611  16.823  0.00  0.00    +0.000 HD
ATOM     15  H   UNL     1       4.680   6.952  16.647  0.00  0.00    +0.000 HD
ENDBRANCH   1  13
BRANCH   2  16
ATOM     16  C   UNL     1       2.903   8.059  17.936  0.00  0.00    +0.000 C 
BRANCH  16  17
ATOM     17  O   UNL     1       1.604   8.603  18.119  0.00  0.00    +0.000 OA
BRANCH  17  18
ATOM     18  C   UNL     1       1.565   9.890  18.603  0.00  0.00    +0.000 A 
ATOM     19  C   UNL     1       2.123  10.987  17.929  0.00  0.00    +0.000 A 
ATOM     20  C   UNL     1       2.092  12.263  18.485  0.00  0.00    +0.000 A 
ATOM     21  C   UNL     1       1.500  12.466  19.726  0.00  0.00    +0.000 A 
ATOM     22 CL   UNL     1       1.485  14.047  20.402  0.00  0.00    +0.000 Cl
ATOM     23  C   UNL     1       0.939  11.398  20.417  0.00  0.00    +0.000 A 
ATOM     24  C   UNL     1       0.983  10.112  19.859  0.00  0.00    +0.000 A 
ATOM     25 CL   UNL     1       0.280   8.822  20.773  0.00  0.00    +0.000 Cl
ENDBRANCH  17  18
ENDBRANCH  16  17
ENDBRANCH   2  16
TORSDOF 4
ENDMDL
MODEL 9
REMARK VINA RESULT:      -7.1      1.045      1.045
REMARK  Name = 
REMARK  4 active torsions:
REMARK  status: ('A' for Active; 'I' for Inactive)
REMARK    1  A    between atoms: N_1  and  N_2
REMARK    2  A    between atoms: C_3  and  C_4
REMARK    3  A    between atoms: C_4  and  O_5
REMARK    4  A    between atoms: O_5  and  C_6
REMARK                            x       y       z     vdW  Elec       q    Type
REMARK                         _______ _______ _______ _____ _____    ______ ____
ROOT
ATOM      1  N   UNL     1       1.631   8.758  18.878  0.00  0.00    +0.000 N 
ATOM      2  C   UNL     1       1.752   7.696  19.746  0.00  0.00    +0.000 A 
ATOM      3  N   UNL     1       1.230   7.697  20.933  0.00  0.00    +0.000 NA
ATOM      4  C   UNL     1       0.569   8.847  21.380  0.00  0.00    +0.000 A 
ATOM      5  C   UNL     1       0.187   8.884  22.725  0.00  0.00    +0.000 A 
ATOM      6  C   UNL     1      -0.443  10.006  23.256  0.00  0.00    +0.000 A 
ATOM      7  C   UNL     1      -0.733  11.086  22.428  0.00  0.00    +0.000 A 
ATOM      8  C   UNL     1      -0.385  11.054  21.071  0.00  0.00    +0.000 A 
ATOM      9 CL   UNL     1      -0.826  12.445  20.146  0.00  0.00    +0.000 Cl
ATOM     10  C   UNL     1       0.290   9.941  20.550  0.00  0.00    +0.000 A 
ATOM     11  C   UNL     1       0.799   9.851  19.161  0.00  0.00    +0.000 A 
ATOM     12  O   UNL     1       0.497  10.665  18.285  0.00  0.00    +0.000 OA
ENDROOT
BRANCH   1  13
ATOM     13  N   UNL     1       2.312   8.789  17.625  0.00  0.00    +0.000 N 
ATOM     14  H   UNL     1       1.995   8.022  17.036  0.00  0.00    +0.000 HD
ATOM     15  H   UNL     1       1.973   9.635  17.146  0.00  0.00    +0.000 HD
ENDBRANCH   1  13
BRANCH   2  16
ATOM     16  C   UNL     1       2.438   6.419  19.275  0.00  0.00    +0.000 C 
BRANCH  16  17
ATOM     17  O   UNL     1       3.847   6.548  19.161  0.00  0.00    +0.000 OA
BRANCH  17  18
ATOM     18  C   UNL     1       4.406   5.961  18.050  0.00  0.00    +0.000 A 
ATOM     19  C   UNL     1       4.713   6.665  16.875  0.00  0.00    +0.000 A 
ATOM     20  C   UNL     1       5.239   6.013  15.764  0.00  0.00    +0.000 A 
ATOM     21  C   UNL     1       5.471   4.644  15.807  0.00  0.00    +0.000 A 
ATOM     22 CL   UNL     1       6.108   3.854  14.419  0.00  0.00    +0.000 Cl
ATOM     23  C   UNL     1       5.177   3.920  16.957  0.00  0.00    +0.000 A 
ATOM     24  C   UNL     1       4.635   4.578  18.070  0.00  0.00    +0.000 A 
ATOM     25 CL   UNL     1       4.277   3.621  19.467  0.00  0.00    +0.000 Cl
ENDBRANCH  17  18
ENDBRANCH  16  17
ENDBRANCH   2  16
TORSDOF 4
ENDMDL
