MODEL 1
REMARK VINA RESULT:      -8.9      0.000      0.000
REMARK  Name = 
REMARK  4 active torsions:
REMARK  status: ('A' for Active; 'I' for Inactive)
REMARK    1  A    between atoms: C_4  and  C_5
REMARK    2  A    between atoms: C_8  and  N_9
REMARK    3  A    between atoms: N_20  and  C_21
REMARK    4  A    between atoms: C_21  and  C_22
REMARK                            x       y       z     vdW  Elec       q    Type
REMARK                         _______ _______ _______ _____ _____    ______ ____
ROOT
ATOM      1  O   UNL     1       5.966   6.776  16.113  0.00  0.00    +0.000 OA
ATOM      2  C   UNL     1       5.128   6.027  16.583  0.00  0.00    +0.000 C 
ATOM      3  C   UNL     1       3.861   6.439  17.287  0.00  0.00    +0.000 C 
ATOM      4  C   UNL     1       3.643   7.735  17.557  0.00  0.00    +0.000 C 
ATOM      5  C   UNL     1       3.122   5.217  17.607  0.00  0.00    +0.000 A 
ATOM      6  C   UNL     1       1.868   4.983  18.146  0.00  0.00    +0.000 A 
ATOM      7  C   UNL     1       1.444   3.659  18.289  0.00  0.00    +0.000 A 
ATOM      8  C   UNL     1       2.273   2.593  17.902  0.00  0.00    +0.000 A 
ATOM      9  C   UNL     1       3.533   2.832  17.348  0.00  0.00    +0.000 A 
ATOM     10  C   UNL     1       3.935   4.150  17.194  0.00  0.00    +0.000 A 
ATOM     11  N   UNL     1       5.117   4.635  16.603  0.00  0.00    +0.000 N 
ENDROOT
BRANCH   4  12
ATOM     12  C   UNL     1       2.545   8.280  18.355  0.00  0.00    +0.000 A 
ATOM     13  C   UNL     1       2.360   7.825  19.667  0.00  0.00    +0.000 A 
ATOM     14  C   UNL     1       1.350   8.365  20.467  0.00  0.00    +0.000 A 
ATOM     15  C   UNL     1       0.518   9.362  19.944  0.00  0.00    +0.000 A 
ATOM     16  C   UNL     1       0.686   9.814  18.627  0.00  0.00    +0.000 A 
ATOM     17  C   UNL     1       1.703   9.270  17.836  0.00  0.00    +0.000 A 
BRANCH  15  18
ATOM     18  N   UNL     1      -0.529   9.952  20.790  0.00  0.00    +0.000 N 
ATOM     19  O   UNL     1      -0.729   9.439  21.902  0.00  0.00    +0.000 OA
ATOM     20  O   UNL     1      -1.150  10.926  20.344  0.00  0.00    +0.000 OA
ENDBRANCH  15  18
ENDBRANCH   4  12
BRANCH  11  21
ATOM     21  C   UNL     1       6.157   3.822  16.021  0.00  0.00    +0.000 C 
BRANCH  21  22
ATOM     22  C   UNL     1       6.338   4.024  14.533  0.00  0.00    +0.000 A 
ATOM     23  C   UNL     1       7.390   4.809  14.038  0.00  0.00    +0.000 A 
ATOM     24  C   UNL     1       7.601   4.930  12.661  0.00  0.00    +0.000 A 
ATOM     25  C   UNL     1       6.763   4.271  11.765  0.00  0.00    +0.000 A 
ATOM     26  C   UNL     1       5.707   3.499  12.241  0.00  0.00    +0.000 A 
ATOM     27  C   UNL     1       5.496   3.376  13.617  0.00  0.00    +0.000 A 
ENDBRANCH  21  22
ENDBRANCH  11  21
TORSDOF 4
ENDMDL
MODEL 2
REMARK VINA RESULT:      -8.6      0.157      1.113
REMARK  Name = 
REMARK  4 active torsions:
REMARK  status: ('A' for Active; 'I' for Inactive)
REMARK    1  A    between atoms: C_4  and  C_5
REMARK    2  A    between atoms: C_8  and  N_9
REMARK    3  A    between atoms: N_20  and  C_21
REMARK    4  A    between atoms: C_21  and  C_22
REMARK                            x       y       z     vdW  Elec       q    Type
REMARK                         _______ _______ _______ _____ _____    ______ ____
ROOT
ATOM      1  O   UNL     1       6.107   6.888  16.228  0.00  0.00    +0.000 OA
ATOM      2  C   UNL     1       5.250   6.131  16.649  0.00  0.00    +0.000 C 
ATOM      3  C   UNL     1       3.949   6.532  17.296  0.00  0.00    +0.000 C 
ATOM      4  C   UNL     1       3.714   7.824  17.570  0.00  0.00    +0.000 C 
ATOM      5  C   UNL     1       3.199   5.304  17.565  0.00  0.00    +0.000 A 
ATOM      6  C   UNL     1       1.921   5.060  18.040  0.00  0.00    +0.000 A 
ATOM      7  C   UNL     1       1.495   3.734  18.147  0.00  0.00    +0.000 A 
ATOM      8  C   UNL     1       2.345   2.675  17.788  0.00  0.00    +0.000 A 
ATOM      9  C   UNL     1       3.629   2.924  17.298  0.00  0.00    +0.000 A 
ATOM     10  C   UNL     1       4.034   4.244  17.179  0.00  0.00    +0.000 A 
ATOM     11  N   UNL     1       5.242   4.739  16.652  0.00  0.00    +0.000 N 
ENDROOT
BRANCH   4  12
ATOM     12  C   UNL     1       2.578   8.356  18.319  0.00  0.00    +0.000 A 
ATOM     13  C   UNL     1       2.355   7.916  19.630  0.00  0.00    +0.000 A 
ATOM     14  C   UNL     1       1.305   8.445  20.386  0.00  0.00    +0.000 A 
ATOM     15  C   UNL     1       0.472   9.418  19.820  0.00  0.00    +0.000 A 
ATOM     16  C   UNL     1       0.679   9.855  18.503  0.00  0.00    +0.000 A 
ATOM     17  C   UNL     1       1.734   9.321  17.757  0.00  0.00    +0.000 A 
BRANCH  15  18
ATOM     18  N   UNL     1      -0.616   9.997  20.619  0.00  0.00    +0.000 N 
ATOM     19  O   UNL     1      -1.314  10.876  20.092  0.00  0.00    +0.000 OA
ATOM     20  O   UNL     1      -0.772   9.574  21.772  0.00  0.00    +0.000 OA
ENDBRANCH  15  18
ENDBRANCH   4  12
BRANCH  11  21
ATOM     21  C   UNL     1       6.312   3.935  16.112  0.00  0.00    +0.000 C 
BRANCH  21  22
ATOM     22  C   UNL     1       6.448   4.021  14.608  0.00  0.00    +0.000 A 
ATOM     23  C   UNL     1       5.524   3.386  13.765  0.00  0.00    +0.000 A 
ATOM     24  C   UNL     1       5.607   3.532  12.377  0.00  0.00    +0.000 A 
ATOM     25  C   UNL     1       6.615   4.312  11.816  0.00  0.00    +0.000 A 
ATOM     26  C   UNL     1       7.548   4.939  12.638  0.00  0.00    +0.000 A 
ATOM     27  C   UNL     1       7.465   4.794  14.026  0.00  0.00    +0.000 A 
ENDBRANCH  21  22
ENDBRANCH  11  21
TORSDOF 4
ENDMDL
MODEL 3
REMARK VINA RESULT:      -8.5      0.118      1.115
REMARK  Name = 
REMARK  4 active torsions:
REMARK  status: ('A' for Active; 'I' for Inactive)
REMARK    1  A    between atoms: C_4  and  C_5
REMARK    2  A    between atoms: C_8  and  N_9
REMARK    3  A    between atoms: N_20  and  C_21
REMARK    4  A    between atoms: C_21  and  C_22
REMARK                            x       y       z     vdW  Elec       q    Type
REMARK                         _______ _______ _______ _____ _____    ______ ____
ROOT
ATOM      1  O   UNL     1       6.002   6.709  16.018  0.00  0.00    +0.000 OA
ATOM      2  C   UNL     1       5.163   5.977  16.512  0.00  0.00    +0.000 C 
ATOM      3  C   UNL     1       3.920   6.414  17.244  0.00  0.00    +0.000 C 
ATOM      4  C   UNL     1       3.730   7.715  17.511  0.00  0.00    +0.000 C 
ATOM      5  C   UNL     1       3.168   5.207  17.587  0.00  0.00    +0.000 A 
ATOM      6  C   UNL     1       1.923   4.997  18.158  0.00  0.00    +0.000 A 
ATOM      7  C   UNL     1       1.480   3.681  18.318  0.00  0.00    +0.000 A 
ATOM      8  C   UNL     1       2.281   2.600  17.918  0.00  0.00    +0.000 A 
ATOM      9  C   UNL     1       3.531   2.814  17.333  0.00  0.00    +0.000 A 
ATOM     10  C   UNL     1       3.952   4.123  17.161  0.00  0.00    +0.000 A 
ATOM     11  N   UNL     1       5.128   4.586  16.540  0.00  0.00    +0.000 N 
ENDROOT
BRANCH   4  12
ATOM     12  C   UNL     1       2.662   8.283  18.331  0.00  0.00    +0.000 A 
ATOM     13  C   UNL     1       1.841   9.282  17.791  0.00  0.00    +0.000 A 
ATOM     14  C   UNL     1       0.782   9.807  18.536  0.00  0.00    +0.000 A 
ATOM     15  C   UNL     1       0.549   9.330  19.832  0.00  0.00    +0.000 A 
ATOM     16  C   UNL     1       1.374   8.340  20.386  0.00  0.00    +0.000 A 
ATOM     17  C   UNL     1       2.429   7.819  19.631  0.00  0.00    +0.000 A 
BRANCH  15  18
ATOM     18  N   UNL     1      -0.580   9.859  20.608  0.00  0.00    +0.000 N 
ATOM     19  O   UNL     1      -1.220  10.805  20.125  0.00  0.00    +0.000 OA
ATOM     20  O   UNL     1      -0.826   9.330  21.700  0.00  0.00    +0.000 OA
ENDBRANCH  15  18
ENDBRANCH   4  12
BRANCH  11  21
ATOM     21  C   UNL     1       6.140   3.751  15.939  0.00  0.00    +0.000 C 
BRANCH  21  22
ATOM     22  C   UNL     1       6.321   3.974  14.454  0.00  0.00    +0.000 A 
ATOM     23  C   UNL     1       7.392   4.738  13.968  0.00  0.00    +0.000 A 
ATOM     24  C   UNL     1       7.602   4.879  12.593  0.00  0.00    +0.000 A 
ATOM     25  C   UNL     1       6.742   4.259  11.688  0.00  0.00    +0.000 A 
ATOM     26  C   UNL     1       5.667   3.508  12.155  0.00  0.00    +0.000 A 
ATOM     27  C   UNL     1       5.458   3.366  13.530  0.00  0.00    +0.000 A 
ENDBRANCH  21  22
ENDBRANCH  11  21
TORSDOF 4
ENDMDL
MODEL 4
REMARK VINA RESULT:      -8.2      0.218      1.331
REMARK  Name = 
REMARK  4 active torsions:
REMARK  status: ('A' for Active; 'I' for Inactive)
REMARK    1  A    between atoms: C_4  and  C_5
REMARK    2  A    between atoms: C_8  and  N_9
REMARK    3  A    between atoms: N_20  and  C_21
REMARK    4  A    between atoms: C_21  and  C_22
REMARK                            x       y       z     vdW  Elec       q    Type
REMARK                         _______ _______ _______ _____ _____    ______ ____
ROOT
ATOM      1  O   UNL     1       6.076   6.706  15.991  0.00  0.00    +0.000 OA
ATOM      2  C   UNL     1       5.231   5.973  16.474  0.00  0.00    +0.000 C 
ATOM      3  C   UNL     1       3.982   6.408  17.196  0.00  0.00    +0.000 C 
ATOM      4  C   UNL     1       3.791   7.708  17.469  0.00  0.00    +0.000 C 
ATOM      5  C   UNL     1       3.225   5.200  17.525  0.00  0.00    +0.000 A 
ATOM      6  C   UNL     1       1.974   4.988  18.083  0.00  0.00    +0.000 A 
ATOM      7  C   UNL     1       1.529   3.672  18.232  0.00  0.00    +0.000 A 
ATOM      8  C   UNL     1       2.332   2.592  17.833  0.00  0.00    +0.000 A 
ATOM      9  C   UNL     1       3.588   2.808  17.261  0.00  0.00    +0.000 A 
ATOM     10  C   UNL     1       4.012   4.117  17.101  0.00  0.00    +0.000 A 
ATOM     11  N   UNL     1       5.194   4.582  16.493  0.00  0.00    +0.000 N 
ENDROOT
BRANCH   4  12
ATOM     12  C   UNL     1       2.716   8.272  18.281  0.00  0.00    +0.000 A 
ATOM     13  C   UNL     1       1.879   9.250  17.727  0.00  0.00    +0.000 A 
ATOM     14  C   UNL     1       0.813   9.770  18.466  0.00  0.00    +0.000 A 
ATOM     15  C   UNL     1       0.590   9.311  19.769  0.00  0.00    +0.000 A 
ATOM     16  C   UNL     1       1.431   8.343  20.338  0.00  0.00    +0.000 A 
ATOM     17  C   UNL     1       2.492   7.826  19.589  0.00  0.00    +0.000 A 
BRANCH  15  18
ATOM     18  N   UNL     1      -0.545   9.835  20.540  0.00  0.00    +0.000 N 
ATOM     19  O   UNL     1      -0.746   9.360  21.668  0.00  0.00    +0.000 OA
ATOM     20  O   UNL     1      -1.236  10.721  20.018  0.00  0.00    +0.000 OA
ENDBRANCH  15  18
ENDBRANCH   4  12
BRANCH  11  21
ATOM     21  C   UNL     1       6.211   3.749  15.897  0.00  0.00    +0.000 C 
BRANCH  21  22
ATOM     22  C   UNL     1       6.317   3.887  14.395  0.00  0.00    +0.000 A 
ATOM     23  C   UNL     1       5.306   3.397  13.555  0.00  0.00    +0.000 A 
ATOM     24  C   UNL     1       5.368   3.595  12.173  0.00  0.00    +0.000 A 
ATOM     25  C   UNL     1       6.443   4.283  11.613  0.00  0.00    +0.000 A 
ATOM     26  C   UNL     1       7.461   4.764  12.432  0.00  0.00    +0.000 A 
ATOM     27  C   UNL     1       7.399   4.567  13.814  0.00  0.00    +0.000 A 
ENDBRANCH  21  22
ENDBRANCH  11  21
TORSDOF 4
ENDMDL
MODEL 5
REMARK VINA RESULT:      -8.2      3.800      8.567
REMARK  Name = 
REMARK  4 active torsions:
REMARK  status: ('A' for Active; 'I' for Inactive)
REMARK    1  A    between atoms: C_4  and  C_5
REMARK    2  A    between atoms: C_8  and  N_9
REMARK    3  A    between atoms: N_20  and  C_21
REMARK    4  A    between atoms: C_21  and  C_22
REMARK                            x       y       z     vdW  Elec       q    Type
REMARK                         _______ _______ _______ _____ _____    ______ ____
ROOT
ATOM      1  O   UNL     1       2.209  10.515  17.087  0.00  0.00    +0.000 OA
ATOM      2  C   UNL     1       1.735  10.027  18.098  0.00  0.00    +0.000 C 
ATOM      3  C   UNL     1       2.060   8.671  18.668  0.00  0.00    +0.000 C 
ATOM      4  C   UNL     1       2.844   7.830  17.977  0.00  0.00    +0.000 C 
ATOM      5  C   UNL     1       1.325   8.540  19.927  0.00  0.00    +0.000 A 
ATOM      6  C   UNL     1       1.315   7.575  20.921  0.00  0.00    +0.000 A 
ATOM      7  C   UNL     1       0.500   7.782  22.038  0.00  0.00    +0.000 A 
ATOM      8  C   UNL     1      -0.293   8.936  22.145  0.00  0.00    +0.000 A 
ATOM      9  C   UNL     1      -0.272   9.912  21.146  0.00  0.00    +0.000 A 
ATOM     10  C   UNL     1       0.553   9.706  20.052  0.00  0.00    +0.000 A 
ATOM     11  N   UNL     1       0.793  10.570  18.967  0.00  0.00    +0.000 N 
ENDROOT
BRANCH   4  12
ATOM     12  C   UNL     1       3.133   6.438  18.318  0.00  0.00    +0.000 A 
ATOM     13  C   UNL     1       2.204   5.444  17.986  0.00  0.00    +0.000 A 
ATOM     14  C   UNL     1       2.477   4.101  18.256  0.00  0.00    +0.000 A 
ATOM     15  C   UNL     1       3.688   3.755  18.869  0.00  0.00    +0.000 A 
ATOM     16  C   UNL     1       4.618   4.745  19.219  0.00  0.00    +0.000 A 
ATOM     17  C   UNL     1       4.337   6.086  18.940  0.00  0.00    +0.000 A 
BRANCH  15  18
ATOM     18  N   UNL     1       3.992   2.342  19.131  0.00  0.00    +0.000 N 
ATOM     19  O   UNL     1       4.713   2.078  20.104  0.00  0.00    +0.000 OA
ATOM     20  O   UNL     1       3.509   1.497  18.364  0.00  0.00    +0.000 OA
ENDBRANCH  15  18
ENDBRANCH   4  12
BRANCH  11  21
ATOM     21  C   UNL     1       0.209  11.878  18.794  0.00  0.00    +0.000 C 
BRANCH  21  22
ATOM     22  C   UNL     1      -1.292  11.863  18.612  0.00  0.00    +0.000 A 
ATOM     23  C   UNL     1      -1.875  11.227  17.506  0.00  0.00    +0.000 A 
ATOM     24  C   UNL     1      -3.265  11.147  17.380  0.00  0.00    +0.000 A 
ATOM     25  C   UNL     1      -4.088  11.703  18.357  0.00  0.00    +0.000 A 
ATOM     26  C   UNL     1      -3.525  12.349  19.455  0.00  0.00    +0.000 A 
ATOM     27  C   UNL     1      -2.135  12.428  19.581  0.00  0.00    +0.000 A 
ENDBRANCH  21  22
ENDBRANCH  11  21
TORSDOF 4
ENDMDL
MODEL 6
REMARK VINA RESULT:      -8.0      3.721      8.528
REMARK  Name = 
REMARK  4 active torsions:
REMARK  status: ('A' for Active; 'I' for Inactive)
REMARK    1  A    between atoms: C_4  and  C_5
REMARK    2  A    between atoms: C_8  and  N_9
REMARK    3  A    between atoms: N_20  and  C_21
REMARK    4  A    between atoms: C_21  and  C_22
REMARK                            x       y       z     vdW  Elec       q    Type
REMARK                         _______ _______ _______ _____ _____    ______ ____
ROOT
ATOM      1  O   UNL     1       2.273  10.514  17.091  0.00  0.00    +0.000 OA
ATOM      2  C   UNL     1       1.796   9.986  18.080  0.00  0.00    +0.000 C 
ATOM      3  C   UNL     1       2.127   8.613  18.604  0.00  0.00    +0.000 C 
ATOM      4  C   UNL     1       2.923   7.803  17.889  0.00  0.00    +0.000 C 
ATOM      5  C   UNL     1       1.385   8.431  19.852  0.00  0.00    +0.000 A 
ATOM      6  C   UNL     1       1.375   7.431  20.811  0.00  0.00    +0.000 A 
ATOM      7  C   UNL     1       0.551   7.591  21.928  0.00  0.00    +0.000 A 
ATOM      8  C   UNL     1      -0.252   8.734  22.071  0.00  0.00    +0.000 A 
ATOM      9  C   UNL     1      -0.232   9.746  21.108  0.00  0.00    +0.000 A 
ATOM     10  C   UNL     1       0.603   9.586  20.014  0.00  0.00    +0.000 A 
ATOM     11  N   UNL     1       0.843  10.490  18.962  0.00  0.00    +0.000 N 
ENDROOT
BRANCH   4  12
ATOM     12  C   UNL     1       3.221   6.403  18.182  0.00  0.00    +0.000 A 
ATOM     13  C   UNL     1       4.475   6.063  18.705  0.00  0.00    +0.000 A 
ATOM     14  C   UNL     1       4.768   4.739  19.040  0.00  0.00    +0.000 A 
ATOM     15  C   UNL     1       3.797   3.749  18.843  0.00  0.00    +0.000 A 
ATOM     16  C   UNL     1       2.543   4.077  18.307  0.00  0.00    +0.000 A 
ATOM     17  C   UNL     1       2.259   5.406  17.979  0.00  0.00    +0.000 A 
BRANCH  15  18
ATOM     18  N   UNL     1       4.090   2.360  19.219  0.00  0.00    +0.000 N 
ATOM     19  O   UNL     1       4.798   2.170  20.219  0.00  0.00    +0.000 OA
ATOM     20  O   UNL     1       3.614   1.460  18.515  0.00  0.00    +0.000 OA
ENDBRANCH  15  18
ENDBRANCH   4  12
BRANCH  11  21
ATOM     21  C   UNL     1       0.251  11.799  18.832  0.00  0.00    +0.000 C 
BRANCH  21  22
ATOM     22  C   UNL     1      -1.261  11.787  18.765  0.00  0.00    +0.000 A 
ATOM     23  C   UNL     1      -2.028  12.452  19.733  0.00  0.00    +0.000 A 
ATOM     24  C   UNL     1      -3.421  12.505  19.626  0.00  0.00    +0.000 A 
ATOM     25  C   UNL     1      -4.062  11.893  18.551  0.00  0.00    +0.000 A 
ATOM     26  C   UNL     1      -3.316  11.218  17.589  0.00  0.00    +0.000 A 
ATOM     27  C   UNL     1      -1.923  11.165  17.696  0.00  0.00    +0.000 A 
ENDBRANCH  21  22
ENDBRANCH  11  21
TORSDOF 4
ENDMDL
MODEL 7
REMARK VINA RESULT:      -8.0      3.784      8.596
REMARK  Name = 
REMARK  4 active torsions:
REMARK  status: ('A' for Active; 'I' for Inactive)
REMARK    1  A    between atoms: C_4  and  C_5
REMARK    2  A    between atoms: C_8  and  N_9
REMARK    3  A    between atoms: N_20  and  C_21
REMARK    4  A    between atoms: C_21  and  C_22
REMARK                            x       y       z     vdW  Elec       q    Type
REMARK                         _______ _______ _______ _____ _____    ______ ____
ROOT
ATOM      1  O   UNL     1       2.162  10.511  17.081  0.00  0.00    +0.000 OA
ATOM      2  C   UNL     1       1.701  10.021  18.096  0.00  0.00    +0.000 C 
ATOM      3  C   UNL     1       2.049   8.673  18.671  0.00  0.00    +0.000 C 
ATOM      4  C   UNL     1       2.842   7.841  17.980  0.00  0.00    +0.000 C 
ATOM      5  C   UNL     1       1.322   8.536  19.934  0.00  0.00    +0.000 A 
ATOM      6  C   UNL     1       1.331   7.576  20.933  0.00  0.00    +0.000 A 
ATOM      7  C   UNL     1       0.519   7.776  22.052  0.00  0.00    +0.000 A 
ATOM      8  C   UNL     1      -0.291   8.918  22.158  0.00  0.00    +0.000 A 
ATOM      9  C   UNL     1      -0.290   9.890  21.155  0.00  0.00    +0.000 A 
ATOM     10  C   UNL     1       0.533   9.691  20.058  0.00  0.00    +0.000 A 
ATOM     11  N   UNL     1       0.755  10.553  18.968  0.00  0.00    +0.000 N 
ENDROOT
BRANCH   4  12
ATOM     12  C   UNL     1       3.154   6.455  18.326  0.00  0.00    +0.000 A 
ATOM     13  C   UNL     1       2.213   5.453  18.055  0.00  0.00    +0.000 A 
ATOM     14  C   UNL     1       2.505   4.115  18.331  0.00  0.00    +0.000 A 
ATOM     15  C   UNL     1       3.747   3.782  18.886  0.00  0.00    +0.000 A 
ATOM     16  C   UNL     1       4.690   4.780  19.174  0.00  0.00    +0.000 A 
ATOM     17  C   UNL     1       4.389   6.116  18.890  0.00  0.00    +0.000 A 
BRANCH  15  18
ATOM     18  N   UNL     1       4.069   2.374  19.152  0.00  0.00    +0.000 N 
ATOM     19  O   UNL     1       3.656   1.525  18.348  0.00  0.00    +0.000 OA
ATOM     20  O   UNL     1       4.735   2.117  20.164  0.00  0.00    +0.000 OA
ENDBRANCH  15  18
ENDBRANCH   4  12
BRANCH  11  21
ATOM     21  C   UNL     1       0.150  11.852  18.792  0.00  0.00    +0.000 C 
BRANCH  21  22
ATOM     22  C   UNL     1      -1.357  11.819  18.675  0.00  0.00    +0.000 A 
ATOM     23  C   UNL     1      -2.168  12.374  19.677  0.00  0.00    +0.000 A 
ATOM     24  C   UNL     1      -3.558  12.412  19.530  0.00  0.00    +0.000 A 
ATOM     25  C   UNL     1      -4.153  11.894  18.381  0.00  0.00    +0.000 A 
ATOM     26  C   UNL     1      -3.363  11.328  17.384  0.00  0.00    +0.000 A 
ATOM     27  C   UNL     1      -1.974  11.291  17.530  0.00  0.00    +0.000 A 
ENDBRANCH  21  22
ENDBRANCH  11  21
TORSDOF 4
ENDMDL
MODEL 8
REMARK VINA RESULT:      -7.9      3.785      8.323
REMARK  Name = 
REMARK  4 active torsions:
REMARK  status: ('A' for Active; 'I' for Inactive)
REMARK    1  A    between atoms: C_4  and  C_5
REMARK    2  A    between atoms: C_8  and  N_9
REMARK    3  A    between atoms: N_20  and  C_21
REMARK    4  A    between atoms: C_21  and  C_22
REMARK                            x       y       z     vdW  Elec       q    Type
REMARK                         _______ _______ _______ _____ _____    ______ ____
ROOT
ATOM      1  O   UNL     1       2.436  10.581  17.107  0.00  0.00    +0.000 OA
ATOM      2  C   UNL     1       1.917  10.073  18.085  0.00  0.00    +0.000 C 
ATOM      3  C   UNL     1       2.181   8.686  18.613  0.00  0.00    +0.000 C 
ATOM      4  C   UNL     1       2.956   7.845  17.911  0.00  0.00    +0.000 C 
ATOM      5  C   UNL     1       1.406   8.533  19.845  0.00  0.00    +0.000 A 
ATOM      6  C   UNL     1       1.336   7.533  20.801  0.00  0.00    +0.000 A 
ATOM      7  C   UNL     1       0.497   7.726  21.902  0.00  0.00    +0.000 A 
ATOM      8  C   UNL     1      -0.261   8.901  22.031  0.00  0.00    +0.000 A 
ATOM      9  C   UNL     1      -0.179   9.913  21.071  0.00  0.00    +0.000 A 
ATOM     10  C   UNL     1       0.670   9.719  19.993  0.00  0.00    +0.000 A 
ATOM     11  N   UNL     1       0.969  10.614  18.949  0.00  0.00    +0.000 N 
ENDROOT
BRANCH   4  12
ATOM     12  C   UNL     1       3.189   6.433  18.207  0.00  0.00    +0.000 A 
ATOM     13  C   UNL     1       4.392   6.049  18.813  0.00  0.00    +0.000 A 
ATOM     14  C   UNL     1       4.620   4.713  19.152  0.00  0.00    +0.000 A 
ATOM     15  C   UNL     1       3.636   3.756  18.874  0.00  0.00    +0.000 A 
ATOM     16  C   UNL     1       2.435   4.128  18.254  0.00  0.00    +0.000 A 
ATOM     17  C   UNL     1       2.215   5.469  17.923  0.00  0.00    +0.000 A 
BRANCH  15  18
ATOM     18  N   UNL     1       3.860   2.354  19.251  0.00  0.00    +0.000 N 
ATOM     19  O   UNL     1       3.184   1.487  18.677  0.00  0.00    +0.000 OA
ATOM     20  O   UNL     1       4.710   2.120  20.121  0.00  0.00    +0.000 OA
ENDBRANCH  15  18
ENDBRANCH   4  12
BRANCH  11  21
ATOM     21  C   UNL     1       0.434  11.947  18.810  0.00  0.00    +0.000 C 
BRANCH  21  22
ATOM     22  C   UNL     1       1.375  13.039  19.268  0.00  0.00    +0.000 A 
ATOM     23  C   UNL     1       1.713  13.174  20.623  0.00  0.00    +0.000 A 
ATOM     24  C   UNL     1       2.644  14.134  21.033  0.00  0.00    +0.000 A 
ATOM     25  C   UNL     1       3.244  14.970  20.095  0.00  0.00    +0.000 A 
ATOM     26  C   UNL     1       2.909  14.857  18.748  0.00  0.00    +0.000 A 
ATOM     27  C   UNL     1       1.980  13.897  18.337  0.00  0.00    +0.000 A 
ENDBRANCH  21  22
ENDBRANCH  11  21
TORSDOF 4
ENDMDL
MODEL 9
REMARK VINA RESULT:      -7.9      4.074     10.532
REMARK  Name = 
REMARK  4 active torsions:
REMARK  status: ('A' for Active; 'I' for Inactive)
REMARK    1  A    between atoms: C_4  and  C_5
REMARK    2  A    between atoms: C_8  and  N_9
REMARK    3  A    between atoms: N_20  and  C_21
REMARK    4  A    between atoms: C_21  and  C_22
REMARK                            x       y       z     vdW  Elec       q    Type
REMARK                         _______ _______ _______ _____ _____    ______ ____
ROOT
ATOM      1  O   UNL     1      -0.105  11.252  23.003  0.00  0.00    +0.000 OA
ATOM      2  C   UNL     1      -0.446  11.182  21.836  0.00  0.00    +0.000 C 
ATOM      3  C   UNL     1      -0.049  10.110  20.854  0.00  0.00    +0.000 C 
ATOM      4  C   UNL     1       0.859   9.189  21.210  0.00  0.00    +0.000 C 
ATOM      5  C   UNL     1      -0.755  10.382  19.602  0.00  0.00    +0.000 A 
ATOM      6  C   UNL     1      -0.861   9.691  18.406  0.00  0.00    +0.000 A 
ATOM      7  C   UNL     1      -1.667  10.228  17.398  0.00  0.00    +0.000 A 
ATOM      8  C   UNL     1      -2.345  11.442  17.592  0.00  0.00    +0.000 A 
ATOM      9  C   UNL     1      -2.245  12.132  18.803  0.00  0.00    +0.000 A 
ATOM     10  C   UNL     1      -1.459  11.580  19.802  0.00  0.00    +0.000 A 
ATOM     11  N   UNL     1      -1.263  12.049  21.114  0.00  0.00    +0.000 N 
ENDROOT
BRANCH   4  12
ATOM     12  C   UNL     1       1.455   8.180  20.336  0.00  0.00    +0.000 A 
ATOM     13  C   UNL     1       1.487   6.844  20.754  0.00  0.00    +0.000 A 
ATOM     14  C   UNL     1       2.007   5.852  19.918  0.00  0.00    +0.000 A 
ATOM     15  C   UNL     1       2.501   6.206  18.657  0.00  0.00    +0.000 A 
ATOM     16  C   UNL     1       2.487   7.543  18.235  0.00  0.00    +0.000 A 
ATOM     17  C   UNL     1       1.961   8.527  19.078  0.00  0.00    +0.000 A 
BRANCH  15  18
ATOM     18  N   UNL     1       3.024   5.164  17.763  0.00  0.00    +0.000 N 
ATOM     19  O   UNL     1       4.175   5.304  17.324  0.00  0.00    +0.000 OA
ATOM     20  O   UNL     1       2.284   4.205  17.501  0.00  0.00    +0.000 OA
ENDBRANCH  15  18
ENDBRANCH   4  12
BRANCH  11  21
ATOM     21  C   UNL     1      -1.874  13.227  21.682  0.00  0.00    +0.000 C 
BRANCH  21  22
ATOM     22  C   UNL     1      -3.176  12.957  22.404  0.00  0.00    +0.000 A 
ATOM     23  C   UNL     1      -3.193  12.700  23.783  0.00  0.00    +0.000 A 
ATOM     24  C   UNL     1      -4.403  12.529  24.462  0.00  0.00    +0.000 A 
ATOM     25  C   UNL     1      -5.609  12.611  23.770  0.00  0.00    +0.000 A 
ATOM     26  C   UNL     1      -5.609  12.853  22.398  0.00  0.00    +0.000 A 
ATOM     27  C   UNL     1      -4.399  13.025  21.720  0.00  0.00    +0.000 A 
ENDBRANCH  21  22
ENDBRANCH  11  21
TORSDOF 4
ENDMDL
