MODEL 1
REMARK VINA RESULT:      -8.5      0.000      0.000
REMARK  Name = 
REMARK  9 active torsions:
REMARK  status: ('A' for Active; 'I' for Inactive)
REMARK    1  A    between atoms: C_1  and  N_2
REMARK    2  A    between atoms: C_3  and  C_4
REMARK    3  A    between atoms: C_4  and  N_5
REMARK    4  A    between atoms: N_5  and  C_6
REMARK    5  A    between atoms: C_10  and  C_11
REMARK    6  A    between atoms: N_13  and  C_14
REMARK    7  A    between atoms: C_14  and  C_15
REMARK    8  A    between atoms: C_19  and  C_20
REMARK    9  A    between atoms: C_28  and  C_29
REMARK                            x       y       z     vdW  Elec       q    Type
REMARK                         _______ _______ _______ _____ _____    ______ ____
ROOT
ATOM      1  C   UNL     1      -1.528  11.016  18.050  0.00  0.00    +0.000 A 
ATOM      2  C   UNL     1      -1.595  10.027  17.058  0.00  0.00    +0.000 A 
ATOM      3  C   UNL     1      -2.803   9.684  16.446  0.00  0.00    +0.000 A 
ATOM      4  C   UNL     1      -3.972  10.358  16.779  0.00  0.00    +0.000 A 
ATOM      5  C   UNL     1      -3.929  11.388  17.722  0.00  0.00    +0.000 A 
ATOM      6  C   UNL     1      -2.717  11.701  18.362  0.00  0.00    +0.000 A 
ENDROOT
BRANCH   5   7
ATOM      7  C   UNL     1      -5.160  12.160  18.057  0.00  0.00    +0.000 C 
ATOM      8  O   UNL     1      -5.743  12.802  17.192  0.00  0.00    +0.000 OA
ATOM      9  N   UNL     1      -5.579  12.074  19.368  0.00  0.00    +0.000 N 
ATOM     10  H   UNL     1      -5.135  11.418  19.996  0.00  0.00    +0.000 HD
BRANCH   9  11
ATOM     11  C   UNL     1      -6.730  12.786  19.877  0.00  0.00    +0.000 C 
BRANCH  11  12
ATOM     12  C   UNL     1      -6.722  12.823  21.387  0.00  0.00    +0.000 A 
ATOM     13  C   UNL     1      -7.912  12.974  22.113  0.00  0.00    +0.000 A 
ATOM     14  C   UNL     1      -7.888  13.056  23.507  0.00  0.00    +0.000 A 
ATOM     15  C   UNL     1      -6.676  12.984  24.194  0.00  0.00    +0.000 A 
ATOM     16  C   UNL     1      -5.472  12.825  23.494  0.00  0.00    +0.000 A 
ATOM     17  C   UNL     1      -5.509  12.746  22.090  0.00  0.00    +0.000 A 
BRANCH  16  18
ATOM     18  C   UNL     1      -4.151  12.742  24.219  0.00  0.00    +0.000 C 
ATOM     19  F   UNL     1      -3.448  13.910  24.205  0.00  0.00    +0.000 F 
ATOM     20  F   UNL     1      -4.301  12.416  25.533  0.00  0.00    +0.000 F 
ATOM     21  F   UNL     1      -3.321  11.802  23.691  0.00  0.00    +0.000 F 
ENDBRANCH  16  18
ENDBRANCH  11  12
ENDBRANCH   9  11
ENDBRANCH   5   7
BRANCH   1  22
ATOM     22  N   UNL     1      -0.320  11.457  18.616  0.00  0.00    +0.000 N 
ATOM     23  H   UNL     1      -0.430  12.387  19.025  0.00  0.00    +0.000 HD
BRANCH  22  24
ATOM     24  C   UNL     1       0.418  10.570  19.524  0.00  0.00    +0.000 C 
BRANCH  24  27
ATOM     25  C   UNL     1       1.396   7.891  20.721  0.00  0.00    +0.000 C 
ATOM     26  N   UNL     1       1.655   8.347  19.378  0.00  0.00    +0.000 N 
ATOM     27  C   UNL     1       1.275   9.554  18.841  0.00  0.00    +0.000 A 
ATOM     28  N   UNL     1       1.830   9.680  17.654  0.00  0.00    +0.000 NA
ATOM     29  N   UNL     1       2.545   8.541  17.396  0.00  0.00    +0.000 NA
ATOM     30  C   UNL     1       2.403   7.705  18.410  0.00  0.00    +0.000 A 
BRANCH  30  31
ATOM     31  C   UNL     1       2.980   6.358  18.470  0.00  0.00    +0.000 A 
ATOM     32  C   UNL     1       2.215   5.263  18.051  0.00  0.00    +0.000 A 
ATOM     33  C   UNL     1       2.766   3.994  18.130  0.00  0.00    +0.000 A 
ATOM     34  N   UNL     1       4.011   3.743  18.586  0.00  0.00    +0.000 NA
ATOM     35  C   UNL     1       4.722   4.805  19.011  0.00  0.00    +0.000 A 
ATOM     36  C   UNL     1       4.252   6.108  18.985  0.00  0.00    +0.000 A 
ENDBRANCH  30  31
ENDBRANCH  24  27
ENDBRANCH  22  24
ENDBRANCH   1  22
TORSDOF 8
ENDMDL
MODEL 2
REMARK VINA RESULT:      -8.4      4.001     10.263
REMARK  Name = 
REMARK  9 active torsions:
REMARK  status: ('A' for Active; 'I' for Inactive)
REMARK    1  A    between atoms: C_1  and  N_2
REMARK    2  A    between atoms: C_3  and  C_4
REMARK    3  A    between atoms: C_4  and  N_5
REMARK    4  A    between atoms: N_5  and  C_6
REMARK    5  A    between atoms: C_10  and  C_11
REMARK    6  A    between atoms: N_13  and  C_14
REMARK    7  A    between atoms: C_14  and  C_15
REMARK    8  A    between atoms: C_19  and  C_20
REMARK    9  A    between atoms: C_28  and  C_29
REMARK                            x       y       z     vdW  Elec       q    Type
REMARK                         _______ _______ _______ _____ _____    ______ ____
ROOT
ATOM      1  C   UNL     1       0.521  11.190  21.095  0.00  0.00    +0.000 A 
ATOM      2  C   UNL     1       0.119  10.286  22.090  0.00  0.00    +0.000 A 
ATOM      3  C   UNL     1       0.239   8.905  21.917  0.00  0.00    +0.000 A 
ATOM      4  C   UNL     1       0.811   8.392  20.758  0.00  0.00    +0.000 A 
ATOM      5  C   UNL     1       1.274   9.267  19.773  0.00  0.00    +0.000 A 
ATOM      6  C   UNL     1       1.115  10.655  19.937  0.00  0.00    +0.000 A 
ENDROOT
BRANCH   5   7
ATOM      7  C   UNL     1       1.938   8.742  18.546  0.00  0.00    +0.000 C 
ATOM      8  O   UNL     1       1.731   9.264  17.457  0.00  0.00    +0.000 OA
ATOM      9  N   UNL     1       2.789   7.674  18.739  0.00  0.00    +0.000 N 
ATOM     10  H   UNL     1       3.024   7.381  19.678  0.00  0.00    +0.000 HD
BRANCH   9  11
ATOM     11  C   UNL     1       3.488   7.016  17.658  0.00  0.00    +0.000 C 
BRANCH  11  12
ATOM     12  C   UNL     1       3.353   5.515  17.757  0.00  0.00    +0.000 A 
ATOM     13  C   UNL     1       4.209   4.663  17.045  0.00  0.00    +0.000 A 
ATOM     14  C   UNL     1       4.044   3.278  17.106  0.00  0.00    +0.000 A 
ATOM     15  C   UNL     1       3.026   2.725  17.882  0.00  0.00    +0.000 A 
ATOM     16  C   UNL     1       2.160   3.553  18.611  0.00  0.00    +0.000 A 
ATOM     17  C   UNL     1       2.335   4.946  18.540  0.00  0.00    +0.000 A 
BRANCH  16  18
ATOM     18  C   UNL     1       1.055   2.974  19.459  0.00  0.00    +0.000 C 
ATOM     19  F   UNL     1       0.132   2.269  18.744  0.00  0.00    +0.000 F 
ATOM     20  F   UNL     1       1.523   2.115  20.406  0.00  0.00    +0.000 F 
ATOM     21  F   UNL     1       0.354   3.928  20.130  0.00  0.00    +0.000 F 
ENDBRANCH  16  18
ENDBRANCH  11  12
ENDBRANCH   9  11
ENDBRANCH   5   7
BRANCH   1  22
ATOM     22  N   UNL     1       0.508  12.583  21.272  0.00  0.00    +0.000 N 
ATOM     23  H   UNL     1       1.448  12.931  21.472  0.00  0.00    +0.000 HD
BRANCH  22  24
ATOM     24  C   UNL     1      -0.163  13.431  20.278  0.00  0.00    +0.000 C 
BRANCH  24  27
ATOM     25  C   UNL     1      -2.331  11.672  18.948  0.00  0.00    +0.000 C 
ATOM     26  N   UNL     1      -2.582  12.726  19.897  0.00  0.00    +0.000 N 
ATOM     27  C   UNL     1      -1.640  13.554  20.462  0.00  0.00    +0.000 A 
ATOM     28  N   UNL     1      -2.260  14.493  21.145  0.00  0.00    +0.000 NA
ATOM     29  N   UNL     1      -3.608  14.262  21.059  0.00  0.00    +0.000 NA
ATOM     30  C   UNL     1      -3.811  13.165  20.351  0.00  0.00    +0.000 A 
BRANCH  30  31
ATOM     31  C   UNL     1      -5.127  12.570  20.090  0.00  0.00    +0.000 A 
ATOM     32  C   UNL     1      -5.962  12.249  21.166  0.00  0.00    +0.000 A 
ATOM     33  C   UNL     1      -7.195  11.671  20.905  0.00  0.00    +0.000 A 
ATOM     34  N   UNL     1      -7.648  11.399  19.664  0.00  0.00    +0.000 NA
ATOM     35  C   UNL     1      -6.820  11.689  18.642  0.00  0.00    +0.000 A 
ATOM     36  C   UNL     1      -5.566  12.253  18.804  0.00  0.00    +0.000 A 
ENDBRANCH  30  31
ENDBRANCH  24  27
ENDBRANCH  22  24
ENDBRANCH   1  22
TORSDOF 8
ENDMDL
MODEL 3
REMARK VINA RESULT:      -8.4      5.374     11.309
REMARK  Name = 
REMARK  9 active torsions:
REMARK  status: ('A' for Active; 'I' for Inactive)
REMARK    1  A    between atoms: C_1  and  N_2
REMARK    2  A    between atoms: C_3  and  C_4
REMARK    3  A    between atoms: C_4  and  N_5
REMARK    4  A    between atoms: N_5  and  C_6
REMARK    5  A    between atoms: C_10  and  C_11
REMARK    6  A    between atoms: N_13  and  C_14
REMARK    7  A    between atoms: C_14  and  C_15
REMARK    8  A    between atoms: C_19  and  C_20
REMARK    9  A    between atoms: C_28  and  C_29
REMARK                            x       y       z     vdW  Elec       q    Type
REMARK                         _______ _______ _______ _____ _____    ______ ____
ROOT
ATOM      1  C   UNL     1       1.098  10.111  19.269  0.00  0.00    +0.000 A 
ATOM      2  C   UNL     1       0.827  10.217  20.641  0.00  0.00    +0.000 A 
ATOM      3  C   UNL     1       1.004   9.137  21.509  0.00  0.00    +0.000 A 
ATOM      4  C   UNL     1       1.504   7.931  21.032  0.00  0.00    +0.000 A 
ATOM      5  C   UNL     1       1.839   7.810  19.681  0.00  0.00    +0.000 A 
ATOM      6  C   UNL     1       1.621   8.890  18.806  0.00  0.00    +0.000 A 
ENDROOT
BRANCH   5   7
ATOM      7  C   UNL     1       2.426   6.544  19.156  0.00  0.00    +0.000 C 
ATOM      8  O   UNL     1       2.134   6.143  18.036  0.00  0.00    +0.000 OA
ATOM      9  N   UNL     1       3.306   5.901  20.001  0.00  0.00    +0.000 N 
ATOM     10  H   UNL     1       3.610   6.355  20.852  0.00  0.00    +0.000 HD
BRANCH   9  11
ATOM     11  C   UNL     1       3.940   4.644  19.671  0.00  0.00    +0.000 C 
BRANCH  11  12
ATOM     12  C   UNL     1       5.138   4.859  18.776  0.00  0.00    +0.000 A 
ATOM     13  C   UNL     1       6.341   5.364  19.287  0.00  0.00    +0.000 A 
ATOM     14  C   UNL     1       7.427   5.605  18.441  0.00  0.00    +0.000 A 
ATOM     15  C   UNL     1       7.325   5.340  17.076  0.00  0.00    +0.000 A 
ATOM     16  C   UNL     1       6.136   4.826  16.539  0.00  0.00    +0.000 A 
ATOM     17  C   UNL     1       5.050   4.591  17.400  0.00  0.00    +0.000 A 
BRANCH  16  18
ATOM     18  C   UNL     1       6.008   4.530  15.065  0.00  0.00    +0.000 C 
ATOM     19  F   UNL     1       6.311   5.593  14.267  0.00  0.00    +0.000 F 
ATOM     20  F   UNL     1       6.832   3.521  14.665  0.00  0.00    +0.000 F 
ATOM     21  F   UNL     1       4.750   4.149  14.714  0.00  0.00    +0.000 F 
ENDBRANCH  16  18
ENDBRANCH  11  12
ENDBRANCH   9  11
ENDBRANCH   5   7
BRANCH   1  22
ATOM     22  N   UNL     1       1.027  11.200  18.385  0.00  0.00    +0.000 N 
ATOM     23  H   UNL     1       0.930  10.878  17.420  0.00  0.00    +0.000 HD
BRANCH  22  24
ATOM     24  C   UNL     1       0.095  12.299  18.667  0.00  0.00    +0.000 C 
BRANCH  24  27
ATOM     25  C   UNL     1      -2.324  12.383  20.592  0.00  0.00    +0.000 C 
ATOM     26  N   UNL     1      -2.394  12.105  19.180  0.00  0.00    +0.000 N 
ATOM     27  C   UNL     1      -1.329  12.011  18.315  0.00  0.00    +0.000 A 
ATOM     28  N   UNL     1      -1.768  11.583  17.151  0.00  0.00    +0.000 NA
ATOM     29  N   UNL     1      -3.126  11.429  17.239  0.00  0.00    +0.000 NA
ATOM     30  C   UNL     1      -3.522  11.793  18.446  0.00  0.00    +0.000 A 
BRANCH  30  31
ATOM     31  C   UNL     1      -4.919  11.817  18.896  0.00  0.00    +0.000 A 
ATOM     32  C   UNL     1      -5.751  10.728  18.610  0.00  0.00    +0.000 A 
ATOM     33  C   UNL     1      -7.073  10.772  19.026  0.00  0.00    +0.000 A 
ATOM     34  N   UNL     1      -7.613  11.806  19.702  0.00  0.00    +0.000 NA
ATOM     35  C   UNL     1      -6.805  12.856  19.944  0.00  0.00    +0.000 A 
ATOM     36  C   UNL     1      -5.477  12.912  19.556  0.00  0.00    +0.000 A 
ENDBRANCH  30  31
ENDBRANCH  24  27
ENDBRANCH  22  24
ENDBRANCH   1  22
TORSDOF 8
ENDMDL
MODEL 4
REMARK VINA RESULT:      -8.2      4.076     10.532
REMARK  Name = 
REMARK  9 active torsions:
REMARK  status: ('A' for Active; 'I' for Inactive)
REMARK    1  A    between atoms: C_1  and  N_2
REMARK    2  A    between atoms: C_3  and  C_4
REMARK    3  A    between atoms: C_4  and  N_5
REMARK    4  A    between atoms: N_5  and  C_6
REMARK    5  A    between atoms: C_10  and  C_11
REMARK    6  A    between atoms: N_13  and  C_14
REMARK    7  A    between atoms: C_14  and  C_15
REMARK    8  A    between atoms: C_19  and  C_20
REMARK    9  A    between atoms: C_28  and  C_29
REMARK                            x       y       z     vdW  Elec       q    Type
REMARK                         _______ _______ _______ _____ _____    ______ ____
ROOT
ATOM      1  C   UNL     1       0.475  11.185  20.947  0.00  0.00    +0.000 A 
ATOM      2  C   UNL     1       0.103  10.325  21.991  0.00  0.00    +0.000 A 
ATOM      3  C   UNL     1       0.275   8.941  21.898  0.00  0.00    +0.000 A 
ATOM      4  C   UNL     1       0.870   8.385  20.770  0.00  0.00    +0.000 A 
ATOM      5  C   UNL     1       1.304   9.220  19.738  0.00  0.00    +0.000 A 
ATOM      6  C   UNL     1       1.093  10.608  19.822  0.00  0.00    +0.000 A 
ENDROOT
BRANCH   5   7
ATOM      7  C   UNL     1       1.992   8.651  18.544  0.00  0.00    +0.000 C 
ATOM      8  O   UNL     1       1.811   9.137  17.434  0.00  0.00    +0.000 OA
ATOM      9  N   UNL     1       2.832   7.585  18.791  0.00  0.00    +0.000 N 
ATOM     10  H   UNL     1       3.045   7.323  19.744  0.00  0.00    +0.000 HD
BRANCH   9  11
ATOM     11  C   UNL     1       3.551   6.889  17.747  0.00  0.00    +0.000 C 
BRANCH  11  12
ATOM     12  C   UNL     1       3.375   5.393  17.872  0.00  0.00    +0.000 A 
ATOM     13  C   UNL     1       4.205   4.507  17.171  0.00  0.00    +0.000 A 
ATOM     14  C   UNL     1       4.002   3.128  17.255  0.00  0.00    +0.000 A 
ATOM     15  C   UNL     1       2.970   2.617  18.042  0.00  0.00    +0.000 A 
ATOM     16  C   UNL     1       2.130   3.480  18.759  0.00  0.00    +0.000 A 
ATOM     17  C   UNL     1       2.343   4.866  18.665  0.00  0.00    +0.000 A 
BRANCH  16  18
ATOM     18  C   UNL     1       1.010   2.945  19.619  0.00  0.00    +0.000 C 
ATOM     19  F   UNL     1       0.329   3.916  20.291  0.00  0.00    +0.000 F 
ATOM     20  F   UNL     1       0.075   2.272  18.892  0.00  0.00    +0.000 F 
ATOM     21  F   UNL     1       1.448   2.073  20.568  0.00  0.00    +0.000 F 
ENDBRANCH  16  18
ENDBRANCH  11  12
ENDBRANCH   9  11
ENDBRANCH   5   7
BRANCH   1  22
ATOM     22  N   UNL     1       0.410  12.584  21.045  0.00  0.00    +0.000 N 
ATOM     23  H   UNL     1       1.338  12.980  21.207  0.00  0.00    +0.000 HD
BRANCH  22  24
ATOM     24  C   UNL     1      -0.310  13.347  20.016  0.00  0.00    +0.000 C 
BRANCH  24  27
ATOM     25  C   UNL     1      -2.575  14.462  21.803  0.00  0.00    +0.000 C 
ATOM     26  N   UNL     1      -2.759  13.573  20.684  0.00  0.00    +0.000 N 
ATOM     27  C   UNL     1      -1.764  13.024  19.908  0.00  0.00    +0.000 A 
ATOM     28  N   UNL     1      -2.304  12.140  19.096  0.00  0.00    +0.000 NA
ATOM     29  N   UNL     1      -3.656  12.133  19.312  0.00  0.00    +0.000 NA
ATOM     30  C   UNL     1      -3.949  13.035  20.233  0.00  0.00    +0.000 A 
BRANCH  30  31
ATOM     31  C   UNL     1      -5.306  13.353  20.690  0.00  0.00    +0.000 A 
ATOM     32  C   UNL     1      -5.796  12.754  21.856  0.00  0.00    +0.000 A 
ATOM     33  C   UNL     1      -7.087  13.051  22.267  0.00  0.00    +0.000 A 
ATOM     34  N   UNL     1      -7.909  13.894  21.609  0.00  0.00    +0.000 NA
ATOM     35  C   UNL     1      -7.430  14.439  20.474  0.00  0.00    +0.000 A 
ATOM     36  C   UNL     1      -6.162  14.193  19.976  0.00  0.00    +0.000 A 
ENDBRANCH  30  31
ENDBRANCH  24  27
ENDBRANCH  22  24
ENDBRANCH   1  22
TORSDOF 8
ENDMDL
MODEL 5
REMARK VINA RESULT:      -8.1      3.812      6.105
REMARK  Name = 
REMARK  9 active torsions:
REMARK  status: ('A' for Active; 'I' for Inactive)
REMARK    1  A    between atoms: C_1  and  N_2
REMARK    2  A    between atoms: C_3  and  C_4
REMARK    3  A    between atoms: C_4  and  N_5
REMARK    4  A    between atoms: N_5  and  C_6
REMARK    5  A    between atoms: C_10  and  C_11
REMARK    6  A    between atoms: N_13  and  C_14
REMARK    7  A    between atoms: C_14  and  C_15
REMARK    8  A    between atoms: C_19  and  C_20
REMARK    9  A    between atoms: C_28  and  C_29
REMARK                            x       y       z     vdW  Elec       q    Type
REMARK                         _______ _______ _______ _____ _____    ______ ____
ROOT
ATOM      1  C   UNL     1       2.598   6.966  19.380  0.00  0.00    +0.000 A 
ATOM      2  C   UNL     1       2.817   7.498  18.101  0.00  0.00    +0.000 A 
ATOM      3  C   UNL     1       2.206   8.683  17.684  0.00  0.00    +0.000 A 
ATOM      4  C   UNL     1       1.393   9.395  18.559  0.00  0.00    +0.000 A 
ATOM      5  C   UNL     1       1.200   8.923  19.860  0.00  0.00    +0.000 A 
ATOM      6  C   UNL     1       1.787   7.709  20.259  0.00  0.00    +0.000 A 
ENDROOT
BRANCH   5   7
ATOM      7  C   UNL     1       0.375   9.696  20.831  0.00  0.00    +0.000 C 
ATOM      8  O   UNL     1      -0.190   9.126  21.757  0.00  0.00    +0.000 OA
ATOM      9  N   UNL     1       0.322  11.058  20.617  0.00  0.00    +0.000 N 
ATOM     10  H   UNL     1       0.921  11.481  19.922  0.00  0.00    +0.000 HD
BRANCH   9  11
ATOM     11  C   UNL     1      -0.459  11.956  21.438  0.00  0.00    +0.000 C 
BRANCH  11  12
ATOM     12  C   UNL     1      -1.835  12.171  20.852  0.00  0.00    +0.000 A 
ATOM     13  C   UNL     1      -2.863  12.745  21.613  0.00  0.00    +0.000 A 
ATOM     14  C   UNL     1      -4.144  12.893  21.078  0.00  0.00    +0.000 A 
ATOM     15  C   UNL     1      -4.414  12.475  19.775  0.00  0.00    +0.000 A 
ATOM     16  C   UNL     1      -3.402  11.905  18.989  0.00  0.00    +0.000 A 
ATOM     17  C   UNL     1      -2.117  11.758  19.540  0.00  0.00    +0.000 A 
BRANCH  16  18
ATOM     18  C   UNL     1      -3.674  11.449  17.576  0.00  0.00    +0.000 C 
ATOM     19  F   UNL     1      -2.587  11.537  16.757  0.00  0.00    +0.000 F 
ATOM     20  F   UNL     1      -4.076  10.149  17.519  0.00  0.00    +0.000 F 
ATOM     21  F   UNL     1      -4.655  12.173  16.971  0.00  0.00    +0.000 F 
ENDBRANCH  16  18
ENDBRANCH  11  12
ENDBRANCH   9  11
ENDBRANCH   5   7
BRANCH   1  22
ATOM     22  N   UNL     1       3.270   5.834  19.868  0.00  0.00    +0.000 N 
ATOM     23  H   UNL     1       2.691   4.998  19.770  0.00  0.00    +0.000 HD
BRANCH  22  24
ATOM     24  C   UNL     1       4.648   5.570  19.432  0.00  0.00    +0.000 C 
BRANCH  24  27
ATOM     25  C   UNL     1       6.175   6.597  16.947  0.00  0.00    +0.000 C 
ATOM     26  N   UNL     1       5.488   5.333  17.038  0.00  0.00    +0.000 N 
ATOM     27  C   UNL     1       4.761   4.878  18.113  0.00  0.00    +0.000 A 
ATOM     28  N   UNL     1       4.148   3.766  17.766  0.00  0.00    +0.000 NA
ATOM     29  N   UNL     1       4.501   3.470  16.476  0.00  0.00    +0.000 NA
ATOM     30  C   UNL     1       5.354   4.383  16.045  0.00  0.00    +0.000 A 
BRANCH  30  31
ATOM     31  C   UNL     1       5.996   4.370  14.725  0.00  0.00    +0.000 A 
ATOM     32  C   UNL     1       5.432   3.609  13.694  0.00  0.00    +0.000 A 
ATOM     33  C   UNL     1       6.059   3.592  12.458  0.00  0.00    +0.000 A 
ATOM     34  N   UNL     1       7.188   4.274  12.180  0.00  0.00    +0.000 NA
ATOM     35  C   UNL     1       7.733   4.978  13.191  0.00  0.00    +0.000 A 
ATOM     36  C   UNL     1       7.189   5.044  14.463  0.00  0.00    +0.000 A 
ENDBRANCH  30  31
ENDBRANCH  24  27
ENDBRANCH  22  24
ENDBRANCH   1  22
TORSDOF 8
ENDMDL
MODEL 6
REMARK VINA RESULT:      -8.1      5.579      9.614
REMARK  Name = 
REMARK  9 active torsions:
REMARK  status: ('A' for Active; 'I' for Inactive)
REMARK    1  A    between atoms: C_1  and  N_2
REMARK    2  A    between atoms: C_3  and  C_4
REMARK    3  A    between atoms: C_4  and  N_5
REMARK    4  A    between atoms: N_5  and  C_6
REMARK    5  A    between atoms: C_10  and  C_11
REMARK    6  A    between atoms: N_13  and  C_14
REMARK    7  A    between atoms: C_14  and  C_15
REMARK    8  A    between atoms: C_19  and  C_20
REMARK    9  A    between atoms: C_28  and  C_29
REMARK                            x       y       z     vdW  Elec       q    Type
REMARK                         _______ _______ _______ _____ _____    ______ ____
ROOT
ATOM      1  C   UNL     1       0.059  11.828  20.873  0.00  0.00    +0.000 A 
ATOM      2  C   UNL     1      -0.390  11.166  22.026  0.00  0.00    +0.000 A 
ATOM      3  C   UNL     1      -0.315   9.777  22.149  0.00  0.00    +0.000 A 
ATOM      4  C   UNL     1       0.257   9.014  21.137  0.00  0.00    +0.000 A 
ATOM      5  C   UNL     1       0.766   9.648  20.001  0.00  0.00    +0.000 A 
ATOM      6  C   UNL     1       0.653  11.044  19.866  0.00  0.00    +0.000 A 
ENDROOT
BRANCH   5   7
ATOM      7  C   UNL     1       1.431   8.857  18.926  0.00  0.00    +0.000 C 
ATOM      8  O   UNL     1       1.360   9.217  17.757  0.00  0.00    +0.000 OA
ATOM      9  N   UNL     1       2.123   7.741  19.349  0.00  0.00    +0.000 N 
ATOM     10  H   UNL     1       2.259   7.578  20.337  0.00  0.00    +0.000 HD
BRANCH   9  11
ATOM     11  C   UNL     1       2.796   6.839  18.442  0.00  0.00    +0.000 C 
BRANCH  11  12
ATOM     12  C   UNL     1       2.377   5.408  18.687  0.00  0.00    +0.000 A 
ATOM     13  C   UNL     1       1.819   4.633  17.660  0.00  0.00    +0.000 A 
ATOM     14  C   UNL     1       1.389   3.328  17.910  0.00  0.00    +0.000 A 
ATOM     15  C   UNL     1       1.516   2.779  19.186  0.00  0.00    +0.000 A 
ATOM     16  C   UNL     1       2.077   3.529  20.229  0.00  0.00    +0.000 A 
ATOM     17  C   UNL     1       2.503   4.843  19.966  0.00  0.00    +0.000 A 
BRANCH  16  18
ATOM     18  C   UNL     1       2.224   2.952  21.616  0.00  0.00    +0.000 C 
ATOM     19  F   UNL     1       2.384   3.897  22.585  0.00  0.00    +0.000 F 
ATOM     20  F   UNL     1       1.140   2.218  21.990  0.00  0.00    +0.000 F 
ATOM     21  F   UNL     1       3.297   2.122  21.726  0.00  0.00    +0.000 F 
ENDBRANCH  16  18
ENDBRANCH  11  12
ENDBRANCH   9  11
ENDBRANCH   5   7
BRANCH   1  22
ATOM     22  N   UNL     1       0.093  13.227  20.754  0.00  0.00    +0.000 N 
ATOM     23  H   UNL     1      -0.775  13.641  21.101  0.00  0.00    +0.000 HD
BRANCH  22  24
ATOM     24  C   UNL     1       1.260  13.966  21.251  0.00  0.00    +0.000 C 
BRANCH  24  27
ATOM     25  C   UNL     1       4.257  14.675  21.538  0.00  0.00    +0.000 C 
ATOM     26  N   UNL     1       3.490  14.780  20.323  0.00  0.00    +0.000 N 
ATOM     27  C   UNL     1       2.147  14.519  20.183  0.00  0.00    +0.000 A 
ATOM     28  N   UNL     1       1.771  14.883  18.975  0.00  0.00    +0.000 NA
ATOM     29  N   UNL     1       2.873  15.349  18.309  0.00  0.00    +0.000 NA
ATOM     30  C   UNL     1       3.928  15.241  19.096  0.00  0.00    +0.000 A 
BRANCH  30  31
ATOM     31  C   UNL     1       5.300  15.591  18.709  0.00  0.00    +0.000 A 
ATOM     32  C   UNL     1       6.084  14.649  18.033  0.00  0.00    +0.000 A 
ATOM     33  C   UNL     1       7.384  14.987  17.689  0.00  0.00    +0.000 A 
ATOM     34  N   UNL     1       7.947  16.181  17.964  0.00  0.00    +0.000 NA
ATOM     35  C   UNL     1       7.187  17.064  18.641  0.00  0.00    +0.000 A 
ATOM     36  C   UNL     1       5.885  16.813  19.039  0.00  0.00    +0.000 A 
ENDBRANCH  30  31
ENDBRANCH  24  27
ENDBRANCH  22  24
ENDBRANCH   1  22
TORSDOF 8
ENDMDL
MODEL 7
REMARK VINA RESULT:      -8.1      7.233     12.624
REMARK  Name = 
REMARK  9 active torsions:
REMARK  status: ('A' for Active; 'I' for Inactive)
REMARK    1  A    between atoms: C_1  and  N_2
REMARK    2  A    between atoms: C_3  and  C_4
REMARK    3  A    between atoms: C_4  and  N_5
REMARK    4  A    between atoms: N_5  and  C_6
REMARK    5  A    between atoms: C_10  and  C_11
REMARK    6  A    between atoms: N_13  and  C_14
REMARK    7  A    between atoms: C_14  and  C_15
REMARK    8  A    between atoms: C_19  and  C_20
REMARK    9  A    between atoms: C_28  and  C_29
REMARK                            x       y       z     vdW  Elec       q    Type
REMARK                         _______ _______ _______ _____ _____    ______ ____
ROOT
ATOM      1  C   UNL     1       2.426   5.599  19.764  0.00  0.00    +0.000 A 
ATOM      2  C   UNL     1       1.544   4.643  19.239  0.00  0.00    +0.000 A 
ATOM      3  C   UNL     1       1.947   3.733  18.259  0.00  0.00    +0.000 A 
ATOM      4  C   UNL     1       3.263   3.726  17.811  0.00  0.00    +0.000 A 
ATOM      5  C   UNL     1       4.182   4.627  18.355  0.00  0.00    +0.000 A 
ATOM      6  C   UNL     1       3.759   5.565  19.314  0.00  0.00    +0.000 A 
ENDROOT
BRANCH   5   7
ATOM      7  C   UNL     1       5.610   4.602  17.928  0.00  0.00    +0.000 C 
ATOM      8  O   UNL     1       6.506   4.565  18.763  0.00  0.00    +0.000 OA
ATOM      9  N   UNL     1       5.825   4.605  16.566  0.00  0.00    +0.000 N 
ATOM     10  H   UNL     1       5.044   4.495  15.933  0.00  0.00    +0.000 HD
BRANCH   9  11
ATOM     11  C   UNL     1       7.145   4.620  15.975  0.00  0.00    +0.000 C 
BRANCH  11  12
ATOM     12  C   UNL     1       7.065   4.600  14.466  0.00  0.00    +0.000 A 
ATOM     13  C   UNL     1       7.989   5.307  13.684  0.00  0.00    +0.000 A 
ATOM     14  C   UNL     1       7.877   5.322  12.292  0.00  0.00    +0.000 A 
ATOM     15  C   UNL     1       6.844   4.626  11.664  0.00  0.00    +0.000 A 
ATOM     16  C   UNL     1       5.911   3.904  12.421  0.00  0.00    +0.000 A 
ATOM     17  C   UNL     1       6.033   3.899  13.822  0.00  0.00    +0.000 A 
BRANCH  16  18
ATOM     18  C   UNL     1       4.789   3.143  11.759  0.00  0.00    +0.000 C 
ATOM     19  F   UNL     1       5.156   1.908  11.314  0.00  0.00    +0.000 F 
ATOM     20  F   UNL     1       3.737   2.935  12.599  0.00  0.00    +0.000 F 
ATOM     21  F   UNL     1       4.282   3.792  10.676  0.00  0.00    +0.000 F 
ENDBRANCH  16  18
ENDBRANCH  11  12
ENDBRANCH   9  11
ENDBRANCH   5   7
BRANCH   1  22
ATOM     22  N   UNL     1       2.086   6.462  20.819  0.00  0.00    +0.000 N 
ATOM     23  H   UNL     1       2.851   7.110  21.018  0.00  0.00    +0.000 HD
BRANCH  22  24
ATOM     24  C   UNL     1       0.798   7.166  20.788  0.00  0.00    +0.000 C 
BRANCH  24  27
ATOM     25  C   UNL     1       0.997   9.386  18.644  0.00  0.00    +0.000 C 
ATOM     26  N   UNL     1       0.925   9.607  20.067  0.00  0.00    +0.000 N 
ATOM     27  C   UNL     1       0.887   8.636  21.040  0.00  0.00    +0.000 A 
ATOM     28  N   UNL     1       0.991   9.216  22.217  0.00  0.00    +0.000 NA
ATOM     29  N   UNL     1       1.061  10.569  22.020  0.00  0.00    +0.000 NA
ATOM     30  C   UNL     1       0.967  10.820  20.726  0.00  0.00    +0.000 A 
BRANCH  30  31
ATOM     31  C   UNL     1       0.949  12.163  20.133  0.00  0.00    +0.000 A 
ATOM     32  C   UNL     1       1.771  13.161  20.669  0.00  0.00    +0.000 A 
ATOM     33  C   UNL     1       1.730  14.430  20.110  0.00  0.00    +0.000 A 
ATOM     34  N   UNL     1       0.943  14.766  19.068  0.00  0.00    +0.000 NA
ATOM     35  C   UNL     1       0.138  13.800  18.584  0.00  0.00    +0.000 A 
ATOM     36  C   UNL     1       0.097  12.509  19.084  0.00  0.00    +0.000 A 
ENDBRANCH  30  31
ENDBRANCH  24  27
ENDBRANCH  22  24
ENDBRANCH   1  22
TORSDOF 8
ENDMDL
MODEL 8
REMARK VINA RESULT:      -8.1      0.829      1.233
REMARK  Name = 
REMARK  9 active torsions:
REMARK  status: ('A' for Active; 'I' for Inactive)
REMARK    1  A    between atoms: C_1  and  N_2
REMARK    2  A    between atoms: C_3  and  C_4
REMARK    3  A    between atoms: C_4  and  N_5
REMARK    4  A    between atoms: N_5  and  C_6
REMARK    5  A    between atoms: C_10  and  C_11
REMARK    6  A    between atoms: N_13  and  C_14
REMARK    7  A    between atoms: C_14  and  C_15
REMARK    8  A    between atoms: C_19  and  C_20
REMARK    9  A    between atoms: C_28  and  C_29
REMARK                            x       y       z     vdW  Elec       q    Type
REMARK                         _______ _______ _______ _____ _____    ______ ____
ROOT
ATOM      1  C   UNL     1      -1.981  10.491  18.282  0.00  0.00    +0.000 A 
ATOM      2  C   UNL     1      -1.823  10.177  16.924  0.00  0.00    +0.000 A 
ATOM      3  C   UNL     1      -2.814  10.474  15.984  0.00  0.00    +0.000 A 
ATOM      4  C   UNL     1      -3.972  11.137  16.374  0.00  0.00    +0.000 A 
ATOM      5  C   UNL     1      -4.133  11.515  17.709  0.00  0.00    +0.000 A 
ATOM      6  C   UNL     1      -3.150  11.178  18.657  0.00  0.00    +0.000 A 
ENDROOT
BRANCH   5   7
ATOM      7  C   UNL     1      -5.342  12.273  18.140  0.00  0.00    +0.000 C 
ATOM      8  O   UNL     1      -6.439  12.016  17.660  0.00  0.00    +0.000 OA
ATOM      9  N   UNL     1      -5.129  13.237  19.103  0.00  0.00    +0.000 N 
ATOM     10  H   UNL     1      -4.228  13.304  19.558  0.00  0.00    +0.000 HD
BRANCH   9  11
ATOM     11  C   UNL     1      -6.179  14.091  19.611  0.00  0.00    +0.000 C 
BRANCH  11  12
ATOM     12  C   UNL     1      -6.365  13.898  21.099  0.00  0.00    +0.000 A 
ATOM     13  C   UNL     1      -7.573  14.232  21.726  0.00  0.00    +0.000 A 
ATOM     14  C   UNL     1      -7.717  14.096  23.108  0.00  0.00    +0.000 A 
ATOM     15  C   UNL     1      -6.658  13.620  23.881  0.00  0.00    +0.000 A 
ATOM     16  C   UNL     1      -5.441  13.271  23.279  0.00  0.00    +0.000 A 
ATOM     17  C   UNL     1      -5.307  13.415  21.886  0.00  0.00    +0.000 A 
BRANCH  16  18
ATOM     18  C   UNL     1      -4.284  12.751  24.097  0.00  0.00    +0.000 C 
ATOM     19  F   UNL     1      -3.460  11.914  23.406  0.00  0.00    +0.000 F 
ATOM     20  F   UNL     1      -3.488  13.753  24.563  0.00  0.00    +0.000 F 
ATOM     21  F   UNL     1      -4.690  12.053  25.193  0.00  0.00    +0.000 F 
ENDBRANCH  16  18
ENDBRANCH  11  12
ENDBRANCH   9  11
ENDBRANCH   5   7
BRANCH   1  22
ATOM     22  N   UNL     1      -0.969  10.299  19.237  0.00  0.00    +0.000 N 
ATOM     23  H   UNL     1      -0.988   9.344  19.600  0.00  0.00    +0.000 HD
BRANCH  22  24
ATOM     24  C   UNL     1       0.406  10.711  18.924  0.00  0.00    +0.000 C 
BRANCH  24  27
ATOM     25  C   UNL     1       1.205   8.297  20.684  0.00  0.00    +0.000 C 
ATOM     26  N   UNL     1       1.617   8.504  19.319  0.00  0.00    +0.000 N 
ATOM     27  C   UNL     1       1.317   9.593  18.535  0.00  0.00    +0.000 A 
ATOM     28  N   UNL     1       2.001   9.506  17.413  0.00  0.00    +0.000 NA
ATOM     29  N   UNL     1       2.723   8.343  17.445  0.00  0.00    +0.000 NA
ATOM     30  C   UNL     1       2.457   7.703  18.570  0.00  0.00    +0.000 A 
BRANCH  30  31
ATOM     31  C   UNL     1       3.003   6.390  18.935  0.00  0.00    +0.000 A 
ATOM     32  C   UNL     1       4.363   6.131  18.729  0.00  0.00    +0.000 A 
ATOM     33  C   UNL     1       4.862   4.881  19.062  0.00  0.00    +0.000 A 
ATOM     34  N   UNL     1       4.112   3.888  19.583  0.00  0.00    +0.000 NA
ATOM     35  C   UNL     1       2.800   4.146  19.748  0.00  0.00    +0.000 A 
ATOM     36  C   UNL     1       2.208   5.357  19.432  0.00  0.00    +0.000 A 
ENDBRANCH  30  31
ENDBRANCH  24  27
ENDBRANCH  22  24
ENDBRANCH   1  22
TORSDOF 8
ENDMDL
MODEL 9
REMARK VINA RESULT:      -8.1      0.720      1.201
REMARK  Name = 
REMARK  9 active torsions:
REMARK  status: ('A' for Active; 'I' for Inactive)
REMARK    1  A    between atoms: C_1  and  N_2
REMARK    2  A    between atoms: C_3  and  C_4
REMARK    3  A    between atoms: C_4  and  N_5
REMARK    4  A    between atoms: N_5  and  C_6
REMARK    5  A    between atoms: C_10  and  C_11
REMARK    6  A    between atoms: N_13  and  C_14
REMARK    7  A    between atoms: C_14  and  C_15
REMARK    8  A    between atoms: C_19  and  C_20
REMARK    9  A    between atoms: C_28  and  C_29
REMARK                            x       y       z     vdW  Elec       q    Type
REMARK                         _______ _______ _______ _____ _____    ______ ____
ROOT
ATOM      1  C   UNL     1      -1.631  11.082  18.388  0.00  0.00    +0.000 A 
ATOM      2  C   UNL     1      -1.783  10.123  17.375  0.00  0.00    +0.000 A 
ATOM      3  C   UNL     1      -3.041   9.783  16.871  0.00  0.00    +0.000 A 
ATOM      4  C   UNL     1      -4.179  10.430  17.338  0.00  0.00    +0.000 A 
ATOM      5  C   UNL     1      -4.056  11.431  18.305  0.00  0.00    +0.000 A 
ATOM      6  C   UNL     1      -2.791  11.741  18.835  0.00  0.00    +0.000 A 
ENDROOT
BRANCH   5   7
ATOM      7  C   UNL     1      -5.257  12.175  18.782  0.00  0.00    +0.000 C 
ATOM      8  O   UNL     1      -5.509  13.290  18.342  0.00  0.00    +0.000 OA
ATOM      9  N   UNL     1      -6.037  11.517  19.709  0.00  0.00    +0.000 N 
ATOM     10  H   UNL     1      -5.851  10.547  19.924  0.00  0.00    +0.000 HD
BRANCH   9  11
ATOM     11  C   UNL     1      -7.217  12.102  20.305  0.00  0.00    +0.000 C 
BRANCH  11  12
ATOM     12  C   UNL     1      -6.860  12.916  21.527  0.00  0.00    +0.000 A 
ATOM     13  C   UNL     1      -7.574  14.078  21.855  0.00  0.00    +0.000 A 
ATOM     14  C   UNL     1      -7.205  14.850  22.959  0.00  0.00    +0.000 A 
ATOM     15  C   UNL     1      -6.122  14.469  23.751  0.00  0.00    +0.000 A 
ATOM     16  C   UNL     1      -5.396  13.308  23.451  0.00  0.00    +0.000 A 
ATOM     17  C   UNL     1      -5.776  12.541  22.336  0.00  0.00    +0.000 A 
BRANCH  16  18
ATOM     18  C   UNL     1      -4.224  12.878  24.299  0.00  0.00    +0.000 C 
ATOM     19  F   UNL     1      -3.354  12.055  23.648  0.00  0.00    +0.000 F 
ATOM     20  F   UNL     1      -3.481  13.935  24.730  0.00  0.00    +0.000 F 
ATOM     21  F   UNL     1      -4.606  12.205  25.418  0.00  0.00    +0.000 F 
ENDBRANCH  16  18
ENDBRANCH  11  12
ENDBRANCH   9  11
ENDBRANCH   5   7
BRANCH   1  22
ATOM     22  N   UNL     1      -0.379  11.521  18.848  0.00  0.00    +0.000 N 
ATOM     23  H   UNL     1      -0.458  12.435  19.298  0.00  0.00    +0.000 HD
BRANCH  22  24
ATOM     24  C   UNL     1       0.454  10.615  19.649  0.00  0.00    +0.000 C 
BRANCH  24  27
ATOM     25  C   UNL     1       1.516   7.864  20.583  0.00  0.00    +0.000 C 
ATOM     26  N   UNL     1       1.708   8.429  19.272  0.00  0.00    +0.000 N 
ATOM     27  C   UNL     1       1.291   9.669  18.850  0.00  0.00    +0.000 A 
ATOM     28  N   UNL     1       1.790   9.898  17.654  0.00  0.00    +0.000 NA
ATOM     29  N   UNL     1       2.506   8.794  17.274  0.00  0.00    +0.000 NA
ATOM     30  C   UNL     1       2.418   7.878  18.222  0.00  0.00    +0.000 A 
BRANCH  30  31
ATOM     31  C   UNL     1       3.012   6.538  18.149  0.00  0.00    +0.000 A 
ATOM     32  C   UNL     1       4.400   6.408  18.023  0.00  0.00    +0.000 A 
ATOM     33  C   UNL     1       4.946   5.136  17.936  0.00  0.00    +0.000 A 
ATOM     34  N   UNL     1       4.217   4.002  17.972  0.00  0.00    +0.000 NA
ATOM     35  C   UNL     1       2.881   4.147  18.065  0.00  0.00    +0.000 A 
ATOM     36  C   UNL     1       2.243   5.374  18.141  0.00  0.00    +0.000 A 
ENDBRANCH  30  31
ENDBRANCH  24  27
ENDBRANCH  22  24
ENDBRANCH   1  22
TORSDOF 8
ENDMDL
