MODEL 1
REMARK VINA RESULT:      -9.3      0.000      0.000
REMARK  Name = 
REMARK  8 active torsions:
REMARK  status: ('A' for Active; 'I' for Inactive)
REMARK    1  A    between atoms: C_1  and  C_2
REMARK    2  A    between atoms: N_4  and  C_5
REMARK    3  A    between atoms: C_9  and  N_10
REMARK    4  A    between atoms: N_10  and  C_11
REMARK    5  A    between atoms: C_14  and  N_15
REMARK    6  A    between atoms: N_15  and  S_16
REMARK    7  A    between atoms: S_16  and  C_17
REMARK    8  A    between atoms: C_21  and  C_22
REMARK                            x       y       z     vdW  Elec       q    Type
REMARK                         _______ _______ _______ _____ _____    ______ ____
ROOT
ATOM      1  C   UNL     1       5.296   5.798  15.632  0.00  0.00    +0.000 A 
ATOM      2  C   UNL     1       5.160   6.991  16.319  0.00  0.00    +0.000 A 
ATOM      3  C   UNL     1       4.454   7.036  17.511  0.00  0.00    +0.000 A 
ATOM      4  C   UNL     1       3.800   5.907  18.021  0.00  0.00    +0.000 A 
ATOM      5  C   UNL     1       2.978   5.943  19.176  0.00  0.00    +0.000 A 
ATOM      6  C   UNL     1       2.445   4.731  19.688  0.00  0.00    +0.000 A 
ATOM      7  C   UNL     1       1.618   4.647  20.839  0.00  0.00    +0.000 A 
ATOM      8  C   UNL     1       1.143   3.420  21.305  0.00  0.00    +0.000 A 
ATOM      9  C   UNL     1       1.484   2.257  20.630  0.00  0.00    +0.000 A 
ATOM     10  C   UNL     1       2.274   2.332  19.479  0.00  0.00    +0.000 A 
ATOM     11  C   UNL     1       2.745   3.546  18.986  0.00  0.00    +0.000 A 
ATOM     12  N   UNL     1       3.462   3.530  17.845  0.00  0.00    +0.000 NA
ATOM     13  C   UNL     1       3.966   4.678  17.358  0.00  0.00    +0.000 A 
ATOM     14  C   UNL     1       4.690   4.649  16.161  0.00  0.00    +0.000 A 
ENDROOT
BRANCH   1  18
ATOM     15  C   UNL     1       7.855   5.238  12.917  0.00  0.00    +0.000 C 
ATOM     16  C   UNL     1       7.281   5.123  14.300  0.00  0.00    +0.000 C 
ATOM     17  O   UNL     1       7.912   4.537  15.176  0.00  0.00    +0.000 OA
ATOM     18  N   UNL     1       6.030   5.711  14.427  0.00  0.00    +0.000 N 
ATOM     19  H   UNL     1       5.562   6.008  13.582  0.00  0.00    +0.000 HD
ENDBRANCH   1  18
BRANCH   5  20
ATOM     20  N   UNL     1       2.671   7.177  19.821  0.00  0.00    +0.000 N 
ATOM     21  H   UNL     1       3.177   7.306  20.690  0.00  0.00    +0.000 HD
BRANCH  20  22
ATOM     22  C   UNL     1       1.827   8.241  19.425  0.00  0.00    +0.000 A 
ATOM     23  C   UNL     1       1.733   8.636  18.077  0.00  0.00    +0.000 A 
ATOM     24  C   UNL     1       0.893   9.677  17.666  0.00  0.00    +0.000 A 
ATOM     25  C   UNL     1       0.097  10.319  18.602  0.00  0.00    +0.000 A 
ATOM     26  C   UNL     1       0.204   9.989  19.951  0.00  0.00    +0.000 A 
ATOM     27  C   UNL     1       1.066   8.956  20.376  0.00  0.00    +0.000 A 
ATOM     28  C   UNL     1       1.111   8.629  21.845  0.00  0.00    +0.000 C 
BRANCH  25  29
ATOM     29  N   UNL     1      -0.952  11.188  18.191  0.00  0.00    +0.000 N 
ATOM     30  H   UNL     1      -1.219  11.883  18.892  0.00  0.00    +0.000 HD
BRANCH  29  31
ATOM     31  S   UNL     1      -2.331  10.567  17.457  0.00  0.00    +0.000 S 
ATOM     32  C   UNL     1      -3.563  11.701  18.058  0.00  0.00    +0.000 C 
ATOM     33  O   UNL     1      -2.239  10.680  16.018  0.00  0.00    +0.000 OA
ATOM     34  O   UNL     1      -2.565   9.294  18.100  0.00  0.00    +0.000 OA
ENDBRANCH  29  31
ENDBRANCH  25  29
ENDBRANCH  20  22
ENDBRANCH   5  20
TORSDOF 5
ENDMDL
MODEL 2
REMARK VINA RESULT:      -9.2      2.100      2.519
REMARK  Name = 
REMARK  8 active torsions:
REMARK  status: ('A' for Active; 'I' for Inactive)
REMARK    1  A    between atoms: C_1  and  C_2
REMARK    2  A    between atoms: N_4  and  C_5
REMARK    3  A    between atoms: C_9  and  N_10
REMARK    4  A    between atoms: N_10  and  C_11
REMARK    5  A    between atoms: C_14  and  N_15
REMARK    6  A    between atoms: N_15  and  S_16
REMARK    7  A    between atoms: S_16  and  C_17
REMARK    8  A    between atoms: C_21  and  C_22
REMARK                            x       y       z     vdW  Elec       q    Type
REMARK                         _______ _______ _______ _____ _____    ______ ____
ROOT
ATOM      1  C   UNL     1       5.239   4.908  15.363  0.00  0.00    +0.000 A 
ATOM      2  C   UNL     1       5.355   6.137  15.986  0.00  0.00    +0.000 A 
ATOM      3  C   UNL     1       4.785   6.348  17.231  0.00  0.00    +0.000 A 
ATOM      4  C   UNL     1       4.020   5.361  17.865  0.00  0.00    +0.000 A 
ATOM      5  C   UNL     1       3.330   5.579  19.086  0.00  0.00    +0.000 A 
ATOM      6  C   UNL     1       2.671   4.492  19.716  0.00  0.00    +0.000 A 
ATOM      7  C   UNL     1       1.958   4.593  20.940  0.00  0.00    +0.000 A 
ATOM      8  C   UNL     1       1.349   3.479  21.521  0.00  0.00    +0.000 A 
ATOM      9  C   UNL     1       1.440   2.248  20.889  0.00  0.00    +0.000 A 
ATOM     10  C   UNL     1       2.115   2.143  19.670  0.00  0.00    +0.000 A 
ATOM     11  C   UNL     1       2.715   3.244  19.063  0.00  0.00    +0.000 A 
ATOM     12  N   UNL     1       3.306   3.062  17.866  0.00  0.00    +0.000 NA
ATOM     13  C   UNL     1       3.929   4.093  17.266  0.00  0.00    +0.000 A 
ATOM     14  C   UNL     1       4.519   3.894  16.012  0.00  0.00    +0.000 A 
ENDROOT
BRANCH   1  18
ATOM     15  C   UNL     1       7.463   4.656  12.326  0.00  0.00    +0.000 C 
ATOM     16  C   UNL     1       7.128   4.986  13.752  0.00  0.00    +0.000 C 
ATOM     17  O   UNL     1       7.981   5.490  14.478  0.00  0.00    +0.000 OA
ATOM     18  N   UNL     1       5.829   4.650  14.104  0.00  0.00    +0.000 N 
ATOM     19  H   UNL     1       5.295   4.090  13.454  0.00  0.00    +0.000 HD
ENDBRANCH   1  18
BRANCH   5  20
ATOM     20  N   UNL     1       3.280   6.875  19.679  0.00  0.00    +0.000 N 
ATOM     21  H   UNL     1       4.194   7.222  19.948  0.00  0.00    +0.000 HD
BRANCH  20  22
ATOM     22  C   UNL     1       2.190   7.747  19.904  0.00  0.00    +0.000 A 
ATOM     23  C   UNL     1       1.474   7.725  21.117  0.00  0.00    +0.000 A 
ATOM     24  C   UNL     1       0.403   8.590  21.362  0.00  0.00    +0.000 A 
ATOM     25  C   UNL     1       0.052   9.528  20.403  0.00  0.00    +0.000 A 
ATOM     26  C   UNL     1       0.704   9.542  19.172  0.00  0.00    +0.000 A 
ATOM     27  C   UNL     1       1.771   8.657  18.908  0.00  0.00    +0.000 A 
ATOM     28  C   UNL     1       2.453   8.746  17.570  0.00  0.00    +0.000 C 
BRANCH  25  29
ATOM     29  N   UNL     1      -0.845  10.588  20.714  0.00  0.00    +0.000 N 
ATOM     30  H   UNL     1      -1.273  11.028  19.898  0.00  0.00    +0.000 HD
BRANCH  29  31
ATOM     31  S   UNL     1      -0.410  11.768  21.830  0.00  0.00    +0.000 S 
ATOM     32  C   UNL     1      -1.591  13.039  21.442  0.00  0.00    +0.000 C 
ATOM     33  O   UNL     1      -0.634  11.302  23.181  0.00  0.00    +0.000 OA
ATOM     34  O   UNL     1       0.888  12.239  21.400  0.00  0.00    +0.000 OA
ENDBRANCH  29  31
ENDBRANCH  25  29
ENDBRANCH  20  22
ENDBRANCH   5  20
TORSDOF 5
ENDMDL
MODEL 3
REMARK VINA RESULT:      -9.2      1.712      1.801
REMARK  Name = 
REMARK  8 active torsions:
REMARK  status: ('A' for Active; 'I' for Inactive)
REMARK    1  A    between atoms: C_1  and  C_2
REMARK    2  A    between atoms: N_4  and  C_5
REMARK    3  A    between atoms: C_9  and  N_10
REMARK    4  A    between atoms: N_10  and  C_11
REMARK    5  A    between atoms: C_14  and  N_15
REMARK    6  A    between atoms: N_15  and  S_16
REMARK    7  A    between atoms: S_16  and  C_17
REMARK    8  A    between atoms: C_21  and  C_22
REMARK                            x       y       z     vdW  Elec       q    Type
REMARK                         _______ _______ _______ _____ _____    ______ ____
ROOT
ATOM      1  C   UNL     1       5.812   4.916  15.440  0.00  0.00    +0.000 A 
ATOM      2  C   UNL     1       5.858   6.104  16.147  0.00  0.00    +0.000 A 
ATOM      3  C   UNL     1       5.088   6.270  17.287  0.00  0.00    +0.000 A 
ATOM      4  C   UNL     1       4.194   5.283  17.721  0.00  0.00    +0.000 A 
ATOM      5  C   UNL     1       3.312   5.463  18.817  0.00  0.00    +0.000 A 
ATOM      6  C   UNL     1       2.520   4.371  19.258  0.00  0.00    +0.000 A 
ATOM      7  C   UNL     1       1.610   4.435  20.347  0.00  0.00    +0.000 A 
ATOM      8  C   UNL     1       0.875   3.317  20.746  0.00  0.00    +0.000 A 
ATOM      9  C   UNL     1       1.035   2.119  20.066  0.00  0.00    +0.000 A 
ATOM     10  C   UNL     1       1.907   2.053  18.976  0.00  0.00    +0.000 A 
ATOM     11  C   UNL     1       2.637   3.159  18.548  0.00  0.00    +0.000 A 
ATOM     12  N   UNL     1       3.419   3.018  17.460  0.00  0.00    +0.000 NA
ATOM     13  C   UNL     1       4.169   4.054  17.040  0.00  0.00    +0.000 A 
ATOM     14  C   UNL     1       4.960   3.899  15.895  0.00  0.00    +0.000 A 
ENDROOT
BRANCH   1  18
ATOM     15  C   UNL     1       7.238   3.926  12.091  0.00  0.00    +0.000 C 
ATOM     16  C   UNL     1       6.163   4.080  13.128  0.00  0.00    +0.000 C 
ATOM     17  O   UNL     1       5.026   3.681  12.891  0.00  0.00    +0.000 OA
ATOM     18  N   UNL     1       6.602   4.703  14.288  0.00  0.00    +0.000 N 
ATOM     19  H   UNL     1       7.520   5.127  14.275  0.00  0.00    +0.000 HD
ENDBRANCH   1  18
BRANCH   5  20
ATOM     20  N   UNL     1       3.201   6.725  19.471  0.00  0.00    +0.000 N 
ATOM     21  H   UNL     1       3.847   6.827  20.246  0.00  0.00    +0.000 HD
BRANCH  20  22
ATOM     22  C   UNL     1       2.385   7.845  19.187  0.00  0.00    +0.000 A 
ATOM     23  C   UNL     1       2.449   8.498  17.941  0.00  0.00    +0.000 A 
ATOM     24  C   UNL     1       1.638   9.597  17.637  0.00  0.00    +0.000 A 
ATOM     25  C   UNL     1       0.714  10.040  18.571  0.00  0.00    +0.000 A 
ATOM     26  C   UNL     1       0.663   9.452  19.832  0.00  0.00    +0.000 A 
ATOM     27  C   UNL     1       1.492   8.357  20.154  0.00  0.00    +0.000 A 
ATOM     28  C   UNL     1       1.364   7.748  21.524  0.00  0.00    +0.000 C 
BRANCH  25  29
ATOM     29  N   UNL     1      -0.298  10.972  18.208  0.00  0.00    +0.000 N 
ATOM     30  H   UNL     1      -0.437  11.068  17.200  0.00  0.00    +0.000 HD
BRANCH  29  31
ATOM     31  S   UNL     1      -0.359  12.487  18.934  0.00  0.00    +0.000 S 
ATOM     32  C   UNL     1      -1.813  12.311  19.942  0.00  0.00    +0.000 C 
ATOM     33  O   UNL     1       0.792  12.692  19.786  0.00  0.00    +0.000 OA
ATOM     34  O   UNL     1      -0.681  13.408  17.867  0.00  0.00    +0.000 OA
ENDBRANCH  29  31
ENDBRANCH  25  29
ENDBRANCH  20  22
ENDBRANCH   5  20
TORSDOF 5
ENDMDL
MODEL 4
REMARK VINA RESULT:      -9.1      2.040      2.508
REMARK  Name = 
REMARK  8 active torsions:
REMARK  status: ('A' for Active; 'I' for Inactive)
REMARK    1  A    between atoms: C_1  and  C_2
REMARK    2  A    between atoms: N_4  and  C_5
REMARK    3  A    between atoms: C_9  and  N_10
REMARK    4  A    between atoms: N_10  and  C_11
REMARK    5  A    between atoms: C_14  and  N_15
REMARK    6  A    between atoms: N_15  and  S_16
REMARK    7  A    between atoms: S_16  and  C_17
REMARK    8  A    between atoms: C_21  and  C_22
REMARK                            x       y       z     vdW  Elec       q    Type
REMARK                         _______ _______ _______ _____ _____    ______ ____
ROOT
ATOM      1  C   UNL     1       5.984   5.536  15.800  0.00  0.00    +0.000 A 
ATOM      2  C   UNL     1       6.004   6.596  16.689  0.00  0.00    +0.000 A 
ATOM      3  C   UNL     1       5.145   6.615  17.776  0.00  0.00    +0.000 A 
ATOM      4  C   UNL     1       4.187   5.612  17.973  0.00  0.00    +0.000 A 
ATOM      5  C   UNL     1       3.219   5.656  19.010  0.00  0.00    +0.000 A 
ATOM      6  C   UNL     1       2.360   4.545  19.206  0.00  0.00    +0.000 A 
ATOM      7  C   UNL     1       1.362   4.477  20.215  0.00  0.00    +0.000 A 
ATOM      8  C   UNL     1       0.562   3.343  20.371  0.00  0.00    +0.000 A 
ATOM      9  C   UNL     1       0.743   2.261  19.523  0.00  0.00    +0.000 A 
ATOM     10  C   UNL     1       1.703   2.328  18.509  0.00  0.00    +0.000 A 
ATOM     11  C   UNL     1       2.501   3.455  18.324  0.00  0.00    +0.000 A 
ATOM     12  N   UNL     1       3.369   3.452  17.293  0.00  0.00    +0.000 NA
ATOM     13  C   UNL     1       4.184   4.507  17.105  0.00  0.00    +0.000 A 
ATOM     14  C   UNL     1       5.065   4.499  16.017  0.00  0.00    +0.000 A 
ENDROOT
BRANCH   1  18
ATOM     15  C   UNL     1       7.821   4.735  12.605  0.00  0.00    +0.000 C 
ATOM     16  C   UNL     1       6.694   4.647  13.593  0.00  0.00    +0.000 C 
ATOM     17  O   UNL     1       5.742   3.904  13.367  0.00  0.00    +0.000 OA
ATOM     18  N   UNL     1       6.863   5.472  14.696  0.00  0.00    +0.000 N 
ATOM     19  H   UNL     1       7.612   6.150  14.665  0.00  0.00    +0.000 HD
ENDBRANCH   1  18
BRANCH   5  20
ATOM     20  N   UNL     1       3.091   6.805  19.846  0.00  0.00    +0.000 N 
ATOM     21  H   UNL     1       3.912   6.972  20.416  0.00  0.00    +0.000 HD
BRANCH  20  22
ATOM     22  C   UNL     1       2.043   7.747  19.967  0.00  0.00    +0.000 A 
ATOM     23  C   UNL     1       1.270   7.832  21.141  0.00  0.00    +0.000 A 
ATOM     24  C   UNL     1       0.239   8.767  21.284  0.00  0.00    +0.000 A 
ATOM     25  C   UNL     1      -0.010   9.667  20.259  0.00  0.00    +0.000 A 
ATOM     26  C   UNL     1       0.700   9.576  19.065  0.00  0.00    +0.000 A 
ATOM     27  C   UNL     1       1.726   8.621  18.904  0.00  0.00    +0.000 A 
ATOM     28  C   UNL     1       2.475   8.596  17.599  0.00  0.00    +0.000 C 
BRANCH  25  29
ATOM     29  N   UNL     1      -0.858  10.791  20.468  0.00  0.00    +0.000 N 
ATOM     30  H   UNL     1      -1.397  11.067  19.645  0.00  0.00    +0.000 HD
BRANCH  29  31
ATOM     31  S   UNL     1      -0.276  12.161  21.248  0.00  0.00    +0.000 S 
ATOM     32  C   UNL     1      -1.085  12.010  22.825  0.00  0.00    +0.000 C 
ATOM     33  O   UNL     1       1.156  12.074  21.434  0.00  0.00    +0.000 OA
ATOM     34  O   UNL     1      -0.880  13.279  20.558  0.00  0.00    +0.000 OA
ENDBRANCH  29  31
ENDBRANCH  25  29
ENDBRANCH  20  22
ENDBRANCH   5  20
TORSDOF 5
ENDMDL
MODEL 5
REMARK VINA RESULT:      -8.8      1.292      1.771
REMARK  Name = 
REMARK  8 active torsions:
REMARK  status: ('A' for Active; 'I' for Inactive)
REMARK    1  A    between atoms: C_1  and  C_2
REMARK    2  A    between atoms: N_4  and  C_5
REMARK    3  A    between atoms: C_9  and  N_10
REMARK    4  A    between atoms: N_10  and  C_11
REMARK    5  A    between atoms: C_14  and  N_15
REMARK    6  A    between atoms: N_15  and  S_16
REMARK    7  A    between atoms: S_16  and  C_17
REMARK    8  A    between atoms: C_21  and  C_22
REMARK                            x       y       z     vdW  Elec       q    Type
REMARK                         _______ _______ _______ _____ _____    ______ ____
ROOT
ATOM      1  C   UNL     1       5.767   5.562  15.557  0.00  0.00    +0.000 A 
ATOM      2  C   UNL     1       5.829   6.607  16.461  0.00  0.00    +0.000 A 
ATOM      3  C   UNL     1       5.018   6.609  17.585  0.00  0.00    +0.000 A 
ATOM      4  C   UNL     1       4.068   5.604  17.808  0.00  0.00    +0.000 A 
ATOM      5  C   UNL     1       3.147   5.633  18.887  0.00  0.00    +0.000 A 
ATOM      6  C   UNL     1       2.295   4.519  19.103  0.00  0.00    +0.000 A 
ATOM      7  C   UNL     1       1.343   4.436  20.154  0.00  0.00    +0.000 A 
ATOM      8  C   UNL     1       0.548   3.301  20.327  0.00  0.00    +0.000 A 
ATOM      9  C   UNL     1       0.690   2.232  19.455  0.00  0.00    +0.000 A 
ATOM     10  C   UNL     1       1.605   2.315  18.401  0.00  0.00    +0.000 A 
ATOM     11  C   UNL     1       2.395   3.444  18.199  0.00  0.00    +0.000 A 
ATOM     12  N   UNL     1       3.217   3.456  17.131  0.00  0.00    +0.000 NA
ATOM     13  C   UNL     1       4.024   4.513  16.923  0.00  0.00    +0.000 A 
ATOM     14  C   UNL     1       4.857   4.522  15.798  0.00  0.00    +0.000 A 
ENDROOT
BRANCH   1  18
ATOM     15  C   UNL     1       7.649   4.661  12.414  0.00  0.00    +0.000 C 
ATOM     16  C   UNL     1       6.617   4.479  13.490  0.00  0.00    +0.000 C 
ATOM     17  O   UNL     1       5.889   3.490  13.475  0.00  0.00    +0.000 OA
ATOM     18  N   UNL     1       6.597   5.514  14.414  0.00  0.00    +0.000 N 
ATOM     19  H   UNL     1       7.138   6.341  14.205  0.00  0.00    +0.000 HD
ENDBRANCH   1  18
BRANCH   5  20
ATOM     20  N   UNL     1       3.058   6.768  19.746  0.00  0.00    +0.000 N 
ATOM     21  H   UNL     1       3.868   6.874  20.346  0.00  0.00    +0.000 HD
BRANCH  20  22
ATOM     22  C   UNL     1       2.064   7.768  19.856  0.00  0.00    +0.000 A 
ATOM     23  C   UNL     1       1.265   7.880  21.011  0.00  0.00    +0.000 A 
ATOM     24  C   UNL     1       0.287   8.872  21.143  0.00  0.00    +0.000 A 
ATOM     25  C   UNL     1       0.118   9.800  20.127  0.00  0.00    +0.000 A 
ATOM     26  C   UNL     1       0.853   9.686  18.950  0.00  0.00    +0.000 A 
ATOM     27  C   UNL     1       1.826   8.675  18.800  0.00  0.00    +0.000 A 
ATOM     28  C   UNL     1       2.607   8.626  17.514  0.00  0.00    +0.000 C 
BRANCH  25  29
ATOM     29  N   UNL     1      -0.669  10.968  20.332  0.00  0.00    +0.000 N 
ATOM     30  H   UNL     1      -1.190  10.973  21.211  0.00  0.00    +0.000 HD
BRANCH  29  31
ATOM     31  S   UNL     1      -1.640  11.565  19.096  0.00  0.00    +0.000 S 
ATOM     32  C   UNL     1      -2.900  12.394  20.039  0.00  0.00    +0.000 C 
ATOM     33  O   UNL     1      -0.919  12.536  18.303  0.00  0.00    +0.000 OA
ATOM     34  O   UNL     1      -2.248  10.400  18.492  0.00  0.00    +0.000 OA
ENDBRANCH  29  31
ENDBRANCH  25  29
ENDBRANCH  20  22
ENDBRANCH   5  20
TORSDOF 5
ENDMDL
MODEL 6
REMARK VINA RESULT:      -8.7      1.282      1.391
REMARK  Name = 
REMARK  8 active torsions:
REMARK  status: ('A' for Active; 'I' for Inactive)
REMARK    1  A    between atoms: C_1  and  C_2
REMARK    2  A    between atoms: N_4  and  C_5
REMARK    3  A    between atoms: C_9  and  N_10
REMARK    4  A    between atoms: N_10  and  C_11
REMARK    5  A    between atoms: C_14  and  N_15
REMARK    6  A    between atoms: N_15  and  S_16
REMARK    7  A    between atoms: S_16  and  C_17
REMARK    8  A    between atoms: C_21  and  C_22
REMARK                            x       y       z     vdW  Elec       q    Type
REMARK                         _______ _______ _______ _____ _____    ______ ____
ROOT
ATOM      1  C   UNL     1       5.713   4.883  15.351  0.00  0.00    +0.000 A 
ATOM      2  C   UNL     1       5.784   6.086  16.031  0.00  0.00    +0.000 A 
ATOM      3  C   UNL     1       5.009   6.298  17.160  0.00  0.00    +0.000 A 
ATOM      4  C   UNL     1       4.086   5.345  17.608  0.00  0.00    +0.000 A 
ATOM      5  C   UNL     1       3.199   5.573  18.692  0.00  0.00    +0.000 A 
ATOM      6  C   UNL     1       2.375   4.513  19.150  0.00  0.00    +0.000 A 
ATOM      7  C   UNL     1       1.458   4.625  20.229  0.00  0.00    +0.000 A 
ATOM      8  C   UNL     1       0.690   3.537  20.647  0.00  0.00    +0.000 A 
ATOM      9  C   UNL     1       0.825   2.320  19.997  0.00  0.00    +0.000 A 
ATOM     10  C   UNL     1       1.704   2.206  18.916  0.00  0.00    +0.000 A 
ATOM     11  C   UNL     1       2.466   3.282  18.470  0.00  0.00    +0.000 A 
ATOM     12  N   UNL     1       3.254   3.096  17.392  0.00  0.00    +0.000 NA
ATOM     13  C   UNL     1       4.035   4.101  16.955  0.00  0.00    +0.000 A 
ATOM     14  C   UNL     1       4.830   3.900  15.822  0.00  0.00    +0.000 A 
ENDROOT
BRANCH   1  18
ATOM     15  C   UNL     1       7.137   3.791  12.033  0.00  0.00    +0.000 C 
ATOM     16  C   UNL     1       6.057   4.002  13.055  0.00  0.00    +0.000 C 
ATOM     17  O   UNL     1       4.908   3.645  12.810  0.00  0.00    +0.000 OA
ATOM     18  N   UNL     1       6.507   4.623  14.211  0.00  0.00    +0.000 N 
ATOM     19  H   UNL     1       7.441   5.010  14.204  0.00  0.00    +0.000 HD
ENDBRANCH   1  18
BRANCH   5  20
ATOM     20  N   UNL     1       3.116   6.853  19.315  0.00  0.00    +0.000 N 
ATOM     21  H   UNL     1       3.806   6.982  20.047  0.00  0.00    +0.000 HD
BRANCH  20  22
ATOM     22  C   UNL     1       2.274   7.958  19.049  0.00  0.00    +0.000 A 
ATOM     23  C   UNL     1       2.204   8.531  17.765  0.00  0.00    +0.000 A 
ATOM     24  C   UNL     1       1.366   9.614  17.480  0.00  0.00    +0.000 A 
ATOM     25  C   UNL     1       0.546  10.120  18.477  0.00  0.00    +0.000 A 
ATOM     26  C   UNL     1       0.628   9.612  19.771  0.00  0.00    +0.000 A 
ATOM     27  C   UNL     1       1.488   8.535  20.072  0.00  0.00    +0.000 A 
ATOM     28  C   UNL     1       1.506   8.013  21.483  0.00  0.00    +0.000 C 
BRANCH  25  29
ATOM     29  N   UNL     1      -0.500  11.033  18.166  0.00  0.00    +0.000 N 
ATOM     30  H   UNL     1      -0.466  11.906  18.696  0.00  0.00    +0.000 HD
BRANCH  29  31
ATOM     31  S   UNL     1      -2.090  10.498  18.058  0.00  0.00    +0.000 S 
ATOM     32  C   UNL     1      -2.236  10.247  16.304  0.00  0.00    +0.000 C 
ATOM     33  O   UNL     1      -2.250   9.232  18.738  0.00  0.00    +0.000 OA
ATOM     34  O   UNL     1      -2.902  11.645  18.400  0.00  0.00    +0.000 OA
ENDBRANCH  29  31
ENDBRANCH  25  29
ENDBRANCH  20  22
ENDBRANCH   5  20
TORSDOF 5
ENDMDL
MODEL 7
REMARK VINA RESULT:      -8.6      3.706      8.673
REMARK  Name = 
REMARK  8 active torsions:
REMARK  status: ('A' for Active; 'I' for Inactive)
REMARK    1  A    between atoms: C_1  and  C_2
REMARK    2  A    between atoms: N_4  and  C_5
REMARK    3  A    between atoms: C_9  and  N_10
REMARK    4  A    between atoms: N_10  and  C_11
REMARK    5  A    between atoms: C_14  and  N_15
REMARK    6  A    between atoms: N_15  and  S_16
REMARK    7  A    between atoms: S_16  and  C_17
REMARK    8  A    between atoms: C_21  and  C_22
REMARK                            x       y       z     vdW  Elec       q    Type
REMARK                         _______ _______ _______ _____ _____    ______ ____
ROOT
ATOM      1  C   UNL     1      -3.398  10.399  16.175  0.00  0.00    +0.000 A 
ATOM      2  C   UNL     1      -2.120   9.893  16.326  0.00  0.00    +0.000 A 
ATOM      3  C   UNL     1      -1.396  10.152  17.478  0.00  0.00    +0.000 A 
ATOM      4  C   UNL     1      -1.894  10.983  18.488  0.00  0.00    +0.000 A 
ATOM      5  C   UNL     1      -1.137  11.359  19.628  0.00  0.00    +0.000 A 
ATOM      6  C   UNL     1      -1.758  12.113  20.657  0.00  0.00    +0.000 A 
ATOM      7  C   UNL     1      -1.101  12.537  21.843  0.00  0.00    +0.000 A 
ATOM      8  C   UNL     1      -1.775  13.258  22.830  0.00  0.00    +0.000 A 
ATOM      9  C   UNL     1      -3.114  13.569  22.650  0.00  0.00    +0.000 A 
ATOM     10  C   UNL     1      -3.763  13.181  21.474  0.00  0.00    +0.000 A 
ATOM     11  C   UNL     1      -3.107  12.477  20.469  0.00  0.00    +0.000 A 
ATOM     12  N   UNL     1      -3.796  12.182  19.349  0.00  0.00    +0.000 NA
ATOM     13  C   UNL     1      -3.208  11.469  18.371  0.00  0.00    +0.000 A 
ATOM     14  C   UNL     1      -3.930  11.191  17.204  0.00  0.00    +0.000 A 
ENDROOT
BRANCH   1  18
ATOM     15  C   UNL     1      -4.725   9.729  12.708  0.00  0.00    +0.000 C 
ATOM     16  C   UNL     1      -3.663   9.912  13.754  0.00  0.00    +0.000 C 
ATOM     17  O   UNL     1      -2.478   9.843  13.439  0.00  0.00    +0.000 OA
ATOM     18  N   UNL     1      -4.175  10.135  15.025  0.00  0.00    +0.000 N 
ATOM     19  H   UNL     1      -5.167   9.999  15.162  0.00  0.00    +0.000 HD
ENDBRANCH   1  18
BRANCH   5  20
ATOM     20  N   UNL     1       0.239  11.001  19.746  0.00  0.00    +0.000 N 
ATOM     21  H   UNL     1       0.845  11.803  19.877  0.00  0.00    +0.000 HD
BRANCH  20  22
ATOM     22  C   UNL     1       0.866   9.734  19.754  0.00  0.00    +0.000 A 
ATOM     23  C   UNL     1       1.571   9.261  18.630  0.00  0.00    +0.000 A 
ATOM     24  C   UNL     1       2.210   8.016  18.626  0.00  0.00    +0.000 A 
ATOM     25  C   UNL     1       2.187   7.235  19.772  0.00  0.00    +0.000 A 
ATOM     26  C   UNL     1       1.455   7.649  20.882  0.00  0.00    +0.000 A 
ATOM     27  C   UNL     1       0.789   8.893  20.886  0.00  0.00    +0.000 A 
ATOM     28  C   UNL     1       0.042   9.294  22.130  0.00  0.00    +0.000 C 
BRANCH  25  29
ATOM     29  N   UNL     1       3.036   6.100  19.896  0.00  0.00    +0.000 N 
ATOM     30  H   UNL     1       3.841   6.109  19.266  0.00  0.00    +0.000 HD
BRANCH  29  31
ATOM     31  S   UNL     1       2.383   4.553  19.958  0.00  0.00    +0.000 S 
ATOM     32  C   UNL     1       3.810   3.575  19.545  0.00  0.00    +0.000 C 
ATOM     33  O   UNL     1       1.955   4.232  21.301  0.00  0.00    +0.000 OA
ATOM     34  O   UNL     1       1.470   4.479  18.838  0.00  0.00    +0.000 OA
ENDBRANCH  29  31
ENDBRANCH  25  29
ENDBRANCH  20  22
ENDBRANCH   5  20
TORSDOF 5
ENDMDL
MODEL 8
REMARK VINA RESULT:      -8.5      1.045      1.644
REMARK  Name = 
REMARK  8 active torsions:
REMARK  status: ('A' for Active; 'I' for Inactive)
REMARK    1  A    between atoms: C_1  and  C_2
REMARK    2  A    between atoms: N_4  and  C_5
REMARK    3  A    between atoms: C_9  and  N_10
REMARK    4  A    between atoms: N_10  and  C_11
REMARK    5  A    between atoms: C_14  and  N_15
REMARK    6  A    between atoms: N_15  and  S_16
REMARK    7  A    between atoms: S_16  and  C_17
REMARK    8  A    between atoms: C_21  and  C_22
REMARK                            x       y       z     vdW  Elec       q    Type
REMARK                         _______ _______ _______ _____ _____    ______ ____
ROOT
ATOM      1  C   UNL     1       5.266   5.472  15.513  0.00  0.00    +0.000 A 
ATOM      2  C   UNL     1       5.327   6.626  16.273  0.00  0.00    +0.000 A 
ATOM      3  C   UNL     1       4.684   6.692  17.499  0.00  0.00    +0.000 A 
ATOM      4  C   UNL     1       3.900   5.634  17.976  0.00  0.00    +0.000 A 
ATOM      5  C   UNL     1       3.139   5.709  19.171  0.00  0.00    +0.000 A 
ATOM      6  C   UNL     1       2.463   4.553  19.638  0.00  0.00    +0.000 A 
ATOM      7  C   UNL     1       1.681   4.511  20.823  0.00  0.00    +0.000 A 
ATOM      8  C   UNL     1       1.057   3.333  21.242  0.00  0.00    +0.000 A 
ATOM      9  C   UNL     1       1.203   2.181  20.485  0.00  0.00    +0.000 A 
ATOM     10  C   UNL     1       1.948   2.218  19.302  0.00  0.00    +0.000 A 
ATOM     11  C   UNL     1       2.563   3.384  18.856  0.00  0.00    +0.000 A 
ATOM     12  N   UNL     1       3.224   3.342  17.682  0.00  0.00    +0.000 NA
ATOM     13  C   UNL     1       3.864   4.439  17.237  0.00  0.00    +0.000 A 
ATOM     14  C   UNL     1       4.526   4.385  16.005  0.00  0.00    +0.000 A 
ENDROOT
BRANCH   1  18
ATOM     15  C   UNL     1       7.720   5.049  12.680  0.00  0.00    +0.000 C 
ATOM     16  C   UNL     1       7.265   5.021  14.111  0.00  0.00    +0.000 C 
ATOM     17  O   UNL     1       8.056   4.704  14.996  0.00  0.00    +0.000 OA
ATOM     18  N   UNL     1       5.929   5.360  14.270  0.00  0.00    +0.000 N 
ATOM     19  H   UNL     1       5.361   5.434  13.438  0.00  0.00    +0.000 HD
ENDBRANCH   1  18
BRANCH   5  20
ATOM     20  N   UNL     1       3.036   6.931  19.900  0.00  0.00    +0.000 N 
ATOM     21  H   UNL     1       3.874   7.149  20.427  0.00  0.00    +0.000 HD
BRANCH  20  22
ATOM     22  C   UNL     1       1.992   7.883  19.964  0.00  0.00    +0.000 A 
ATOM     23  C   UNL     1       1.156   7.975  21.094  0.00  0.00    +0.000 A 
ATOM     24  C   UNL     1       0.128   8.920  21.181  0.00  0.00    +0.000 A 
ATOM     25  C   UNL     1      -0.056   9.822  20.144  0.00  0.00    +0.000 A 
ATOM     26  C   UNL     1       0.718   9.725  18.990  0.00  0.00    +0.000 A 
ATOM     27  C   UNL     1       1.741   8.759  18.886  0.00  0.00    +0.000 A 
ATOM     28  C   UNL     1       2.561   8.728  17.624  0.00  0.00    +0.000 C 
BRANCH  25  29
ATOM     29  N   UNL     1      -0.904  10.954  20.306  0.00  0.00    +0.000 N 
ATOM     30  H   UNL     1      -1.376  10.997  21.211  0.00  0.00    +0.000 HD
BRANCH  29  31
ATOM     31  S   UNL     1      -1.976  11.393  19.088  0.00  0.00    +0.000 S 
ATOM     32  C   UNL     1      -0.990  12.572  18.192  0.00  0.00    +0.000 C 
ATOM     33  O   UNL     1      -2.268  10.264  18.232  0.00  0.00    +0.000 OA
ATOM     34  O   UNL     1      -3.029  12.127  19.753  0.00  0.00    +0.000 OA
ENDBRANCH  29  31
ENDBRANCH  25  29
ENDBRANCH  20  22
ENDBRANCH   5  20
TORSDOF 5
ENDMDL
MODEL 9
REMARK VINA RESULT:      -8.5      1.314      1.377
REMARK  Name = 
REMARK  8 active torsions:
REMARK  status: ('A' for Active; 'I' for Inactive)
REMARK    1  A    between atoms: C_1  and  C_2
REMARK    2  A    between atoms: N_4  and  C_5
REMARK    3  A    between atoms: C_9  and  N_10
REMARK    4  A    between atoms: N_10  and  C_11
REMARK    5  A    between atoms: C_14  and  N_15
REMARK    6  A    between atoms: N_15  and  S_16
REMARK    7  A    between atoms: S_16  and  C_17
REMARK    8  A    between atoms: C_21  and  C_22
REMARK                            x       y       z     vdW  Elec       q    Type
REMARK                         _______ _______ _______ _____ _____    ______ ____
ROOT
ATOM      1  C   UNL     1       5.217   4.997  15.410  0.00  0.00    +0.000 A 
ATOM      2  C   UNL     1       5.206   6.267  15.957  0.00  0.00    +0.000 A 
ATOM      3  C   UNL     1       4.632   6.489  17.198  0.00  0.00    +0.000 A 
ATOM      4  C   UNL     1       3.988   5.465  17.904  0.00  0.00    +0.000 A 
ATOM      5  C   UNL     1       3.294   5.681  19.123  0.00  0.00    +0.000 A 
ATOM      6  C   UNL     1       2.766   4.568  19.828  0.00  0.00    +0.000 A 
ATOM      7  C   UNL     1       2.062   4.665  21.058  0.00  0.00    +0.000 A 
ATOM      8  C   UNL     1       1.585   3.528  21.714  0.00  0.00    +0.000 A 
ATOM      9  C   UNL     1       1.802   2.278  21.154  0.00  0.00    +0.000 A 
ATOM     10  C   UNL     1       2.469   2.174  19.930  0.00  0.00    +0.000 A 
ATOM     11  C   UNL     1       2.938   3.295  19.249  0.00  0.00    +0.000 A 
ATOM     12  N   UNL     1       3.529   3.106  18.053  0.00  0.00    +0.000 NA
ATOM     13  C   UNL     1       4.029   4.161  17.382  0.00  0.00    +0.000 A 
ATOM     14  C   UNL     1       4.621   3.952  16.131  0.00  0.00    +0.000 A 
ENDROOT
BRANCH   1  18
ATOM     15  C   UNL     1       7.467   4.710  12.395  0.00  0.00    +0.000 C 
ATOM     16  C   UNL     1       7.123   5.046  13.818  0.00  0.00    +0.000 C 
ATOM     17  O   UNL     1       7.976   5.538  14.551  0.00  0.00    +0.000 OA
ATOM     18  N   UNL     1       5.816   4.729  14.157  0.00  0.00    +0.000 N 
ATOM     19  H   UNL     1       5.281   4.176  13.502  0.00  0.00    +0.000 HD
ENDBRANCH   1  18
BRANCH   5  20
ATOM     20  N   UNL     1       3.111   6.997  19.640  0.00  0.00    +0.000 N 
ATOM     21  H   UNL     1       3.789   7.239  20.353  0.00  0.00    +0.000 HD
BRANCH  20  22
ATOM     22  C   UNL     1       2.182   8.005  19.292  0.00  0.00    +0.000 A 
ATOM     23  C   UNL     1       2.121   8.521  17.983  0.00  0.00    +0.000 A 
ATOM     24  C   UNL     1       1.199   9.508  17.617  0.00  0.00    +0.000 A 
ATOM     25  C   UNL     1       0.289   9.971  18.556  0.00  0.00    +0.000 A 
ATOM     26  C   UNL     1       0.358   9.522  19.872  0.00  0.00    +0.000 A 
ATOM     27  C   UNL     1       1.299   8.543  20.254  0.00  0.00    +0.000 A 
ATOM     28  C   UNL     1       1.299   8.078  21.686  0.00  0.00    +0.000 C 
BRANCH  25  29
ATOM     29  N   UNL     1      -0.821  10.768  18.161  0.00  0.00    +0.000 N 
ATOM     30  H   UNL     1      -1.002  10.766  17.156  0.00  0.00    +0.000 HD
BRANCH  29  31
ATOM     31  S   UNL     1      -1.007  12.326  18.766  0.00  0.00    +0.000 S 
ATOM     32  C   UNL     1      -0.565  12.073  20.470  0.00  0.00    +0.000 C 
ATOM     33  O   UNL     1      -0.056  13.228  18.154  0.00  0.00    +0.000 OA
ATOM     34  O   UNL     1      -2.428  12.586  18.722  0.00  0.00    +0.000 OA
ENDBRANCH  29  31
ENDBRANCH  25  29
ENDBRANCH  20  22
ENDBRANCH   5  20
TORSDOF 5
ENDMDL
