MODEL 1
REMARK VINA RESULT:      -6.7      0.000      0.000
REMARK  Name = 
REMARK  6 active torsions:
REMARK  status: ('A' for Active; 'I' for Inactive)
REMARK    1  A    between atoms: C_2  and  C_3
REMARK    2  A    between atoms: C_4  and  N_5
REMARK    3  A    between atoms: N_7  and  C_8
REMARK    4  A    between atoms: C_11  and  N_12
REMARK    5  A    between atoms: N_17  and  C_18
REMARK    6  A    between atoms: C_31  and  N_32
REMARK                            x       y       z     vdW  Elec       q    Type
REMARK                         _______ _______ _______ _____ _____    ______ ____
ROOT
ATOM      1  C   UNL     1       8.371  14.352  18.335  0.00  0.00    +0.000 C 
ATOM      2  C   UNL     1       7.371  14.992  19.006  0.00  0.00    +0.000 C 
ATOM      3  N   UNL     1       7.632  16.179  19.705  0.00  0.00    +0.000 N 
ATOM      4  C   UNL     1       8.671  17.023  19.310  0.00  0.00    +0.000 C 
ATOM      5  O   UNL     1       8.774  18.190  19.692  0.00  0.00    +0.000 OA
ATOM      6  N   UNL     1       9.607  16.466  18.437  0.00  0.00    +0.000 N 
ATOM      7  C   UNL     1      10.666  17.347  17.938  0.00  0.00    +0.000 C 
ATOM      8  C   UNL     1      11.537  17.995  19.015  0.00  0.00    +0.000 C 
ATOM      9  C   UNL     1      12.317  16.975  19.821  0.00  0.00    +0.000 C 
ATOM     10  C   UNL     1      11.449  15.882  20.476  0.00  0.00    +0.000 C 
ATOM     11  C   UNL     1      10.942  14.627  19.624  0.00  0.00    +0.000 C 
ATOM     12  C   UNL     1       9.827  14.998  18.421  0.00  0.00    +0.000 C 
ENDROOT
BRANCH   3  13
ATOM     13  C   UNL     1       6.609  16.755  20.547  0.00  0.00    +0.000 A 
ATOM     14  C   UNL     1       5.769  17.773  20.069  0.00  0.00    +0.000 A 
ATOM     15  C   UNL     1       4.796  18.338  20.891  0.00  0.00    +0.000 A 
ATOM     16  C   UNL     1       4.654  17.895  22.203  0.00  0.00    +0.000 A 
ATOM     17  C   UNL     1       5.478  16.896  22.690  0.00  0.00    +0.000 A 
ATOM     18  C   UNL     1       6.444  16.301  21.866  0.00  0.00    +0.000 A 
ENDBRANCH   3  13
BRANCH  11  19
ATOM     19  N   UNL     1      12.171  13.880  19.156  0.00  0.00    +0.000 NA
ATOM     20  C   UNL     1      12.216  13.653  17.701  0.00  0.00    +0.000 C 
ATOM     21  C   UNL     1      11.455  12.365  17.499  0.00  0.00    +0.000 C 
ATOM     22  C   UNL     1      12.018  11.498  18.603  0.00  0.00    +0.000 C 
ATOM     23  C   UNL     1      12.331  12.499  19.716  0.00  0.00    +0.000 C 
ENDBRANCH  11  19
BRANCH   2  24
ATOM     24  N   UNL     1       6.029  14.750  18.822  0.00  0.00    +0.000 NA
ATOM     25  C   UNL     1       5.362  15.094  17.777  0.00  0.00    +0.000 C 
ATOM     26  N   UNL     1       4.030  14.841  17.548  0.00  0.00    +0.000 N 
ATOM     27  H   UNL     1       3.643  15.099  16.650  0.00  0.00    +0.000 HD
BRANCH  26  28
ATOM     28  C   UNL     1       3.100  14.294  18.457  0.00  0.00    +0.000 A 
ATOM     29  C   UNL     1       2.685  14.962  19.618  0.00  0.00    +0.000 A 
ATOM     30  C   UNL     1       1.796  14.375  20.527  0.00  0.00    +0.000 A 
ATOM     31  C   UNL     1       1.322  13.084  20.286  0.00  0.00    +0.000 A 
ATOM     32  C   UNL     1       1.740  12.379  19.148  0.00  0.00    +0.000 A 
ATOM     33  C   UNL     1       2.624  12.989  18.247  0.00  0.00    +0.000 A 
BRANCH  31  34
ATOM     34  N   UNL     1       0.381  12.463  21.225  0.00  0.00    +0.000 N 
ATOM     35  O   UNL     1       0.726  11.409  21.778  0.00  0.00    +0.000 OA
ATOM     36  O   UNL     1      -0.705  13.034  21.419  0.00  0.00    +0.000 OA
ENDBRANCH  31  34
ENDBRANCH  26  28
ENDBRANCH   2  24
BRANCH   1  38
ATOM     37  N   UNL     1       7.436  12.250  16.773  0.00  0.00    +0.000 NA
ATOM     38  C   UNL     1       7.860  13.203  17.481  0.00  0.00    +0.000 C 
ENDBRANCH   1  38
TORSDOF 6
ENDMDL
MODEL 2
REMARK VINA RESULT:      -6.6      0.268      1.149
REMARK  Name = 
REMARK  6 active torsions:
REMARK  status: ('A' for Active; 'I' for Inactive)
REMARK    1  A    between atoms: C_2  and  C_3
REMARK    2  A    between atoms: C_4  and  N_5
REMARK    3  A    between atoms: N_7  and  C_8
REMARK    4  A    between atoms: C_11  and  N_12
REMARK    5  A    between atoms: N_17  and  C_18
REMARK    6  A    between atoms: C_31  and  N_32
REMARK                            x       y       z     vdW  Elec       q    Type
REMARK                         _______ _______ _______ _____ _____    ______ ____
ROOT
ATOM      1  C   UNL     1       8.383  14.420  18.444  0.00  0.00    +0.000 C 
ATOM      2  C   UNL     1       7.376  15.054  19.110  0.00  0.00    +0.000 C 
ATOM      3  N   UNL     1       7.630  16.235  19.821  0.00  0.00    +0.000 N 
ATOM      4  C   UNL     1       8.674  17.082  19.444  0.00  0.00    +0.000 C 
ATOM      5  O   UNL     1       8.772  18.246  19.836  0.00  0.00    +0.000 OA
ATOM      6  N   UNL     1       9.618  16.532  18.575  0.00  0.00    +0.000 N 
ATOM      7  C   UNL     1      10.682  17.418  18.094  0.00  0.00    +0.000 C 
ATOM      8  C   UNL     1      11.542  18.056  19.185  0.00  0.00    +0.000 C 
ATOM      9  C   UNL     1      12.314  17.031  19.990  0.00  0.00    +0.000 C 
ATOM     10  C   UNL     1      11.440  15.932  20.628  0.00  0.00    +0.000 C 
ATOM     11  C   UNL     1      10.942  14.684  19.761  0.00  0.00    +0.000 C 
ATOM     12  C   UNL     1       9.839  15.064  18.550  0.00  0.00    +0.000 C 
ENDROOT
BRANCH   3  13
ATOM     13  C   UNL     1       6.599  16.805  20.658  0.00  0.00    +0.000 A 
ATOM     14  C   UNL     1       6.487  16.446  22.009  0.00  0.00    +0.000 A 
ATOM     15  C   UNL     1       5.480  16.984  22.808  0.00  0.00    +0.000 A 
ATOM     16  C   UNL     1       4.570  17.884  22.263  0.00  0.00    +0.000 A 
ATOM     17  C   UNL     1       4.664  18.245  20.931  0.00  0.00    +0.000 A 
ATOM     18  C   UNL     1       5.688  17.730  20.123  0.00  0.00    +0.000 A 
ENDBRANCH   3  13
BRANCH  11  19
ATOM     19  N   UNL     1      12.175  13.941  19.299  0.00  0.00    +0.000 NA
ATOM     20  C   UNL     1      12.261  13.772  17.838  0.00  0.00    +0.000 C 
ATOM     21  C   UNL     1      11.492  12.504  17.561  0.00  0.00    +0.000 C 
ATOM     22  C   UNL     1      12.011  11.586  18.645  0.00  0.00    +0.000 C 
ATOM     23  C   UNL     1      12.302  12.537  19.806  0.00  0.00    +0.000 C 
ENDBRANCH  11  19
BRANCH   2  24
ATOM     24  N   UNL     1       6.037  14.813  18.911  0.00  0.00    +0.000 NA
ATOM     25  C   UNL     1       5.394  15.109  17.836  0.00  0.00    +0.000 C 
ATOM     26  N   UNL     1       4.065  14.854  17.594  0.00  0.00    +0.000 N 
ATOM     27  H   UNL     1       3.699  15.070  16.675  0.00  0.00    +0.000 HD
BRANCH  26  28
ATOM     28  C   UNL     1       3.112  14.362  18.509  0.00  0.00    +0.000 A 
ATOM     29  C   UNL     1       2.574  13.069  18.430  0.00  0.00    +0.000 A 
ATOM     30  C   UNL     1       1.593  12.624  19.324  0.00  0.00    +0.000 A 
ATOM     31  C   UNL     1       1.122  13.490  20.313  0.00  0.00    +0.000 A 
ATOM     32  C   UNL     1       1.621  14.798  20.401  0.00  0.00    +0.000 A 
ATOM     33  C   UNL     1       2.607  15.221  19.500  0.00  0.00    +0.000 A 
BRANCH  31  34
ATOM     34  N   UNL     1       0.104  13.031  21.264  0.00  0.00    +0.000 N 
ATOM     35  O   UNL     1       0.320  11.977  21.880  0.00  0.00    +0.000 OA
ATOM     36  O   UNL     1      -0.914  13.728  21.405  0.00  0.00    +0.000 OA
ENDBRANCH  31  34
ENDBRANCH  26  28
ENDBRANCH   2  24
BRANCH   1  38
ATOM     37  N   UNL     1       7.464  12.330  16.856  0.00  0.00    +0.000 NA
ATOM     38  C   UNL     1       7.881  13.277  17.576  0.00  0.00    +0.000 C 
ENDBRANCH   1  38
TORSDOF 6
ENDMDL
MODEL 3
REMARK VINA RESULT:      -6.4      3.017      9.535
REMARK  Name = 
REMARK  6 active torsions:
REMARK  status: ('A' for Active; 'I' for Inactive)
REMARK    1  A    between atoms: C_2  and  C_3
REMARK    2  A    between atoms: C_4  and  N_5
REMARK    3  A    between atoms: N_7  and  C_8
REMARK    4  A    between atoms: C_11  and  N_12
REMARK    5  A    between atoms: N_17  and  C_18
REMARK    6  A    between atoms: C_31  and  N_32
REMARK                            x       y       z     vdW  Elec       q    Type
REMARK                         _______ _______ _______ _____ _____    ______ ____
ROOT
ATOM      1  C   UNL     1       1.087  12.440  19.257  0.00  0.00    +0.000 C 
ATOM      2  C   UNL     1       1.663  13.639  19.554  0.00  0.00    +0.000 C 
ATOM      3  N   UNL     1       1.119  14.459  20.553  0.00  0.00    +0.000 N 
ATOM      4  C   UNL     1       0.396  13.906  21.612  0.00  0.00    +0.000 C 
ATOM      5  O   UNL     1       0.141  14.522  22.648  0.00  0.00    +0.000 OA
ATOM      6  N   UNL     1      -0.026  12.587  21.434  0.00  0.00    +0.000 N 
ATOM      7  C   UNL     1      -0.717  11.949  22.559  0.00  0.00    +0.000 C 
ATOM      8  C   UNL     1      -1.984  12.660  23.035  0.00  0.00    +0.000 C 
ATOM      9  C   UNL     1      -3.063  12.698  21.972  0.00  0.00    +0.000 C 
ATOM     10  C   UNL     1      -2.617  13.323  20.635  0.00  0.00    +0.000 C 
ATOM     11  C   UNL     1      -1.786  12.463  19.573  0.00  0.00    +0.000 C 
ATOM     12  C   UNL     1      -0.232  12.050  20.066  0.00  0.00    +0.000 C 
ENDROOT
BRANCH   3  13
ATOM     13  C   UNL     1       1.633  15.796  20.743  0.00  0.00    +0.000 A 
ATOM     14  C   UNL     1       1.031  16.896  20.116  0.00  0.00    +0.000 A 
ATOM     15  C   UNL     1       1.542  18.182  20.288  0.00  0.00    +0.000 A 
ATOM     16  C   UNL     1       2.664  18.380  21.087  0.00  0.00    +0.000 A 
ATOM     17  C   UNL     1       3.272  17.304  21.708  0.00  0.00    +0.000 A 
ATOM     18  C   UNL     1       2.753  16.009  21.563  0.00  0.00    +0.000 A 
ENDBRANCH   3  13
BRANCH  11  19
ATOM     19  N   UNL     1      -2.660  11.303  19.156  0.00  0.00    +0.000 NA
ATOM     20  C   UNL     1      -2.031  10.400  18.176  0.00  0.00    +0.000 C 
ATOM     21  C   UNL     1      -2.351  11.018  16.837  0.00  0.00    +0.000 C 
ATOM     22  C   UNL     1      -3.817  11.356  16.997  0.00  0.00    +0.000 C 
ATOM     23  C   UNL     1      -3.946  11.681  18.485  0.00  0.00    +0.000 C 
ENDBRANCH  11  19
BRANCH   2  24
ATOM     24  N   UNL     1       2.930  14.012  19.172  0.00  0.00    +0.000 NA
ATOM     25  C   UNL     1       3.218  14.586  18.057  0.00  0.00    +0.000 C 
ATOM     26  N   UNL     1       4.468  14.999  17.659  0.00  0.00    +0.000 N 
ATOM     27  H   UNL     1       4.546  15.507  16.788  0.00  0.00    +0.000 HD
BRANCH  26  28
ATOM     28  C   UNL     1       5.693  14.749  18.310  0.00  0.00    +0.000 A 
ATOM     29  C   UNL     1       5.960  15.168  19.622  0.00  0.00    +0.000 A 
ATOM     30  C   UNL     1       7.204  14.949  20.226  0.00  0.00    +0.000 A 
ATOM     31  C   UNL     1       8.214  14.311  19.504  0.00  0.00    +0.000 A 
ATOM     32  C   UNL     1       7.988  13.904  18.181  0.00  0.00    +0.000 A 
ATOM     33  C   UNL     1       6.733  14.127  17.598  0.00  0.00    +0.000 A 
BRANCH  31  34
ATOM     34  N   UNL     1       9.517  14.064  20.131  0.00  0.00    +0.000 N 
ATOM     35  O   UNL     1       9.529  13.659  21.303  0.00  0.00    +0.000 OA
ATOM     36  O   UNL     1      10.536  14.266  19.450  0.00  0.00    +0.000 OA
ENDBRANCH  31  34
ENDBRANCH  26  28
ENDBRANCH   2  24
BRANCH   1  38
ATOM     37  N   UNL     1       2.619  10.924  17.499  0.00  0.00    +0.000 NA
ATOM     38  C   UNL     1       1.924  11.611  18.296  0.00  0.00    +0.000 C 
ENDBRANCH   1  38
TORSDOF 6
ENDMDL
MODEL 4
REMARK VINA RESULT:      -6.3      7.705     12.402
REMARK  Name = 
REMARK  6 active torsions:
REMARK  status: ('A' for Active; 'I' for Inactive)
REMARK    1  A    between atoms: C_2  and  C_3
REMARK    2  A    between atoms: C_4  and  N_5
REMARK    3  A    between atoms: N_7  and  C_8
REMARK    4  A    between atoms: C_11  and  N_12
REMARK    5  A    between atoms: N_17  and  C_18
REMARK    6  A    between atoms: C_31  and  N_32
REMARK                            x       y       z     vdW  Elec       q    Type
REMARK                         _______ _______ _______ _____ _____    ______ ____
ROOT
ATOM      1  C   UNL     1      -3.983  12.233  19.293  0.00  0.00    +0.000 C 
ATOM      2  C   UNL     1      -2.733  12.629  19.667  0.00  0.00    +0.000 C 
ATOM      3  N   UNL     1      -2.565  13.592  20.671  0.00  0.00    +0.000 N 
ATOM      4  C   UNL     1      -3.526  13.754  21.671  0.00  0.00    +0.000 C 
ATOM      5  O   UNL     1      -3.313  14.367  22.718  0.00  0.00    +0.000 OA
ATOM      6  N   UNL     1      -4.767  13.165  21.419  0.00  0.00    +0.000 N 
ATOM      7  C   UNL     1      -5.774  13.245  22.482  0.00  0.00    +0.000 C 
ATOM      8  C   UNL     1      -6.142  14.661  22.926  0.00  0.00    +0.000 C 
ATOM      9  C   UNL     1      -6.780  15.470  21.815  0.00  0.00    +0.000 C 
ATOM     10  C   UNL     1      -5.936  15.559  20.528  0.00  0.00    +0.000 C 
ATOM     11  C   UNL     1      -5.935  14.357  19.472  0.00  0.00    +0.000 C 
ATOM     12  C   UNL     1      -5.214  12.940  20.022  0.00  0.00    +0.000 C 
ENDROOT
BRANCH   3  13
ATOM     13  C   UNL     1      -1.249  14.125  20.941  0.00  0.00    +0.000 A 
ATOM     14  C   UNL     1      -0.317  13.398  21.696  0.00  0.00    +0.000 A 
ATOM     15  C   UNL     1       0.944  13.925  21.968  0.00  0.00    +0.000 A 
ATOM     16  C   UNL     1       1.286  15.186  21.492  0.00  0.00    +0.000 A 
ATOM     17  C   UNL     1       0.377  15.918  20.751  0.00  0.00    +0.000 A 
ATOM     18  C   UNL     1      -0.887  15.390  20.448  0.00  0.00    +0.000 A 
ENDBRANCH   3  13
BRANCH  11  19
ATOM     19  N   UNL     1      -7.351  14.206  18.967  0.00  0.00    +0.000 NA
ATOM     20  C   UNL     1      -7.549  13.048  18.077  0.00  0.00    +0.000 C 
ATOM     21  C   UNL     1      -7.200  13.566  16.703  0.00  0.00    +0.000 C 
ATOM     22  C   UNL     1      -7.916  14.898  16.685  0.00  0.00    +0.000 C 
ATOM     23  C   UNL     1      -7.862  15.350  18.145  0.00  0.00    +0.000 C 
ENDBRANCH  11  19
BRANCH   2  24
ATOM     24  N   UNL     1      -1.577  11.950  19.362  0.00  0.00    +0.000 NA
ATOM     25  C   UNL     1      -0.705  12.343  18.501  0.00  0.00    +0.000 C 
ATOM     26  N   UNL     1       0.474  11.705  18.196  0.00  0.00    +0.000 N 
ATOM     27  H   UNL     1       1.110  12.160  17.553  0.00  0.00    +0.000 HD
BRANCH  26  28
ATOM     28  C   UNL     1       0.896  10.436  18.644  0.00  0.00    +0.000 A 
ATOM     29  C   UNL     1       0.746  10.006  19.971  0.00  0.00    +0.000 A 
ATOM     30  C   UNL     1       1.218   8.759  20.398  0.00  0.00    +0.000 A 
ATOM     31  C   UNL     1       1.870   7.924  19.489  0.00  0.00    +0.000 A 
ATOM     32  C   UNL     1       2.059   8.336  18.162  0.00  0.00    +0.000 A 
ATOM     33  C   UNL     1       1.573   9.585  17.754  0.00  0.00    +0.000 A 
BRANCH  31  34
ATOM     34  N   UNL     1       2.357   6.610  19.923  0.00  0.00    +0.000 N 
ATOM     35  O   UNL     1       1.648   5.958  20.703  0.00  0.00    +0.000 OA
ATOM     36  O   UNL     1       3.448   6.221  19.476  0.00  0.00    +0.000 OA
ENDBRANCH  31  34
ENDBRANCH  26  28
ENDBRANCH   2  24
BRANCH   1  38
ATOM     37  N   UNL     1      -3.942  10.066  17.551  0.00  0.00    +0.000 NA
ATOM     38  C   UNL     1      -3.961  11.048  18.341  0.00  0.00    +0.000 C 
ENDBRANCH   1  38
TORSDOF 6
ENDMDL
MODEL 5
REMARK VINA RESULT:      -6.3      2.992      9.528
REMARK  Name = 
REMARK  6 active torsions:
REMARK  status: ('A' for Active; 'I' for Inactive)
REMARK    1  A    between atoms: C_2  and  C_3
REMARK    2  A    between atoms: C_4  and  N_5
REMARK    3  A    between atoms: N_7  and  C_8
REMARK    4  A    between atoms: C_11  and  N_12
REMARK    5  A    between atoms: N_17  and  C_18
REMARK    6  A    between atoms: C_31  and  N_32
REMARK                            x       y       z     vdW  Elec       q    Type
REMARK                         _______ _______ _______ _____ _____    ______ ____
ROOT
ATOM      1  C   UNL     1       1.132  12.509  19.235  0.00  0.00    +0.000 C 
ATOM      2  C   UNL     1       1.699  13.721  19.501  0.00  0.00    +0.000 C 
ATOM      3  N   UNL     1       1.151  14.560  20.481  0.00  0.00    +0.000 N 
ATOM      4  C   UNL     1       0.437  14.027  21.556  0.00  0.00    +0.000 C 
ATOM      5  O   UNL     1       0.180  14.666  22.578  0.00  0.00    +0.000 OA
ATOM      6  N   UNL     1       0.025  12.701  21.413  0.00  0.00    +0.000 N 
ATOM      7  C   UNL     1      -0.656  12.084  22.555  0.00  0.00    +0.000 C 
ATOM      8  C   UNL     1      -1.927  12.796  23.018  0.00  0.00    +0.000 C 
ATOM      9  C   UNL     1      -3.011  12.799  21.959  0.00  0.00    +0.000 C 
ATOM     10  C   UNL     1      -2.575  13.395  20.605  0.00  0.00    +0.000 C 
ATOM     11  C   UNL     1      -1.739  12.516  19.561  0.00  0.00    +0.000 C 
ATOM     12  C   UNL     1      -0.180  12.128  20.059  0.00  0.00    +0.000 C 
ENDROOT
BRANCH   3  13
ATOM     13  C   UNL     1       1.655  15.905  20.637  0.00  0.00    +0.000 A 
ATOM     14  C   UNL     1       2.775  16.168  21.440  0.00  0.00    +0.000 A 
ATOM     15  C   UNL     1       3.246  17.469  21.602  0.00  0.00    +0.000 A 
ATOM     16  C   UNL     1       2.600  18.524  20.965  0.00  0.00    +0.000 A 
ATOM     17  C   UNL     1       1.492  18.282  20.173  0.00  0.00    +0.000 A 
ATOM     18  C   UNL     1       1.022  16.975  19.982  0.00  0.00    +0.000 A 
ENDBRANCH   3  13
BRANCH  11  19
ATOM     19  N   UNL     1      -2.605  11.339  19.176  0.00  0.00    +0.000 NA
ATOM     20  C   UNL     1      -1.980  10.429  18.199  0.00  0.00    +0.000 C 
ATOM     21  C   UNL     1      -2.329  11.023  16.856  0.00  0.00    +0.000 C 
ATOM     22  C   UNL     1      -3.797  11.345  17.035  0.00  0.00    +0.000 C 
ATOM     23  C   UNL     1      -3.906  11.690  18.520  0.00  0.00    +0.000 C 
ENDBRANCH  11  19
BRANCH   2  24
ATOM     24  N   UNL     1       2.962  14.095  19.105  0.00  0.00    +0.000 NA
ATOM     25  C   UNL     1       3.244  14.622  17.967  0.00  0.00    +0.000 C 
ATOM     26  N   UNL     1       4.489  15.036  17.553  0.00  0.00    +0.000 N 
ATOM     27  H   UNL     1       4.562  15.506  16.660  0.00  0.00    +0.000 HD
BRANCH  26  28
ATOM     28  C   UNL     1       5.716  14.834  18.218  0.00  0.00    +0.000 A 
ATOM     29  C   UNL     1       6.776  14.104  17.659  0.00  0.00    +0.000 A 
ATOM     30  C   UNL     1       7.965  13.879  18.361  0.00  0.00    +0.000 A 
ATOM     31  C   UNL     1       8.100  14.376  19.659  0.00  0.00    +0.000 A 
ATOM     32  C   UNL     1       7.049  15.086  20.256  0.00  0.00    +0.000 A 
ATOM     33  C   UNL     1       5.869  15.306  19.532  0.00  0.00    +0.000 A 
BRANCH  31  34
ATOM     34  N   UNL     1       9.347  14.157  20.400  0.00  0.00    +0.000 N 
ATOM     35  O   UNL     1      10.400  14.073  19.751  0.00  0.00    +0.000 OA
ATOM     36  O   UNL     1       9.279  14.078  21.638  0.00  0.00    +0.000 OA
ENDBRANCH  31  34
ENDBRANCH  26  28
ENDBRANCH   2  24
BRANCH   1  38
ATOM     37  N   UNL     1       2.672  10.964  17.510  0.00  0.00    +0.000 NA
ATOM     38  C   UNL     1       1.974  11.665  18.292  0.00  0.00    +0.000 C 
ENDBRANCH   1  38
TORSDOF 6
ENDMDL
MODEL 6
REMARK VINA RESULT:      -6.3      5.933     12.948
REMARK  Name = 
REMARK  6 active torsions:
REMARK  status: ('A' for Active; 'I' for Inactive)
REMARK    1  A    between atoms: C_2  and  C_3
REMARK    2  A    between atoms: C_4  and  N_5
REMARK    3  A    between atoms: N_7  and  C_8
REMARK    4  A    between atoms: C_11  and  N_12
REMARK    5  A    between atoms: N_17  and  C_18
REMARK    6  A    between atoms: C_31  and  N_32
REMARK                            x       y       z     vdW  Elec       q    Type
REMARK                         _______ _______ _______ _____ _____    ______ ____
ROOT
ATOM      1  C   UNL     1      -3.768  14.171  20.971  0.00  0.00    +0.000 C 
ATOM      2  C   UNL     1      -2.653  13.445  20.673  0.00  0.00    +0.000 C 
ATOM      3  N   UNL     1      -2.754  12.267  19.919  0.00  0.00    +0.000 N 
ATOM      4  C   UNL     1      -3.797  12.092  19.008  0.00  0.00    +0.000 C 
ATOM      5  O   UNL     1      -3.787  11.228  18.130  0.00  0.00    +0.000 OA
ATOM      6  N   UNL     1      -4.873  12.972  19.142  0.00  0.00    +0.000 N 
ATOM      7  C   UNL     1      -5.948  12.870  18.151  0.00  0.00    +0.000 C 
ATOM      8  C   UNL     1      -6.625  11.502  18.060  0.00  0.00    +0.000 C 
ATOM      9  C   UNL     1      -7.331  11.117  19.345  0.00  0.00    +0.000 C 
ATOM     10  C   UNL     1      -6.432  11.144  20.598  0.00  0.00    +0.000 C 
ATOM     11  C   UNL     1      -6.114  12.524  21.341  0.00  0.00    +0.000 C 
ATOM     12  C   UNL     1      -5.165  13.595  20.457  0.00  0.00    +0.000 C 
ENDROOT
BRANCH   3  13
ATOM     13  C   UNL     1      -1.595  11.420  19.753  0.00  0.00    +0.000 A 
ATOM     14  C   UNL     1      -1.229  10.496  20.742  0.00  0.00    +0.000 A 
ATOM     15  C   UNL     1      -0.100   9.694  20.585  0.00  0.00    +0.000 A 
ATOM     16  C   UNL     1       0.679   9.810  19.438  0.00  0.00    +0.000 A 
ATOM     17  C   UNL     1       0.333  10.720  18.455  0.00  0.00    +0.000 A 
ATOM     18  C   UNL     1      -0.814  11.515  18.589  0.00  0.00    +0.000 A 
ENDBRANCH   3  13
BRANCH  11  19
ATOM     19  N   UNL     1      -7.431  13.083  21.829  0.00  0.00    +0.000 NA
ATOM     20  C   UNL     1      -7.411  14.535  22.077  0.00  0.00    +0.000 C 
ATOM     21  C   UNL     1      -6.921  14.666  23.499  0.00  0.00    +0.000 C 
ATOM     22  C   UNL     1      -7.735  13.603  24.204  0.00  0.00    +0.000 C 
ATOM     23  C   UNL     1      -7.916  12.527  23.133  0.00  0.00    +0.000 C 
ENDBRANCH  11  19
BRANCH   2  24
ATOM     24  N   UNL     1      -1.364  13.914  20.783  0.00  0.00    +0.000 NA
ATOM     25  C   UNL     1      -0.677  13.911  21.871  0.00  0.00    +0.000 C 
ATOM     26  N   UNL     1       0.621  14.343  22.007  0.00  0.00    +0.000 N 
ATOM     27  H   UNL     1       1.073  14.216  22.904  0.00  0.00    +0.000 HD
BRANCH  26  28
ATOM     28  C   UNL     1       1.404  15.004  21.039  0.00  0.00    +0.000 A 
ATOM     29  C   UNL     1       1.655  16.384  21.072  0.00  0.00    +0.000 A 
ATOM     30  C   UNL     1       2.396  17.021  20.070  0.00  0.00    +0.000 A 
ATOM     31  C   UNL     1       2.887  16.273  18.999  0.00  0.00    +0.000 A 
ATOM     32  C   UNL     1       2.631  14.896  18.923  0.00  0.00    +0.000 A 
ATOM     33  C   UNL     1       1.893  14.277  19.940  0.00  0.00    +0.000 A 
BRANCH  31  34
ATOM     34  N   UNL     1       3.676  16.928  17.950  0.00  0.00    +0.000 N 
ATOM     35  O   UNL     1       3.094  17.252  16.905  0.00  0.00    +0.000 OA
ATOM     36  O   UNL     1       4.882  17.129  18.172  0.00  0.00    +0.000 OA
ENDBRANCH  31  34
ENDBRANCH  26  28
ENDBRANCH   2  24
BRANCH   1  38
ATOM     37  N   UNL     1      -3.168  16.615  22.153  0.00  0.00    +0.000 NA
ATOM     38  C   UNL     1      -3.440  15.507  21.617  0.00  0.00    +0.000 C 
ENDBRANCH   1  38
TORSDOF 6
ENDMDL
MODEL 7
REMARK VINA RESULT:      -6.3      7.558     12.281
REMARK  Name = 
REMARK  6 active torsions:
REMARK  status: ('A' for Active; 'I' for Inactive)
REMARK    1  A    between atoms: C_2  and  C_3
REMARK    2  A    between atoms: C_4  and  N_5
REMARK    3  A    between atoms: N_7  and  C_8
REMARK    4  A    between atoms: C_11  and  N_12
REMARK    5  A    between atoms: N_17  and  C_18
REMARK    6  A    between atoms: C_31  and  N_32
REMARK                            x       y       z     vdW  Elec       q    Type
REMARK                         _______ _______ _______ _____ _____    ______ ____
ROOT
ATOM      1  C   UNL     1      -3.845  12.231  19.377  0.00  0.00    +0.000 C 
ATOM      2  C   UNL     1      -2.594  12.655  19.712  0.00  0.00    +0.000 C 
ATOM      3  N   UNL     1      -2.416  13.620  20.714  0.00  0.00    +0.000 N 
ATOM      4  C   UNL     1      -3.349  13.758  21.743  0.00  0.00    +0.000 C 
ATOM      5  O   UNL     1      -3.118  14.374  22.785  0.00  0.00    +0.000 OA
ATOM      6  N   UNL     1      -4.584  13.142  21.529  0.00  0.00    +0.000 N 
ATOM      7  C   UNL     1      -5.559  13.197  22.622  0.00  0.00    +0.000 C 
ATOM      8  C   UNL     1      -5.945  14.603  23.081  0.00  0.00    +0.000 C 
ATOM      9  C   UNL     1      -6.635  15.400  21.992  0.00  0.00    +0.000 C 
ATOM     10  C   UNL     1      -5.833  15.511  20.679  0.00  0.00    +0.000 C 
ATOM     11  C   UNL     1      -5.837  14.311  19.621  0.00  0.00    +0.000 C 
ATOM     12  C   UNL     1      -5.069  12.910  20.145  0.00  0.00    +0.000 C 
ENDROOT
BRANCH   3  13
ATOM     13  C   UNL     1      -1.105  14.182  20.944  0.00  0.00    +0.000 A 
ATOM     14  C   UNL     1      -0.761  15.442  20.432  0.00  0.00    +0.000 A 
ATOM     15  C   UNL     1       0.511  15.972  20.642  0.00  0.00    +0.000 A 
ATOM     16  C   UNL     1       1.455  15.246  21.361  0.00  0.00    +0.000 A 
ATOM     17  C   UNL     1       1.132  14.001  21.868  0.00  0.00    +0.000 A 
ATOM     18  C   UNL     1      -0.152  13.466  21.686  0.00  0.00    +0.000 A 
ENDBRANCH   3  13
BRANCH  11  19
ATOM     19  N   UNL     1      -7.265  14.128  19.159  0.00  0.00    +0.000 NA
ATOM     20  C   UNL     1      -7.517  12.843  18.485  0.00  0.00    +0.000 C 
ATOM     21  C   UNL     1      -7.167  13.102  17.040  0.00  0.00    +0.000 C 
ATOM     22  C   UNL     1      -7.835  14.437  16.797  0.00  0.00    +0.000 C 
ATOM     23  C   UNL     1      -7.745  15.132  18.156  0.00  0.00    +0.000 C 
ENDBRANCH  11  19
BRANCH   2  24
ATOM     24  N   UNL     1      -1.432  12.003  19.370  0.00  0.00    +0.000 NA
ATOM     25  C   UNL     1      -0.600  12.413  18.478  0.00  0.00    +0.000 C 
ATOM     26  N   UNL     1       0.583  11.802  18.135  0.00  0.00    +0.000 N 
ATOM     27  H   UNL     1       1.185  12.270  17.469  0.00  0.00    +0.000 HD
BRANCH  26  28
ATOM     28  C   UNL     1       1.050  10.546  18.573  0.00  0.00    +0.000 A 
ATOM     29  C   UNL     1       1.728   9.649  17.734  0.00  0.00    +0.000 A 
ATOM     30  C   UNL     1       2.138   8.388  18.183  0.00  0.00    +0.000 A 
ATOM     31  C   UNL     1       1.853   8.000  19.493  0.00  0.00    +0.000 A 
ATOM     32  C   UNL     1       1.153   8.863  20.348  0.00  0.00    +0.000 A 
ATOM     33  C   UNL     1       0.758  10.124  19.881  0.00  0.00    +0.000 A 
BRANCH  31  34
ATOM     34  N   UNL     1       2.289   6.686  19.979  0.00  0.00    +0.000 N 
ATOM     35  O   UNL     1       3.331   6.210  19.505  0.00  0.00    +0.000 OA
ATOM     36  O   UNL     1       1.593   6.128  20.843  0.00  0.00    +0.000 OA
ENDBRANCH  31  34
ENDBRANCH  26  28
ENDBRANCH   2  24
BRANCH   1  38
ATOM     37  N   UNL     1      -3.810  10.069  17.629  0.00  0.00    +0.000 NA
ATOM     38  C   UNL     1      -3.826  11.049  18.421  0.00  0.00    +0.000 C 
ENDBRANCH   1  38
TORSDOF 6
ENDMDL
MODEL 8
REMARK VINA RESULT:      -6.1      5.854     12.790
REMARK  Name = 
REMARK  6 active torsions:
REMARK  status: ('A' for Active; 'I' for Inactive)
REMARK    1  A    between atoms: C_2  and  C_3
REMARK    2  A    between atoms: C_4  and  N_5
REMARK    3  A    between atoms: N_7  and  C_8
REMARK    4  A    between atoms: C_11  and  N_12
REMARK    5  A    between atoms: N_17  and  C_18
REMARK    6  A    between atoms: C_31  and  N_32
REMARK                            x       y       z     vdW  Elec       q    Type
REMARK                         _______ _______ _______ _____ _____    ______ ____
ROOT
ATOM      1  C   UNL     1      -3.743  14.376  20.631  0.00  0.00    +0.000 C 
ATOM      2  C   UNL     1      -2.632  13.632  20.365  0.00  0.00    +0.000 C 
ATOM      3  N   UNL     1      -2.752  12.361  19.786  0.00  0.00    +0.000 N 
ATOM      4  C   UNL     1      -3.843  12.050  18.972  0.00  0.00    +0.000 C 
ATOM      5  O   UNL     1      -3.866  11.074  18.220  0.00  0.00    +0.000 OA
ATOM      6  N   UNL     1      -4.928  12.925  19.052  0.00  0.00    +0.000 N 
ATOM      7  C   UNL     1      -6.058  12.674  18.152  0.00  0.00    +0.000 C 
ATOM      8  C   UNL     1      -6.709  11.298  18.289  0.00  0.00    +0.000 C 
ATOM      9  C   UNL     1      -7.329  11.083  19.654  0.00  0.00    +0.000 C 
ATOM     10  C   UNL     1      -6.359  11.292  20.835  0.00  0.00    +0.000 C 
ATOM     11  C   UNL     1      -6.027  12.765  21.363  0.00  0.00    +0.000 C 
ATOM     12  C   UNL     1      -5.155  13.717  20.286  0.00  0.00    +0.000 C 
ENDROOT
BRANCH   3  13
ATOM     13  C   UNL     1      -1.587  11.515  19.665  0.00  0.00    +0.000 A 
ATOM     14  C   UNL     1      -0.988  11.287  18.417  0.00  0.00    +0.000 A 
ATOM     15  C   UNL     1       0.125  10.455  18.303  0.00  0.00    +0.000 A 
ATOM     16  C   UNL     1       0.649   9.840  19.435  0.00  0.00    +0.000 A 
ATOM     17  C   UNL     1       0.067  10.051  20.671  0.00  0.00    +0.000 A 
ATOM     18  C   UNL     1      -1.038  10.904  20.804  0.00  0.00    +0.000 A 
ENDBRANCH   3  13
BRANCH  11  19
ATOM     19  N   UNL     1      -7.326  13.366  21.851  0.00  0.00    +0.000 NA
ATOM     20  C   UNL     1      -7.223  14.788  22.226  0.00  0.00    +0.000 C 
ATOM     21  C   UNL     1      -6.785  14.765  23.670  0.00  0.00    +0.000 C 
ATOM     22  C   UNL     1      -7.692  13.703  24.250  0.00  0.00    +0.000 C 
ATOM     23  C   UNL     1      -7.898  12.736  23.084  0.00  0.00    +0.000 C 
ENDBRANCH  11  19
BRANCH   2  24
ATOM     24  N   UNL     1      -1.350  14.129  20.332  0.00  0.00    +0.000 NA
ATOM     25  C   UNL     1      -0.880  14.874  19.395  0.00  0.00    +0.000 C 
ATOM     26  N   UNL     1       0.384  15.412  19.348  0.00  0.00    +0.000 N 
ATOM     27  H   UNL     1       0.604  16.046  18.590  0.00  0.00    +0.000 HD
BRANCH  26  28
ATOM     28  C   UNL     1       1.457  15.142  20.222  0.00  0.00    +0.000 A 
ATOM     29  C   UNL     1       1.834  16.009  21.258  0.00  0.00    +0.000 A 
ATOM     30  C   UNL     1       2.934  15.738  22.081  0.00  0.00    +0.000 A 
ATOM     31  C   UNL     1       3.689  14.586  21.859  0.00  0.00    +0.000 A 
ATOM     32  C   UNL     1       3.354  13.712  20.814  0.00  0.00    +0.000 A 
ATOM     33  C   UNL     1       2.245  13.999  20.007  0.00  0.00    +0.000 A 
BRANCH  31  34
ATOM     34  N   UNL     1       4.836  14.285  22.722  0.00  0.00    +0.000 N 
ATOM     35  O   UNL     1       5.913  14.003  22.177  0.00  0.00    +0.000 OA
ATOM     36  O   UNL     1       4.666  14.338  23.951  0.00  0.00    +0.000 OA
ENDBRANCH  31  34
ENDBRANCH  26  28
ENDBRANCH   2  24
BRANCH   1  38
ATOM     37  N   UNL     1      -3.128  16.967  21.433  0.00  0.00    +0.000 NA
ATOM     38  C   UNL     1      -3.407  15.792  21.069  0.00  0.00    +0.000 C 
ENDBRANCH   1  38
TORSDOF 6
ENDMDL
MODEL 9
REMARK VINA RESULT:      -6.0      5.681     12.513
REMARK  Name = 
REMARK  6 active torsions:
REMARK  status: ('A' for Active; 'I' for Inactive)
REMARK    1  A    between atoms: C_2  and  C_3
REMARK    2  A    between atoms: C_4  and  N_5
REMARK    3  A    between atoms: N_7  and  C_8
REMARK    4  A    between atoms: C_11  and  N_12
REMARK    5  A    between atoms: N_17  and  C_18
REMARK    6  A    between atoms: C_31  and  N_32
REMARK                            x       y       z     vdW  Elec       q    Type
REMARK                         _______ _______ _______ _____ _____    ______ ____
ROOT
ATOM      1  C   UNL     1      -3.798  12.826  20.078  0.00  0.00    +0.000 C 
ATOM      2  C   UNL     1      -2.806  13.522  20.704  0.00  0.00    +0.000 C 
ATOM      3  N   UNL     1      -3.104  14.359  21.790  0.00  0.00    +0.000 N 
ATOM      4  C   UNL     1      -4.210  14.103  22.602  0.00  0.00    +0.000 C 
ATOM      5  O   UNL     1      -4.363  14.616  23.712  0.00  0.00    +0.000 OA
ATOM      6  N   UNL     1      -5.151  13.213  22.083  0.00  0.00    +0.000 N 
ATOM      7  C   UNL     1      -6.285  12.859  22.943  0.00  0.00    +0.000 C 
ATOM      8  C   UNL     1      -7.140  14.037  23.413  0.00  0.00    +0.000 C 
ATOM      9  C   UNL     1      -7.818  14.756  22.264  0.00  0.00    +0.000 C 
ATOM     10  C   UNL     1      -6.855  15.250  21.165  0.00  0.00    +0.000 C 
ATOM     11  C   UNL     1      -6.316  14.243  20.044  0.00  0.00    +0.000 C 
ATOM     12  C   UNL     1      -5.284  13.044  20.614  0.00  0.00    +0.000 C 
ENDROOT
BRANCH   3  13
ATOM     13  C   UNL     1      -2.078  15.217  22.336  0.00  0.00    +0.000 A 
ATOM     14  C   UNL     1      -1.407  14.874  23.520  0.00  0.00    +0.000 A 
ATOM     15  C   UNL     1      -0.431  15.714  24.053  0.00  0.00    +0.000 A 
ATOM     16  C   UNL     1      -0.117  16.908  23.411  0.00  0.00    +0.000 A 
ATOM     17  C   UNL     1      -0.773  17.261  22.246  0.00  0.00    +0.000 A 
ATOM     18  C   UNL     1      -1.740  16.414  21.685  0.00  0.00    +0.000 A 
ENDBRANCH   3  13
BRANCH  11  19
ATOM     19  N   UNL     1      -7.519  13.747  19.275  0.00  0.00    +0.000 NA
ATOM     20  C   UNL     1      -7.339  12.412  18.678  0.00  0.00    +0.000 C 
ATOM     21  C   UNL     1      -6.695  12.682  17.340  0.00  0.00    +0.000 C 
ATOM     22  C   UNL     1      -7.527  13.836  16.826  0.00  0.00    +0.000 C 
ATOM     23  C   UNL     1      -7.916  14.588  18.100  0.00  0.00    +0.000 C 
ENDBRANCH  11  19
BRANCH   2  24
ATOM     24  N   UNL     1      -1.463  13.257  20.571  0.00  0.00    +0.000 NA
ATOM     25  C   UNL     1      -0.849  12.290  21.156  0.00  0.00    +0.000 C 
ATOM     26  N   UNL     1       0.484  11.979  21.019  0.00  0.00    +0.000 N 
ATOM     27  H   UNL     1       0.827  11.144  21.477  0.00  0.00    +0.000 HD
BRANCH  26  28
ATOM     28  C   UNL     1       1.467  12.729  20.343  0.00  0.00    +0.000 A 
ATOM     29  C   UNL     1       2.114  13.834  20.917  0.00  0.00    +0.000 A 
ATOM     30  C   UNL     1       3.052  14.590  20.204  0.00  0.00    +0.000 A 
ATOM     31  C   UNL     1       3.343  14.251  18.881  0.00  0.00    +0.000 A 
ATOM     32  C   UNL     1       2.694  13.169  18.270  0.00  0.00    +0.000 A 
ATOM     33  C   UNL     1       1.763  12.421  19.004  0.00  0.00    +0.000 A 
BRANCH  31  34
ATOM     34  N   UNL     1       4.334  15.029  18.128  0.00  0.00    +0.000 N 
ATOM     35  O   UNL     1       5.377  14.455  17.780  0.00  0.00    +0.000 OA
ATOM     36  O   UNL     1       4.068  16.215  17.874  0.00  0.00    +0.000 OA
ENDBRANCH  31  34
ENDBRANCH  26  28
ENDBRANCH   2  24
BRANCH   1  38
ATOM     37  N   UNL     1      -2.815  11.004  18.221  0.00  0.00    +0.000 NA
ATOM     38  C   UNL     1      -3.261  11.830  19.063  0.00  0.00    +0.000 C 
ENDBRANCH   1  38
TORSDOF 6
ENDMDL
