MODEL 1
REMARK VINA RESULT:      -6.2      0.000      0.000
REMARK  Name = 
REMARK  7 active torsions:
REMARK  status: ('A' for Active; 'I' for Inactive)
REMARK    1  A    between atoms: C_1  and  O_2
REMARK    2  A    between atoms: O_2  and  C_3
REMARK    3  A    between atoms: C_5  and  C_6
REMARK    4  A    between atoms: C_12  and  O_13
REMARK    5  A    between atoms: O_13  and  C_14
REMARK    6  A    between atoms: C_15  and  O_16
REMARK    7  A    between atoms: O_16  and  C_17
REMARK                            x       y       z     vdW  Elec       q    Type
REMARK                         _______ _______ _______ _____ _____    ______ ____
ROOT
ATOM      1  C   UNL     1       4.081   3.755  17.127  0.00  0.00    +0.000 A 
ATOM      2  C   UNL     1       4.661   4.023  15.881  0.00  0.00    +0.000 A 
ATOM      3  C   UNL     1       5.990   4.423  15.788  0.00  0.00    +0.000 A 
ATOM      4  C   UNL     1       6.708   4.686  16.945  0.00  0.00    +0.000 A 
ATOM      5  C   UNL     1       6.131   4.491  18.209  0.00  0.00    +0.000 A 
ATOM      6  C   UNL     1       4.797   4.026  18.317  0.00  0.00    +0.000 A 
ENDROOT
BRANCH   3   7
ATOM      7  C   UNL     1       6.639   4.453  14.465  0.00  0.00    +0.000 C 
ATOM      8  N   UNL     1       6.180   3.778  13.442  0.00  0.00    +0.000 NA
ATOM      9  C   UNL     1       7.089   4.157  12.321  0.00  0.00    +0.000 C 
ATOM     10  C   UNL     1       7.839   5.407  12.780  0.00  0.00    +0.000 C 
ATOM     11  N   UNL     1       7.712   5.284  14.216  0.00  0.00    +0.000 N 
ATOM     12  H   UNL     1       7.726   6.162  14.732  0.00  0.00    +0.000 HD
ENDBRANCH   3   7
BRANCH   1  14
ATOM     13  C   UNL     1       1.796   4.157  17.611  0.00  0.00    +0.000 C 
ATOM     14  O   UNL     1       2.809   3.245  17.180  0.00  0.00    +0.000 OA
ENDBRANCH   1  14
BRANCH   5  15
ATOM     15  O   UNL     1       7.024   4.781  19.212  0.00  0.00    +0.000 OA
ATOM     16  C   UNL     1       7.886   5.901  19.089  0.00  0.00    +0.000 C 
ENDBRANCH   5  15
BRANCH   6  17
ATOM     17  O   UNL     1       4.323   3.856  19.588  0.00  0.00    +0.000 OA
ATOM     18  C   UNL     1       4.230   2.568  20.174  0.00  0.00    +0.000 C 
ENDBRANCH   6  17
TORSDOF 4
ENDMDL
MODEL 2
REMARK VINA RESULT:      -6.2      0.233      3.197
REMARK  Name = 
REMARK  7 active torsions:
REMARK  status: ('A' for Active; 'I' for Inactive)
REMARK    1  A    between atoms: C_1  and  O_2
REMARK    2  A    between atoms: O_2  and  C_3
REMARK    3  A    between atoms: C_5  and  C_6
REMARK    4  A    between atoms: C_12  and  O_13
REMARK    5  A    between atoms: O_13  and  C_14
REMARK    6  A    between atoms: C_15  and  O_16
REMARK    7  A    between atoms: O_16  and  C_17
REMARK                            x       y       z     vdW  Elec       q    Type
REMARK                         _______ _______ _______ _____ _____    ______ ____
ROOT
ATOM      1  C   UNL     1       6.121   4.504  18.346  0.00  0.00    +0.000 A 
ATOM      2  C   UNL     1       6.692   4.523  17.068  0.00  0.00    +0.000 A 
ATOM      3  C   UNL     1       5.924   4.244  15.942  0.00  0.00    +0.000 A 
ATOM      4  C   UNL     1       4.615   3.814  16.097  0.00  0.00    +0.000 A 
ATOM      5  C   UNL     1       4.035   3.720  17.372  0.00  0.00    +0.000 A 
ATOM      6  C   UNL     1       4.789   4.060  18.523  0.00  0.00    +0.000 A 
ENDROOT
BRANCH   3   7
ATOM      7  C   UNL     1       6.483   4.516  14.607  0.00  0.00    +0.000 C 
ATOM      8  N   UNL     1       7.535   5.274  14.427  0.00  0.00    +0.000 NA
ATOM      9  C   UNL     1       7.781   5.209  12.956  0.00  0.00    +0.000 C 
ATOM     10  C   UNL     1       6.972   4.021  12.437  0.00  0.00    +0.000 C 
ATOM     11  N   UNL     1       5.979   3.896  13.482  0.00  0.00    +0.000 N 
ATOM     12  H   UNL     1       5.606   2.957  13.619  0.00  0.00    +0.000 HD
ENDBRANCH   3   7
BRANCH   1  14
ATOM     13  C   UNL     1       7.886   5.870  19.143  0.00  0.00    +0.000 C 
ATOM     14  O   UNL     1       6.871   4.903  19.423  0.00  0.00    +0.000 OA
ENDBRANCH   1  14
BRANCH   5  15
ATOM     15  O   UNL     1       2.728   3.305  17.293  0.00  0.00    +0.000 OA
ATOM     16  C   UNL     1       1.679   4.215  17.582  0.00  0.00    +0.000 C 
ENDBRANCH   5  15
BRANCH   6  17
ATOM     17  O   UNL     1       4.139   3.947  19.719  0.00  0.00    +0.000 OA
ATOM     18  C   UNL     1       3.963   2.688  20.347  0.00  0.00    +0.000 C 
ENDBRANCH   6  17
TORSDOF 4
ENDMDL
MODEL 3
REMARK VINA RESULT:      -6.1      0.951      3.206
REMARK  Name = 
REMARK  7 active torsions:
REMARK  status: ('A' for Active; 'I' for Inactive)
REMARK    1  A    between atoms: C_1  and  O_2
REMARK    2  A    between atoms: O_2  and  C_3
REMARK    3  A    between atoms: C_5  and  C_6
REMARK    4  A    between atoms: C_12  and  O_13
REMARK    5  A    between atoms: O_13  and  C_14
REMARK    6  A    between atoms: C_15  and  O_16
REMARK    7  A    between atoms: O_16  and  C_17
REMARK                            x       y       z     vdW  Elec       q    Type
REMARK                         _______ _______ _______ _____ _____    ______ ____
ROOT
ATOM      1  C   UNL     1       5.965   4.765  18.518  0.00  0.00    +0.000 A 
ATOM      2  C   UNL     1       6.628   4.634  17.292  0.00  0.00    +0.000 A 
ATOM      3  C   UNL     1       5.938   4.244  16.149  0.00  0.00    +0.000 A 
ATOM      4  C   UNL     1       4.611   3.854  16.251  0.00  0.00    +0.000 A 
ATOM      5  C   UNL     1       3.938   3.909  17.481  0.00  0.00    +0.000 A 
ATOM      6  C   UNL     1       4.614   4.363  18.642  0.00  0.00    +0.000 A 
ENDROOT
BRANCH   3   7
ATOM      7  C   UNL     1       6.600   4.357  14.838  0.00  0.00    +0.000 C 
ATOM      8  N   UNL     1       6.158   3.739  13.772  0.00  0.00    +0.000 NA
ATOM      9  C   UNL     1       7.074   4.192  12.685  0.00  0.00    +0.000 C 
ATOM     10  C   UNL     1       7.808   5.419  13.224  0.00  0.00    +0.000 C 
ATOM     11  N   UNL     1       7.668   5.211  14.649  0.00  0.00    +0.000 N 
ATOM     12  H   UNL     1       7.668   6.057  15.216  0.00  0.00    +0.000 HD
ENDBRANCH   3   7
BRANCH   1  14
ATOM     13  C   UNL     1       7.912   5.860  19.309  0.00  0.00    +0.000 C 
ATOM     14  O   UNL     1       6.643   5.269  19.599  0.00  0.00    +0.000 OA
ENDBRANCH   1  14
BRANCH   5  15
ATOM     15  O   UNL     1       2.630   3.509  17.350  0.00  0.00    +0.000 OA
ATOM     16  C   UNL     1       2.216   2.261  17.882  0.00  0.00    +0.000 C 
ENDBRANCH   5  15
BRANCH   6  17
ATOM     17  O   UNL     1       3.876   4.394  19.791  0.00  0.00    +0.000 OA
ATOM     18  C   UNL     1       2.993   5.467  20.072  0.00  0.00    +0.000 C 
ENDBRANCH   6  17
TORSDOF 4
ENDMDL
MODEL 4
REMARK VINA RESULT:      -6.1      0.974      3.295
REMARK  Name = 
REMARK  7 active torsions:
REMARK  status: ('A' for Active; 'I' for Inactive)
REMARK    1  A    between atoms: C_1  and  O_2
REMARK    2  A    between atoms: O_2  and  C_3
REMARK    3  A    between atoms: C_5  and  C_6
REMARK    4  A    between atoms: C_12  and  O_13
REMARK    5  A    between atoms: O_13  and  C_14
REMARK    6  A    between atoms: C_15  and  O_16
REMARK    7  A    between atoms: O_16  and  C_17
REMARK                            x       y       z     vdW  Elec       q    Type
REMARK                         _______ _______ _______ _____ _____    ______ ____
ROOT
ATOM      1  C   UNL     1       6.269   5.057  18.087  0.00  0.00    +0.000 A 
ATOM      2  C   UNL     1       6.829   4.961  16.808  0.00  0.00    +0.000 A 
ATOM      3  C   UNL     1       6.087   4.461  15.743  0.00  0.00    +0.000 A 
ATOM      4  C   UNL     1       4.828   3.929  15.978  0.00  0.00    +0.000 A 
ATOM      5  C   UNL     1       4.267   3.949  17.264  0.00  0.00    +0.000 A 
ATOM      6  C   UNL     1       4.990   4.512  18.346  0.00  0.00    +0.000 A 
ENDROOT
BRANCH   3   7
ATOM      7  C   UNL     1       6.610   4.605  14.373  0.00  0.00    +0.000 C 
ATOM      8  N   UNL     1       7.637   5.365  14.090  0.00  0.00    +0.000 NA
ATOM      9  C   UNL     1       7.852   5.153  12.628  0.00  0.00    +0.000 C 
ATOM     10  C   UNL     1       7.063   3.899  12.255  0.00  0.00    +0.000 C 
ATOM     11  N   UNL     1       6.097   3.860  13.331  0.00  0.00    +0.000 N 
ATOM     12  H   UNL     1       5.752   2.932  13.574  0.00  0.00    +0.000 HD
ENDBRANCH   3   7
BRANCH   1  14
ATOM     13  C   UNL     1       7.953   6.625  18.658  0.00  0.00    +0.000 C 
ATOM     14  O   UNL     1       6.982   5.668  19.088  0.00  0.00    +0.000 OA
ENDBRANCH   1  14
BRANCH   5  15
ATOM     15  O   UNL     1       3.007   3.402  17.264  0.00  0.00    +0.000 OA
ATOM     16  C   UNL     1       2.803   2.098  17.783  0.00  0.00    +0.000 C 
ENDBRANCH   5  15
BRANCH   6  17
ATOM     17  O   UNL     1       4.360   4.497  19.558  0.00  0.00    +0.000 OA
ATOM     18  C   UNL     1       3.359   5.448  19.881  0.00  0.00    +0.000 C 
ENDBRANCH   6  17
TORSDOF 4
ENDMDL
MODEL 5
REMARK VINA RESULT:      -6.0      0.980      1.014
REMARK  Name = 
REMARK  7 active torsions:
REMARK  status: ('A' for Active; 'I' for Inactive)
REMARK    1  A    between atoms: C_1  and  O_2
REMARK    2  A    between atoms: O_2  and  C_3
REMARK    3  A    between atoms: C_5  and  C_6
REMARK    4  A    between atoms: C_12  and  O_13
REMARK    5  A    between atoms: O_13  and  C_14
REMARK    6  A    between atoms: C_15  and  O_16
REMARK    7  A    between atoms: O_16  and  C_17
REMARK                            x       y       z     vdW  Elec       q    Type
REMARK                         _______ _______ _______ _____ _____    ______ ____
ROOT
ATOM      1  C   UNL     1       4.157   4.005  17.155  0.00  0.00    +0.000 A 
ATOM      2  C   UNL     1       4.715   4.135  15.878  0.00  0.00    +0.000 A 
ATOM      3  C   UNL     1       5.996   4.651  15.711  0.00  0.00    +0.000 A 
ATOM      4  C   UNL     1       6.674   5.164  16.807  0.00  0.00    +0.000 A 
ATOM      5  C   UNL     1       6.111   5.110  18.091  0.00  0.00    +0.000 A 
ATOM      6  C   UNL     1       4.831   4.531  18.282  0.00  0.00    +0.000 A 
ENDROOT
BRANCH   3   7
ATOM      7  C   UNL     1       6.647   4.542  14.394  0.00  0.00    +0.000 C 
ATOM      8  N   UNL     1       6.189   3.765  13.446  0.00  0.00    +0.000 NA
ATOM      9  C   UNL     1       7.101   4.023  12.293  0.00  0.00    +0.000 C 
ATOM     10  C   UNL     1       7.854   5.312  12.622  0.00  0.00    +0.000 C 
ATOM     11  N   UNL     1       7.724   5.339  14.062  0.00  0.00    +0.000 N 
ATOM     12  H   UNL     1       7.739   6.266  14.485  0.00  0.00    +0.000 HD
ENDBRANCH   3   7
BRANCH   1  14
ATOM     13  C   UNL     1       2.994   2.045  17.807  0.00  0.00    +0.000 C 
ATOM     14  O   UNL     1       2.944   3.380  17.298  0.00  0.00    +0.000 OA
ENDBRANCH   1  14
BRANCH   5  15
ATOM     15  O   UNL     1       6.962   5.643  19.028  0.00  0.00    +0.000 OA
ATOM     16  C   UNL     1       7.923   6.611  18.640  0.00  0.00    +0.000 C 
ENDBRANCH   5  15
BRANCH   6  17
ATOM     17  O   UNL     1       4.368   4.513  19.568  0.00  0.00    +0.000 OA
ATOM     18  C   UNL     1       3.255   5.297  19.962  0.00  0.00    +0.000 C 
ENDBRANCH   6  17
TORSDOF 4
ENDMDL
MODEL 6
REMARK VINA RESULT:      -6.0      4.581      6.648
REMARK  Name = 
REMARK  7 active torsions:
REMARK  status: ('A' for Active; 'I' for Inactive)
REMARK    1  A    between atoms: C_1  and  O_2
REMARK    2  A    between atoms: O_2  and  C_3
REMARK    3  A    between atoms: C_5  and  C_6
REMARK    4  A    between atoms: C_12  and  O_13
REMARK    5  A    between atoms: O_13  and  C_14
REMARK    6  A    between atoms: C_15  and  O_16
REMARK    7  A    between atoms: O_16  and  C_17
REMARK                            x       y       z     vdW  Elec       q    Type
REMARK                         _______ _______ _______ _____ _____    ______ ____
ROOT
ATOM      1  C   UNL     1       3.513   5.315  18.117  0.00  0.00    +0.000 A 
ATOM      2  C   UNL     1       2.847   6.486  18.499  0.00  0.00    +0.000 A 
ATOM      3  C   UNL     1       2.245   6.585  19.750  0.00  0.00    +0.000 A 
ATOM      4  C   UNL     1       2.190   5.469  20.572  0.00  0.00    +0.000 A 
ATOM      5  C   UNL     1       2.790   4.261  20.186  0.00  0.00    +0.000 A 
ATOM      6  C   UNL     1       3.459   4.166  18.940  0.00  0.00    +0.000 A 
ENDROOT
BRANCH   3   7
ATOM      7  C   UNL     1       1.776   7.900  20.218  0.00  0.00    +0.000 C 
ATOM      8  N   UNL     1       1.364   8.832  19.397  0.00  0.00    +0.000 NA
ATOM      9  C   UNL     1       0.926   9.940  20.297  0.00  0.00    +0.000 C 
ATOM     10  C   UNL     1       0.793   9.333  21.692  0.00  0.00    +0.000 C 
ATOM     11  N   UNL     1       1.652   8.176  21.564  0.00  0.00    +0.000 N 
ATOM     12  H   UNL     1       1.412   7.385  22.161  0.00  0.00    +0.000 HD
ENDBRANCH   3   7
BRANCH   1  14
ATOM     13  C   UNL     1       5.315   6.185  16.846  0.00  0.00    +0.000 C 
ATOM     14  O   UNL     1       4.202   5.292  16.931  0.00  0.00    +0.000 OA
ENDBRANCH   1  14
BRANCH   5  15
ATOM     15  O   UNL     1       2.642   3.301  21.157  0.00  0.00    +0.000 OA
ATOM     16  C   UNL     1       1.367   2.730  21.399  0.00  0.00    +0.000 C 
ENDBRANCH   5  15
BRANCH   6  17
ATOM     17  O   UNL     1       4.022   2.954  18.653  0.00  0.00    +0.000 OA
ATOM     18  C   UNL     1       3.283   1.931  18.007  0.00  0.00    +0.000 C 
ENDBRANCH   6  17
TORSDOF 4
ENDMDL
MODEL 7
REMARK VINA RESULT:      -5.9      3.589      5.674
REMARK  Name = 
REMARK  7 active torsions:
REMARK  status: ('A' for Active; 'I' for Inactive)
REMARK    1  A    between atoms: C_1  and  O_2
REMARK    2  A    between atoms: O_2  and  C_3
REMARK    3  A    between atoms: C_5  and  C_6
REMARK    4  A    between atoms: C_12  and  O_13
REMARK    5  A    between atoms: O_13  and  C_14
REMARK    6  A    between atoms: C_15  and  O_16
REMARK    7  A    between atoms: O_16  and  C_17
REMARK                            x       y       z     vdW  Elec       q    Type
REMARK                         _______ _______ _______ _____ _____    ______ ____
ROOT
ATOM      1  C   UNL     1       3.871   6.900  17.514  0.00  0.00    +0.000 A 
ATOM      2  C   UNL     1       2.832   6.040  17.887  0.00  0.00    +0.000 A 
ATOM      3  C   UNL     1       2.991   4.659  17.815  0.00  0.00    +0.000 A 
ATOM      4  C   UNL     1       4.141   4.133  17.245  0.00  0.00    +0.000 A 
ATOM      5  C   UNL     1       5.172   4.973  16.799  0.00  0.00    +0.000 A 
ATOM      6  C   UNL     1       5.047   6.380  16.923  0.00  0.00    +0.000 A 
ENDROOT
BRANCH   3   7
ATOM      7  C   UNL     1       1.985   3.787  18.445  0.00  0.00    +0.000 C 
ATOM      8  N   UNL     1       1.653   2.623  17.946  0.00  0.00    +0.000 NA
ATOM      9  C   UNL     1       0.676   2.073  18.930  0.00  0.00    +0.000 C 
ATOM     10  C   UNL     1       0.826   2.910  20.199  0.00  0.00    +0.000 C 
ATOM     11  N   UNL     1       1.414   4.116  19.657  0.00  0.00    +0.000 N 
ATOM     12  H   UNL     1       2.004   4.641  20.300  0.00  0.00    +0.000 HD
ENDBRANCH   3   7
BRANCH   1  14
ATOM     13  C   UNL     1       2.383   8.722  17.804  0.00  0.00    +0.000 C 
ATOM     14  O   UNL     1       3.730   8.250  17.712  0.00  0.00    +0.000 OA
ENDBRANCH   1  14
BRANCH   5  15
ATOM     15  O   UNL     1       6.224   4.245  16.299  0.00  0.00    +0.000 OA
ATOM     16  C   UNL     1       6.322   4.010  14.904  0.00  0.00    +0.000 C 
ENDBRANCH   5  15
BRANCH   6  17
ATOM     17  O   UNL     1       6.105   7.117  16.472  0.00  0.00    +0.000 OA
ATOM     18  C   UNL     1       7.188   7.450  17.324  0.00  0.00    +0.000 C 
ENDBRANCH   6  17
TORSDOF 4
ENDMDL
MODEL 8
REMARK VINA RESULT:      -5.9      3.934      6.265
REMARK  Name = 
REMARK  7 active torsions:
REMARK  status: ('A' for Active; 'I' for Inactive)
REMARK    1  A    between atoms: C_1  and  O_2
REMARK    2  A    between atoms: O_2  and  C_3
REMARK    3  A    between atoms: C_5  and  C_6
REMARK    4  A    between atoms: C_12  and  O_13
REMARK    5  A    between atoms: O_13  and  C_14
REMARK    6  A    between atoms: C_15  and  O_16
REMARK    7  A    between atoms: O_16  and  C_17
REMARK                            x       y       z     vdW  Elec       q    Type
REMARK                         _______ _______ _______ _____ _____    ______ ____
ROOT
ATOM      1  C   UNL     1       5.226   6.239  16.872  0.00  0.00    +0.000 A 
ATOM      2  C   UNL     1       4.340   7.088  17.546  0.00  0.00    +0.000 A 
ATOM      3  C   UNL     1       3.221   6.577  18.195  0.00  0.00    +0.000 A 
ATOM      4  C   UNL     1       2.909   5.232  18.062  0.00  0.00    +0.000 A 
ATOM      5  C   UNL     1       3.742   4.368  17.335  0.00  0.00    +0.000 A 
ATOM      6  C   UNL     1       4.918   4.866  16.720  0.00  0.00    +0.000 A 
ENDROOT
BRANCH   3   7
ATOM      7  C   UNL     1       2.453   7.452  19.097  0.00  0.00    +0.000 C 
ATOM      8  N   UNL     1       1.829   8.522  18.676  0.00  0.00    +0.000 NA
ATOM      9  C   UNL     1       1.142   9.045  19.893  0.00  0.00    +0.000 C 
ATOM     10  C   UNL     1       1.160   7.910  20.917  0.00  0.00    +0.000 C 
ATOM     11  N   UNL     1       2.270   7.123  20.425  0.00  0.00    +0.000 N 
ATOM     12  H   UNL     1       2.226   6.127  20.636  0.00  0.00    +0.000 HD
ENDBRANCH   3   7
BRANCH   1  14
ATOM     13  C   UNL     1       7.397   7.089  17.301  0.00  0.00    +0.000 C 
ATOM     14  O   UNL     1       6.384   6.755  16.348  0.00  0.00    +0.000 OA
ENDBRANCH   1  14
BRANCH   5  15
ATOM     15  O   UNL     1       3.263   3.081  17.358  0.00  0.00    +0.000 OA
ATOM     16  C   UNL     1       2.001   2.806  17.944  0.00  0.00    +0.000 C 
ENDBRANCH   5  15
BRANCH   6  17
ATOM     17  O   UNL     1       5.674   3.950  16.043  0.00  0.00    +0.000 OA
ATOM     18  C   UNL     1       5.816   4.009  14.634  0.00  0.00    +0.000 C 
ENDBRANCH   6  17
TORSDOF 4
ENDMDL
MODEL 9
REMARK VINA RESULT:      -5.9      3.993      5.851
REMARK  Name = 
REMARK  7 active torsions:
REMARK  status: ('A' for Active; 'I' for Inactive)
REMARK    1  A    between atoms: C_1  and  O_2
REMARK    2  A    between atoms: O_2  and  C_3
REMARK    3  A    between atoms: C_5  and  C_6
REMARK    4  A    between atoms: C_12  and  O_13
REMARK    5  A    between atoms: O_13  and  C_14
REMARK    6  A    between atoms: C_15  and  O_16
REMARK    7  A    between atoms: O_16  and  C_17
REMARK                            x       y       z     vdW  Elec       q    Type
REMARK                         _______ _______ _______ _____ _____    ______ ____
ROOT
ATOM      1  C   UNL     1       3.961   4.653  17.875  0.00  0.00    +0.000 A 
ATOM      2  C   UNL     1       3.359   5.914  17.781  0.00  0.00    +0.000 A 
ATOM      3  C   UNL     1       2.604   6.420  18.834  0.00  0.00    +0.000 A 
ATOM      4  C   UNL     1       2.336   5.616  19.932  0.00  0.00    +0.000 A 
ATOM      5  C   UNL     1       2.871   4.322  20.023  0.00  0.00    +0.000 A 
ATOM      6  C   UNL     1       3.692   3.817  18.983  0.00  0.00    +0.000 A 
ENDROOT
BRANCH   3   7
ATOM      7  C   UNL     1       2.197   7.836  18.809  0.00  0.00    +0.000 C 
ATOM      8  N   UNL     1       2.277   8.571  17.729  0.00  0.00    +0.000 NA
ATOM      9  C   UNL     1       1.702   9.885  18.142  0.00  0.00    +0.000 C 
ATOM     10  C   UNL     1       0.955   9.635  19.451  0.00  0.00    +0.000 C 
ATOM     11  N   UNL     1       1.611   8.429  19.909  0.00  0.00    +0.000 N 
ATOM     12  H   UNL     1       1.045   7.819  20.496  0.00  0.00    +0.000 HD
ENDBRANCH   3   7
BRANCH   1  14
ATOM     13  C   UNL     1       5.624   5.248  16.293  0.00  0.00    +0.000 C 
ATOM     14  O   UNL     1       4.800   4.234  16.873  0.00  0.00    +0.000 OA
ENDBRANCH   1  14
BRANCH   5  15
ATOM     15  O   UNL     1       2.506   3.716  21.201  0.00  0.00    +0.000 OA
ATOM     16  C   UNL     1       1.346   2.902  21.247  0.00  0.00    +0.000 C 
ENDBRANCH   5  15
BRANCH   6  17
ATOM     17  O   UNL     1       4.176   2.552  19.163  0.00  0.00    +0.000 OA
ATOM     18  C   UNL     1       3.569   1.434  18.538  0.00  0.00    +0.000 C 
ENDBRANCH   6  17
TORSDOF 4
ENDMDL
