MODEL 1
REMARK VINA RESULT:      -9.3      0.000      0.000
REMARK  Name = 
REMARK  7 active torsions:
REMARK  status: ('A' for Active; 'I' for Inactive)
REMARK    1  A    between atoms: C_1  and  C_2
REMARK    2  A    between atoms: C_2  and  C_3
REMARK    3  A    between atoms: C_2  and  C_4
REMARK    4  A    between atoms: C_7  and  C_8
REMARK    5  A    between atoms: N_9  and  N_10
REMARK    6  A    between atoms: C_11  and  C_13
REMARK    7  A    between atoms: C_22  and  C_23
REMARK                            x       y       z     vdW  Elec       q    Type
REMARK                         _______ _______ _______ _____ _____    ______ ____
ROOT
ATOM      1  C   UNL     1       3.482   6.344  18.419  0.00  0.00    +0.000 A 
ATOM      2  N   UNL     1       4.808   6.585  18.526  0.00  0.00    +0.000 NA
ATOM      3  C   UNL     1       5.563   5.716  17.796  0.00  0.00    +0.000 A 
ATOM      4  C   UNL     1       6.856   5.319  18.123  0.00  0.00    +0.000 A 
ATOM      5  C   UNL     1       7.592   4.496  17.264  0.00  0.00    +0.000 A 
ATOM      6  C   UNL     1       7.109   4.258  15.984  0.00  0.00    +0.000 A 
ATOM      7  C   UNL     1       5.778   4.541  15.717  0.00  0.00    +0.000 A 
ATOM      8  C   UNL     1       4.971   4.985  16.757  0.00  0.00    +0.000 A 
ATOM      9  N   UNL     1       3.690   4.583  16.916  0.00  0.00    +0.000 NA
ATOM     10  C   UNL     1       3.039   5.120  17.980  0.00  0.00    +0.000 A 
ENDROOT
BRANCH  10  11
ATOM     11  C   UNL     1       2.470   4.201  19.031  0.00  0.00    +0.000 A 
ATOM     12  C   UNL     1       3.291   3.729  20.099  0.00  0.00    +0.000 A 
ATOM     13  C   UNL     1       2.796   3.007  21.178  0.00  0.00    +0.000 A 
ATOM     14  C   UNL     1       1.452   2.671  21.192  0.00  0.00    +0.000 A 
ATOM     15  C   UNL     1       0.637   3.008  20.109  0.00  0.00    +0.000 A 
ATOM     16  C   UNL     1       1.149   3.753  19.025  0.00  0.00    +0.000 A 
ENDBRANCH  10  11
BRANCH   1  18
ATOM     17  N   UNL     1       2.192   7.330  20.238  0.00  0.00    +0.000 N 
ATOM     18  C   UNL     1       2.448   7.285  18.885  0.00  0.00    +0.000 C 
ATOM     19  O   UNL     1       1.832   7.976  18.064  0.00  0.00    +0.000 OA
ATOM     20  H   UNL     1       2.727   6.765  20.881  0.00  0.00    +0.000 HD
BRANCH  17  22
ATOM     21  C   UNL     1       1.486   9.273  21.127  0.00  0.00    +0.000 C 
ATOM     22  N   UNL     1       1.160   8.127  20.666  0.00  0.00    +0.000 NA
BRANCH  21  26
ATOM     23  C   UNL     1      -1.452  12.059  22.560  0.00  0.00    +0.000 A 
ATOM     24  C   UNL     1      -1.290  10.816  23.200  0.00  0.00    +0.000 A 
ATOM     25  C   UNL     1      -0.343   9.891  22.747  0.00  0.00    +0.000 A 
ATOM     26  C   UNL     1       0.460  10.208  21.645  0.00  0.00    +0.000 A 
ATOM     27  C   UNL     1       0.314  11.429  20.997  0.00  0.00    +0.000 A 
ATOM     28  C   UNL     1      -0.631  12.347  21.456  0.00  0.00    +0.000 A 
BRANCH  23  30
ATOM     29  C   UNL     1      -3.513  12.353  23.936  0.00  0.00    +0.000 C 
ATOM     30  C   UNL     1      -2.446  13.070  23.103  0.00  0.00    +0.000 C 
ATOM     31  C   UNL     1      -1.811  14.200  23.925  0.00  0.00    +0.000 C 
ENDBRANCH  23  30
ENDBRANCH  21  26
ENDBRANCH  17  22
ENDBRANCH   1  18
TORSDOF 5
ENDMDL
MODEL 2
REMARK VINA RESULT:      -9.3      0.700      1.172
REMARK  Name = 
REMARK  7 active torsions:
REMARK  status: ('A' for Active; 'I' for Inactive)
REMARK    1  A    between atoms: C_1  and  C_2
REMARK    2  A    between atoms: C_2  and  C_3
REMARK    3  A    between atoms: C_2  and  C_4
REMARK    4  A    between atoms: C_7  and  C_8
REMARK    5  A    between atoms: N_9  and  N_10
REMARK    6  A    between atoms: C_11  and  C_13
REMARK    7  A    between atoms: C_22  and  C_23
REMARK                            x       y       z     vdW  Elec       q    Type
REMARK                         _______ _______ _______ _____ _____    ______ ____
ROOT
ATOM      1  C   UNL     1       3.425   6.620  18.189  0.00  0.00    +0.000 A 
ATOM      2  N   UNL     1       4.745   6.875  18.336  0.00  0.00    +0.000 NA
ATOM      3  C   UNL     1       5.533   5.918  17.769  0.00  0.00    +0.000 A 
ATOM      4  C   UNL     1       6.804   5.569  18.216  0.00  0.00    +0.000 A 
ATOM      5  C   UNL     1       7.580   4.640  17.516  0.00  0.00    +0.000 A 
ATOM      6  C   UNL     1       7.167   4.234  16.254  0.00  0.00    +0.000 A 
ATOM      7  C   UNL     1       5.853   4.479  15.879  0.00  0.00    +0.000 A 
ATOM      8  C   UNL     1       4.994   5.055  16.806  0.00  0.00    +0.000 A 
ATOM      9  N   UNL     1       3.704   4.676  16.945  0.00  0.00    +0.000 NA
ATOM     10  C   UNL     1       2.999   5.349  17.892  0.00  0.00    +0.000 A 
ENDROOT
BRANCH  10  11
ATOM     11  C   UNL     1       2.368   4.576  19.022  0.00  0.00    +0.000 A 
ATOM     12  C   UNL     1       1.265   3.704  18.773  0.00  0.00    +0.000 A 
ATOM     13  C   UNL     1       0.735   2.853  19.734  0.00  0.00    +0.000 A 
ATOM     14  C   UNL     1       1.258   2.892  21.017  0.00  0.00    +0.000 A 
ATOM     15  C   UNL     1       2.256   3.815  21.335  0.00  0.00    +0.000 A 
ATOM     16  C   UNL     1       2.795   4.666  20.347  0.00  0.00    +0.000 A 
ENDBRANCH  10  11
BRANCH   1  18
ATOM     17  N   UNL     1       2.134   7.933  19.787  0.00  0.00    +0.000 N 
ATOM     18  C   UNL     1       2.373   7.614  18.469  0.00  0.00    +0.000 C 
ATOM     19  O   UNL     1       1.728   8.104  17.534  0.00  0.00    +0.000 OA
ATOM     20  H   UNL     1       2.692   7.526  20.523  0.00  0.00    +0.000 HD
BRANCH  17  22
ATOM     21  C   UNL     1       1.079   9.306  21.223  0.00  0.00    +0.000 C 
ATOM     22  N   UNL     1       1.087   8.777  20.061  0.00  0.00    +0.000 NA
BRANCH  21  26
ATOM     23  C   UNL     1      -2.088  11.985  22.340  0.00  0.00    +0.000 A 
ATOM     24  C   UNL     1      -1.564  11.083  23.284  0.00  0.00    +0.000 A 
ATOM     25  C   UNL     1      -0.537  10.197  22.941  0.00  0.00    +0.000 A 
ATOM     26  C   UNL     1      -0.016  10.213  21.642  0.00  0.00    +0.000 A 
ATOM     27  C   UNL     1      -0.521  11.095  20.693  0.00  0.00    +0.000 A 
ATOM     28  C   UNL     1      -1.544  11.977  21.044  0.00  0.00    +0.000 A 
BRANCH  23  30
ATOM     29  C   UNL     1      -4.267  13.013  21.689  0.00  0.00    +0.000 C 
ATOM     30  C   UNL     1      -3.163  12.976  22.750  0.00  0.00    +0.000 C 
ATOM     31  C   UNL     1      -3.774  12.707  24.132  0.00  0.00    +0.000 C 
ENDBRANCH  23  30
ENDBRANCH  21  26
ENDBRANCH  17  22
ENDBRANCH   1  18
TORSDOF 5
ENDMDL
MODEL 3
REMARK VINA RESULT:      -9.3      0.354      1.121
REMARK  Name = 
REMARK  7 active torsions:
REMARK  status: ('A' for Active; 'I' for Inactive)
REMARK    1  A    between atoms: C_1  and  C_2
REMARK    2  A    between atoms: C_2  and  C_3
REMARK    3  A    between atoms: C_2  and  C_4
REMARK    4  A    between atoms: C_7  and  C_8
REMARK    5  A    between atoms: N_9  and  N_10
REMARK    6  A    between atoms: C_11  and  C_13
REMARK    7  A    between atoms: C_22  and  C_23
REMARK                            x       y       z     vdW  Elec       q    Type
REMARK                         _______ _______ _______ _____ _____    ______ ____
ROOT
ATOM      1  C   UNL     1       3.528   6.256  18.386  0.00  0.00    +0.000 A 
ATOM      2  N   UNL     1       4.855   6.512  18.419  0.00  0.00    +0.000 NA
ATOM      3  C   UNL     1       5.578   5.647  17.651  0.00  0.00    +0.000 A 
ATOM      4  C   UNL     1       6.891   5.264  17.908  0.00  0.00    +0.000 A 
ATOM      5  C   UNL     1       7.586   4.444  17.013  0.00  0.00    +0.000 A 
ATOM      6  C   UNL     1       7.037   4.196  15.762  0.00  0.00    +0.000 A 
ATOM      7  C   UNL     1       5.690   4.465  15.568  0.00  0.00    +0.000 A 
ATOM      8  C   UNL     1       4.937   4.905  16.649  0.00  0.00    +0.000 A 
ATOM      9  N   UNL     1       3.671   4.491  16.880  0.00  0.00    +0.000 NA
ATOM     10  C   UNL     1       3.074   5.026  17.976  0.00  0.00    +0.000 A 
ENDROOT
BRANCH  10  11
ATOM     11  C   UNL     1       2.573   4.106  19.060  0.00  0.00    +0.000 A 
ATOM     12  C   UNL     1       3.491   3.464  19.944  0.00  0.00    +0.000 A 
ATOM     13  C   UNL     1       3.093   2.727  21.053  0.00  0.00    +0.000 A 
ATOM     14  C   UNL     1       1.738   2.553  21.282  0.00  0.00    +0.000 A 
ATOM     15  C   UNL     1       0.806   3.063  20.376  0.00  0.00    +0.000 A 
ATOM     16  C   UNL     1       1.222   3.819  19.260  0.00  0.00    +0.000 A 
ENDBRANCH  10  11
BRANCH   1  18
ATOM     17  N   UNL     1       2.259   7.167  20.258  0.00  0.00    +0.000 N 
ATOM     18  C   UNL     1       2.511   7.189  18.904  0.00  0.00    +0.000 C 
ATOM     19  O   UNL     1       1.906   7.933  18.122  0.00  0.00    +0.000 OA
ATOM     20  H   UNL     1       2.785   6.559  20.868  0.00  0.00    +0.000 HD
BRANCH  17  22
ATOM     21  C   UNL     1       1.567   9.140  21.087  0.00  0.00    +0.000 C 
ATOM     22  N   UNL     1       1.241   7.957  20.731  0.00  0.00    +0.000 NA
BRANCH  21  26
ATOM     23  C   UNL     1      -1.392  11.769  22.756  0.00  0.00    +0.000 A 
ATOM     24  C   UNL     1      -0.613  12.191  21.663  0.00  0.00    +0.000 A 
ATOM     25  C   UNL     1       0.361  11.354  21.108  0.00  0.00    +0.000 A 
ATOM     26  C   UNL     1       0.558  10.075  21.640  0.00  0.00    +0.000 A 
ATOM     27  C   UNL     1      -0.200   9.639  22.721  0.00  0.00    +0.000 A 
ATOM     28  C   UNL     1      -1.170  10.479  23.269  0.00  0.00    +0.000 A 
BRANCH  23  30
ATOM     29  C   UNL     1      -1.868  13.988  23.794  0.00  0.00    +0.000 C 
ATOM     30  C   UNL     1      -2.482  12.673  23.307  0.00  0.00    +0.000 C 
ATOM     31  C   UNL     1      -3.622  12.959  22.321  0.00  0.00    +0.000 C 
ENDBRANCH  23  30
ENDBRANCH  21  26
ENDBRANCH  17  22
ENDBRANCH   1  18
TORSDOF 5
ENDMDL
MODEL 4
REMARK VINA RESULT:      -9.1      0.218      1.256
REMARK  Name = 
REMARK  7 active torsions:
REMARK  status: ('A' for Active; 'I' for Inactive)
REMARK    1  A    between atoms: C_1  and  C_2
REMARK    2  A    between atoms: C_2  and  C_3
REMARK    3  A    between atoms: C_2  and  C_4
REMARK    4  A    between atoms: C_7  and  C_8
REMARK    5  A    between atoms: N_9  and  N_10
REMARK    6  A    between atoms: C_11  and  C_13
REMARK    7  A    between atoms: C_22  and  C_23
REMARK                            x       y       z     vdW  Elec       q    Type
REMARK                         _______ _______ _______ _____ _____    ______ ____
ROOT
ATOM      1  C   UNL     1       3.435   6.386  18.344  0.00  0.00    +0.000 A 
ATOM      2  N   UNL     1       4.761   6.651  18.308  0.00  0.00    +0.000 NA
ATOM      3  C   UNL     1       5.463   5.727  17.592  0.00  0.00    +0.000 A 
ATOM      4  C   UNL     1       6.788   5.375  17.834  0.00  0.00    +0.000 A 
ATOM      5  C   UNL     1       7.458   4.485  16.990  0.00  0.00    +0.000 A 
ATOM      6  C   UNL     1       6.868   4.126  15.786  0.00  0.00    +0.000 A 
ATOM      7  C   UNL     1       5.512   4.370  15.617  0.00  0.00    +0.000 A 
ATOM      8  C   UNL     1       4.794   4.897  16.682  0.00  0.00    +0.000 A 
ATOM      9  N   UNL     1       3.541   4.498  16.993  0.00  0.00    +0.000 NA
ATOM     10  C   UNL     1       2.978   5.123  18.059  0.00  0.00    +0.000 A 
ENDROOT
BRANCH  10  11
ATOM     11  C   UNL     1       2.523   4.298  19.236  0.00  0.00    +0.000 A 
ATOM     12  C   UNL     1       1.134   4.038  19.442  0.00  0.00    +0.000 A 
ATOM     13  C   UNL     1       0.659   3.165  20.413  0.00  0.00    +0.000 A 
ATOM     14  C   UNL     1       1.568   2.562  21.266  0.00  0.00    +0.000 A 
ATOM     15  C   UNL     1       2.925   2.880  21.178  0.00  0.00    +0.000 A 
ATOM     16  C   UNL     1       3.397   3.758  20.180  0.00  0.00    +0.000 A 
ENDBRANCH  10  11
BRANCH   1  18
ATOM     17  N   UNL     1       2.196   7.421  20.171  0.00  0.00    +0.000 N 
ATOM     18  C   UNL     1       2.429   7.355  18.816  0.00  0.00    +0.000 C 
ATOM     19  O   UNL     1       1.815   8.050  17.996  0.00  0.00    +0.000 OA
ATOM     20  H   UNL     1       2.729   6.851  20.812  0.00  0.00    +0.000 HD
BRANCH  17  22
ATOM     21  C   UNL     1       1.548   9.385  21.056  0.00  0.00    +0.000 C 
ATOM     22  N   UNL     1       1.189   8.244  20.608  0.00  0.00    +0.000 NA
BRANCH  21  26
ATOM     23  C   UNL     1      -1.384  12.096  22.639  0.00  0.00    +0.000 A 
ATOM     24  C   UNL     1      -0.551  12.501  21.580  0.00  0.00    +0.000 A 
ATOM     25  C   UNL     1       0.415  11.637  21.053  0.00  0.00    +0.000 A 
ATOM     26  C   UNL     1       0.551  10.348  21.581  0.00  0.00    +0.000 A 
ATOM     27  C   UNL     1      -0.260   9.929  22.629  0.00  0.00    +0.000 A 
ATOM     28  C   UNL     1      -1.223  10.796  23.148  0.00  0.00    +0.000 A 
BRANCH  23  30
ATOM     29  C   UNL     1      -3.516  12.229  23.929  0.00  0.00    +0.000 C 
ATOM     30  C   UNL     1      -2.463  13.030  23.158  0.00  0.00    +0.000 C 
ATOM     31  C   UNL     1      -1.937  14.179  24.028  0.00  0.00    +0.000 C 
ENDBRANCH  23  30
ENDBRANCH  21  26
ENDBRANCH  17  22
ENDBRANCH   1  18
TORSDOF 5
ENDMDL
MODEL 5
REMARK VINA RESULT:      -9.0      0.737      1.517
REMARK  Name = 
REMARK  7 active torsions:
REMARK  status: ('A' for Active; 'I' for Inactive)
REMARK    1  A    between atoms: C_1  and  C_2
REMARK    2  A    between atoms: C_2  and  C_3
REMARK    3  A    between atoms: C_2  and  C_4
REMARK    4  A    between atoms: C_7  and  C_8
REMARK    5  A    between atoms: N_9  and  N_10
REMARK    6  A    between atoms: C_11  and  C_13
REMARK    7  A    between atoms: C_22  and  C_23
REMARK                            x       y       z     vdW  Elec       q    Type
REMARK                         _______ _______ _______ _____ _____    ______ ____
ROOT
ATOM      1  C   UNL     1       3.408   6.638  18.120  0.00  0.00    +0.000 A 
ATOM      2  N   UNL     1       4.728   6.894  18.262  0.00  0.00    +0.000 NA
ATOM      3  C   UNL     1       5.515   5.931  17.703  0.00  0.00    +0.000 A 
ATOM      4  C   UNL     1       6.786   5.586  18.152  0.00  0.00    +0.000 A 
ATOM      5  C   UNL     1       7.561   4.650  17.460  0.00  0.00    +0.000 A 
ATOM      6  C   UNL     1       7.146   4.231  16.203  0.00  0.00    +0.000 A 
ATOM      7  C   UNL     1       5.832   4.472  15.828  0.00  0.00    +0.000 A 
ATOM      8  C   UNL     1       4.974   5.058  16.750  0.00  0.00    +0.000 A 
ATOM      9  N   UNL     1       3.684   4.681  16.896  0.00  0.00    +0.000 NA
ATOM     10  C   UNL     1       2.981   5.364  17.837  0.00  0.00    +0.000 A 
ENDROOT
BRANCH  10  11
ATOM     11  C   UNL     1       2.351   4.603  18.975  0.00  0.00    +0.000 A 
ATOM     12  C   UNL     1       1.251   3.725  18.737  0.00  0.00    +0.000 A 
ATOM     13  C   UNL     1       0.723   2.884  19.708  0.00  0.00    +0.000 A 
ATOM     14  C   UNL     1       1.246   2.940  20.990  0.00  0.00    +0.000 A 
ATOM     15  C   UNL     1       2.241   3.869  21.298  0.00  0.00    +0.000 A 
ATOM     16  C   UNL     1       2.778   4.710  20.300  0.00  0.00    +0.000 A 
ENDBRANCH  10  11
BRANCH   1  18
ATOM     17  N   UNL     1       2.172   8.025  19.699  0.00  0.00    +0.000 N 
ATOM     18  C   UNL     1       2.356   7.635  18.391  0.00  0.00    +0.000 C 
ATOM     19  O   UNL     1       1.664   8.065  17.460  0.00  0.00    +0.000 OA
ATOM     20  H   UNL     1       2.768   7.667  20.430  0.00  0.00    +0.000 HD
BRANCH  17  22
ATOM     21  C   UNL     1       1.119   9.398  21.136  0.00  0.00    +0.000 C 
ATOM     22  N   UNL     1       1.128   8.873  19.972  0.00  0.00    +0.000 NA
BRANCH  21  26
ATOM     23  C   UNL     1      -2.057  11.979  22.442  0.00  0.00    +0.000 A 
ATOM     24  C   UNL     1      -1.560  12.084  21.130  0.00  0.00    +0.000 A 
ATOM     25  C   UNL     1      -0.522  11.258  20.685  0.00  0.00    +0.000 A 
ATOM     26  C   UNL     1       0.025  10.308  21.554  0.00  0.00    +0.000 A 
ATOM     27  C   UNL     1      -0.449  10.190  22.855  0.00  0.00    +0.000 A 
ATOM     28  C   UNL     1      -1.486  11.016  23.291  0.00  0.00    +0.000 A 
BRANCH  23  30
ATOM     29  C   UNL     1      -2.762  14.301  23.026  0.00  0.00    +0.000 C 
ATOM     30  C   UNL     1      -3.222  12.847  22.885  0.00  0.00    +0.000 C 
ATOM     31  C   UNL     1      -4.450  12.772  21.968  0.00  0.00    +0.000 C 
ENDBRANCH  23  30
ENDBRANCH  21  26
ENDBRANCH  17  22
ENDBRANCH   1  18
TORSDOF 5
ENDMDL
MODEL 6
REMARK VINA RESULT:      -8.7      1.828      2.117
REMARK  Name = 
REMARK  7 active torsions:
REMARK  status: ('A' for Active; 'I' for Inactive)
REMARK    1  A    between atoms: C_1  and  C_2
REMARK    2  A    between atoms: C_2  and  C_3
REMARK    3  A    between atoms: C_2  and  C_4
REMARK    4  A    between atoms: C_7  and  C_8
REMARK    5  A    between atoms: N_9  and  N_10
REMARK    6  A    between atoms: C_11  and  C_13
REMARK    7  A    between atoms: C_22  and  C_23
REMARK                            x       y       z     vdW  Elec       q    Type
REMARK                         _______ _______ _______ _____ _____    ______ ____
ROOT
ATOM      1  C   UNL     1       3.505   6.323  18.355  0.00  0.00    +0.000 A 
ATOM      2  N   UNL     1       4.836   6.565  18.348  0.00  0.00    +0.000 NA
ATOM      3  C   UNL     1       5.520   5.722  17.523  0.00  0.00    +0.000 A 
ATOM      4  C   UNL     1       6.838   5.318  17.716  0.00  0.00    +0.000 A 
ATOM      5  C   UNL     1       7.491   4.525  16.767  0.00  0.00    +0.000 A 
ATOM      6  C   UNL     1       6.893   4.328  15.530  0.00  0.00    +0.000 A 
ATOM      7  C   UNL     1       5.542   4.616  15.396  0.00  0.00    +0.000 A 
ATOM      8  C   UNL     1       4.835   5.023  16.520  0.00  0.00    +0.000 A 
ATOM      9  N   UNL     1       3.574   4.612  16.783  0.00  0.00    +0.000 NA
ATOM     10  C   UNL     1       3.024   5.113  17.919  0.00  0.00    +0.000 A 
ENDROOT
BRANCH  10  11
ATOM     11  C   UNL     1       2.554   4.158  18.987  0.00  0.00    +0.000 A 
ATOM     12  C   UNL     1       3.492   3.544  19.871  0.00  0.00    +0.000 A 
ATOM     13  C   UNL     1       3.117   2.777  20.967  0.00  0.00    +0.000 A 
ATOM     14  C   UNL     1       1.768   2.543  21.183  0.00  0.00    +0.000 A 
ATOM     15  C   UNL     1       0.822   3.024  20.275  0.00  0.00    +0.000 A 
ATOM     16  C   UNL     1       1.215   3.812  19.173  0.00  0.00    +0.000 A 
ENDBRANCH  10  11
BRANCH   1  18
ATOM     17  N   UNL     1       2.143   8.338  18.196  0.00  0.00    +0.000 N 
ATOM     18  C   UNL     1       2.518   7.245  18.945  0.00  0.00    +0.000 C 
ATOM     19  O   UNL     1       2.083   7.033  20.084  0.00  0.00    +0.000 OA
ATOM     20  H   UNL     1       2.506   8.471  17.263  0.00  0.00    +0.000 HD
BRANCH  17  22
ATOM     21  C   UNL     1       0.195   9.464  18.183  0.00  0.00    +0.000 C 
ATOM     22  N   UNL     1       1.306   9.256  18.779  0.00  0.00    +0.000 NA
BRANCH  21  26
ATOM     23  C   UNL     1      -2.565  12.337  19.787  0.00  0.00    +0.000 A 
ATOM     24  C   UNL     1      -2.845  11.700  18.564  0.00  0.00    +0.000 A 
ATOM     25  C   UNL     1      -1.957  10.766  18.020  0.00  0.00    +0.000 A 
ATOM     26  C   UNL     1      -0.778  10.453  18.705  0.00  0.00    +0.000 A 
ATOM     27  C   UNL     1      -0.481  11.073  19.913  0.00  0.00    +0.000 A 
ATOM     28  C   UNL     1      -1.373  12.003  20.451  0.00  0.00    +0.000 A 
BRANCH  23  30
ATOM     29  C   UNL     1      -4.990  12.892  19.990  0.00  0.00    +0.000 C 
ATOM     30  C   UNL     1      -3.570  13.306  20.386  0.00  0.00    +0.000 C 
ATOM     31  C   UNL     1      -3.473  13.452  21.911  0.00  0.00    +0.000 C 
ENDBRANCH  23  30
ENDBRANCH  21  26
ENDBRANCH  17  22
ENDBRANCH   1  18
TORSDOF 5
ENDMDL
MODEL 7
REMARK VINA RESULT:      -8.4      5.671      8.339
REMARK  Name = 
REMARK  7 active torsions:
REMARK  status: ('A' for Active; 'I' for Inactive)
REMARK    1  A    between atoms: C_1  and  C_2
REMARK    2  A    between atoms: C_2  and  C_3
REMARK    3  A    between atoms: C_2  and  C_4
REMARK    4  A    between atoms: C_7  and  C_8
REMARK    5  A    between atoms: N_9  and  N_10
REMARK    6  A    between atoms: C_11  and  C_13
REMARK    7  A    between atoms: C_22  and  C_23
REMARK                            x       y       z     vdW  Elec       q    Type
REMARK                         _______ _______ _______ _____ _____    ______ ____
ROOT
ATOM      1  C   UNL     1       5.432   5.945  17.249  0.00  0.00    +0.000 A 
ATOM      2  N   UNL     1       4.139   6.052  17.630  0.00  0.00    +0.000 NA
ATOM      3  C   UNL     1       3.577   4.848  17.935  0.00  0.00    +0.000 A 
ATOM      4  C   UNL     1       2.228   4.541  17.785  0.00  0.00    +0.000 A 
ATOM      5  C   UNL     1       1.722   3.309  18.212  0.00  0.00    +0.000 A 
ATOM      6  C   UNL     1       2.526   2.484  18.987  0.00  0.00    +0.000 A 
ATOM      7  C   UNL     1       3.891   2.732  19.017  0.00  0.00    +0.000 A 
ATOM      8  C   UNL     1       4.399   3.750  18.220  0.00  0.00    +0.000 A 
ATOM      9  N   UNL     1       5.569   3.643  17.551  0.00  0.00    +0.000 NA
ATOM     10  C   UNL     1       5.925   4.735  16.825  0.00  0.00    +0.000 A 
ENDROOT
BRANCH  10  11
ATOM     11  C   UNL     1       6.145   4.588  15.341  0.00  0.00    +0.000 A 
ATOM     12  C   UNL     1       7.318   5.122  14.727  0.00  0.00    +0.000 A 
ATOM     13  C   UNL     1       7.655   4.893  13.399  0.00  0.00    +0.000 A 
ATOM     14  C   UNL     1       6.782   4.161  12.610  0.00  0.00    +0.000 A 
ATOM     15  C   UNL     1       5.566   3.722  13.136  0.00  0.00    +0.000 A 
ATOM     16  C   UNL     1       5.241   3.951  14.490  0.00  0.00    +0.000 A 
ENDBRANCH  10  11
BRANCH   1  18
ATOM     17  N   UNL     1       7.507   7.073  17.852  0.00  0.00    +0.000 N 
ATOM     18  C   UNL     1       6.338   7.100  17.124  0.00  0.00    +0.000 C 
ATOM     19  O   UNL     1       6.019   8.056  16.406  0.00  0.00    +0.000 OA
ATOM     20  H   UNL     1       7.744   6.269  18.414  0.00  0.00    +0.000 HD
BRANCH  17  22
ATOM     21  C   UNL     1       8.384   8.855  18.910  0.00  0.00    +0.000 C 
ATOM     22  N   UNL     1       8.304   8.190  17.822  0.00  0.00    +0.000 NA
BRANCH  21  26
ATOM     23  C   UNL     1      10.710  12.449  19.250  0.00  0.00    +0.000 A 
ATOM     24  C   UNL     1      10.402  11.929  17.980  0.00  0.00    +0.000 A 
ATOM     25  C   UNL     1       9.651  10.756  17.846  0.00  0.00    +0.000 A 
ATOM     26  C   UNL     1       9.192  10.095  18.990  0.00  0.00    +0.000 A 
ATOM     27  C   UNL     1       9.488  10.591  20.255  0.00  0.00    +0.000 A 
ATOM     28  C   UNL     1      10.236  11.762  20.380  0.00  0.00    +0.000 A 
BRANCH  23  30
ATOM     29  C   UNL     1      11.459  14.494  18.030  0.00  0.00    +0.000 C 
ATOM     30  C   UNL     1      11.479  13.754  19.371  0.00  0.00    +0.000 C 
ATOM     31  C   UNL     1      10.978  14.679  20.487  0.00  0.00    +0.000 C 
ENDBRANCH  23  30
ENDBRANCH  21  26
ENDBRANCH  17  22
ENDBRANCH   1  18
TORSDOF 5
ENDMDL
MODEL 8
REMARK VINA RESULT:      -8.4      1.898      2.279
REMARK  Name = 
REMARK  7 active torsions:
REMARK  status: ('A' for Active; 'I' for Inactive)
REMARK    1  A    between atoms: C_1  and  C_2
REMARK    2  A    between atoms: C_2  and  C_3
REMARK    3  A    between atoms: C_2  and  C_4
REMARK    4  A    between atoms: C_7  and  C_8
REMARK    5  A    between atoms: N_9  and  N_10
REMARK    6  A    between atoms: C_11  and  C_13
REMARK    7  A    between atoms: C_22  and  C_23
REMARK                            x       y       z     vdW  Elec       q    Type
REMARK                         _______ _______ _______ _____ _____    ______ ____
ROOT
ATOM      1  C   UNL     1       3.537   6.361  18.247  0.00  0.00    +0.000 A 
ATOM      2  N   UNL     1       4.862   6.608  18.132  0.00  0.00    +0.000 NA
ATOM      3  C   UNL     1       5.499   5.707  17.331  0.00  0.00    +0.000 A 
ATOM      4  C   UNL     1       6.831   5.327  17.468  0.00  0.00    +0.000 A 
ATOM      5  C   UNL     1       7.428   4.465  16.543  0.00  0.00    +0.000 A 
ATOM      6  C   UNL     1       6.752   4.166  15.368  0.00  0.00    +0.000 A 
ATOM      7  C   UNL     1       5.392   4.436  15.302  0.00  0.00    +0.000 A 
ATOM      8  C   UNL     1       4.756   4.927  16.435  0.00  0.00    +0.000 A 
ATOM      9  N   UNL     1       3.520   4.531  16.813  0.00  0.00    +0.000 NA
ATOM     10  C   UNL     1       3.041   5.117  17.941  0.00  0.00    +0.000 A 
ENDROOT
BRANCH  10  11
ATOM     11  C   UNL     1       2.653   4.248  19.109  0.00  0.00    +0.000 A 
ATOM     12  C   UNL     1       1.277   4.013  19.410  0.00  0.00    +0.000 A 
ATOM     13  C   UNL     1       0.851   3.108  20.373  0.00  0.00    +0.000 A 
ATOM     14  C   UNL     1       1.805   2.441  21.125  0.00  0.00    +0.000 A 
ATOM     15  C   UNL     1       3.159   2.730  20.948  0.00  0.00    +0.000 A 
ATOM     16  C   UNL     1       3.580   3.643  19.958  0.00  0.00    +0.000 A 
ENDBRANCH  10  11
BRANCH   1  18
ATOM     17  N   UNL     1       2.167   8.366  18.029  0.00  0.00    +0.000 N 
ATOM     18  C   UNL     1       2.582   7.322  18.826  0.00  0.00    +0.000 C 
ATOM     19  O   UNL     1       2.206   7.184  19.998  0.00  0.00    +0.000 OA
ATOM     20  H   UNL     1       2.481   8.437  17.072  0.00  0.00    +0.000 HD
BRANCH  17  22
ATOM     21  C   UNL     1       0.144   9.333  18.206  0.00  0.00    +0.000 C 
ATOM     22  N   UNL     1       1.361   9.321  18.595  0.00  0.00    +0.000 NA
BRANCH  21  26
ATOM     23  C   UNL     1      -2.694  12.227  19.627  0.00  0.00    +0.000 A 
ATOM     24  C   UNL     1      -1.471  12.052  20.301  0.00  0.00    +0.000 A 
ATOM     25  C   UNL     1      -0.535  11.111  19.859  0.00  0.00    +0.000 A 
ATOM     26  C   UNL     1      -0.814  10.338  18.727  0.00  0.00    +0.000 A 
ATOM     27  C   UNL     1      -2.017  10.493  18.049  0.00  0.00    +0.000 A 
ATOM     28  C   UNL     1      -2.946  11.435  18.494  0.00  0.00    +0.000 A 
BRANCH  23  30
ATOM     29  C   UNL     1      -4.979  12.638  20.543  0.00  0.00    +0.000 C 
ATOM     30  C   UNL     1      -3.671  13.294  20.091  0.00  0.00    +0.000 C 
ATOM     31  C   UNL     1      -3.130  14.206  21.200  0.00  0.00    +0.000 C 
ENDBRANCH  23  30
ENDBRANCH  21  26
ENDBRANCH  17  22
ENDBRANCH   1  18
TORSDOF 5
ENDMDL
MODEL 9
REMARK VINA RESULT:      -8.3      1.757      2.122
REMARK  Name = 
REMARK  7 active torsions:
REMARK  status: ('A' for Active; 'I' for Inactive)
REMARK    1  A    between atoms: C_1  and  C_2
REMARK    2  A    between atoms: C_2  and  C_3
REMARK    3  A    between atoms: C_2  and  C_4
REMARK    4  A    between atoms: C_7  and  C_8
REMARK    5  A    between atoms: N_9  and  N_10
REMARK    6  A    between atoms: C_11  and  C_13
REMARK    7  A    between atoms: C_22  and  C_23
REMARK                            x       y       z     vdW  Elec       q    Type
REMARK                         _______ _______ _______ _____ _____    ______ ____
ROOT
ATOM      1  C   UNL     1       3.495   6.391  18.260  0.00  0.00    +0.000 A 
ATOM      2  N   UNL     1       4.825   6.614  18.357  0.00  0.00    +0.000 NA
ATOM      3  C   UNL     1       5.562   5.736  17.618  0.00  0.00    +0.000 A 
ATOM      4  C   UNL     1       6.852   5.321  17.934  0.00  0.00    +0.000 A 
ATOM      5  C   UNL     1       7.569   4.489  17.068  0.00  0.00    +0.000 A 
ATOM      6  C   UNL     1       7.074   4.261  15.791  0.00  0.00    +0.000 A 
ATOM      7  C   UNL     1       5.744   4.564  15.535  0.00  0.00    +0.000 A 
ATOM      8  C   UNL     1       4.952   5.016  16.583  0.00  0.00    +0.000 A 
ATOM      9  N   UNL     1       3.667   4.631  16.751  0.00  0.00    +0.000 NA
ATOM     10  C   UNL     1       3.032   5.175  17.822  0.00  0.00    +0.000 A 
ENDROOT
BRANCH  10  11
ATOM     11  C   UNL     1       2.459   4.261  18.875  0.00  0.00    +0.000 A 
ATOM     12  C   UNL     1       3.192   3.983  20.067  0.00  0.00    +0.000 A 
ATOM     13  C   UNL     1       2.663   3.276  21.140  0.00  0.00    +0.000 A 
ATOM     14  C   UNL     1       1.382   2.760  21.028  0.00  0.00    +0.000 A 
ATOM     15  C   UNL     1       0.674   2.904  19.833  0.00  0.00    +0.000 A 
ATOM     16  C   UNL     1       1.217   3.635  18.756  0.00  0.00    +0.000 A 
ENDBRANCH  10  11
BRANCH   1  18
ATOM     17  N   UNL     1       1.992   8.262  17.830  0.00  0.00    +0.000 N 
ATOM     18  C   UNL     1       2.478   7.346  18.737  0.00  0.00    +0.000 C 
ATOM     19  O   UNL     1       2.115   7.317  19.920  0.00  0.00    +0.000 OA
ATOM     20  H   UNL     1       2.298   8.245  16.869  0.00  0.00    +0.000 HD
BRANCH  17  22
ATOM     21  C   UNL     1       1.596  10.400  18.408  0.00  0.00    +0.000 C 
ATOM     22  N   UNL     1       1.123   9.219  18.293  0.00  0.00    +0.000 NA
BRANCH  21  26
ATOM     23  C   UNL     1      -0.903  13.543  19.933  0.00  0.00    +0.000 A 
ATOM     24  C   UNL     1       0.269  13.859  19.221  0.00  0.00    +0.000 A 
ATOM     25  C   UNL     1       1.101  12.852  18.720  0.00  0.00    +0.000 A 
ATOM     26  C   UNL     1       0.760  11.510  18.924  0.00  0.00    +0.000 A 
ATOM     27  C   UNL     1      -0.392  11.176  19.627  0.00  0.00    +0.000 A 
ATOM     28  C   UNL     1      -1.218  12.187  20.121  0.00  0.00    +0.000 A 
BRANCH  23  30
ATOM     29  C   UNL     1      -3.150  14.056  20.890  0.00  0.00    +0.000 C 
ATOM     30  C   UNL     1      -1.820  14.652  20.418  0.00  0.00    +0.000 C 
ATOM     31  C   UNL     1      -1.218  15.531  21.522  0.00  0.00    +0.000 C 
ENDBRANCH  23  30
ENDBRANCH  21  26
ENDBRANCH  17  22
ENDBRANCH   1  18
TORSDOF 5
ENDMDL
