MODEL 1
REMARK VINA RESULT:      -7.3      0.000      0.000
REMARK  Name = 
REMARK  7 active torsions:
REMARK  status: ('A' for Active; 'I' for Inactive)
REMARK    1  A    between atoms: C_1  and  C_2
REMARK    2  A    between atoms: C_2  and  C_3
REMARK    3  A    between atoms: C_11  and  N_12
REMARK    4  A    between atoms: N_23  and  C_24
REMARK    5  A    between atoms: C_24  and  C_25
REMARK    6  A    between atoms: C_25  and  O_26
REMARK    7  A    between atoms: C_25  and  C_27
REMARK                            x       y       z     vdW  Elec       q    Type
REMARK                         _______ _______ _______ _____ _____    ______ ____
ROOT
ATOM      1  C   UNL     1      -3.218   9.407  17.963  0.00  0.00    +0.000 C 
ATOM      2  C   UNL     1      -3.873  10.777  17.735  0.00  0.00    +0.000 C 
ATOM      3  C   UNL     1      -5.356  10.713  18.199  0.00  0.00    +0.000 C 
ATOM      4  N   UNL     1      -5.438  11.607  19.333  0.00  0.00    +0.000 N 
ATOM      5  C   UNL     1      -4.251  12.241  19.571  0.00  0.00    +0.000 A 
ATOM      6  N   UNL     1      -4.095  13.118  20.498  0.00  0.00    +0.000 NA
ATOM      7  C   UNL     1      -5.145  13.400  21.347  0.00  0.00    +0.000 A 
ATOM      8  C   UNL     1      -6.350  12.818  21.163  0.00  0.00    +0.000 A 
ATOM      9  C   UNL     1      -6.549  11.841  20.075  0.00  0.00    +0.000 A 
ATOM     10  O   UNL     1      -7.636  11.305  19.899  0.00  0.00    +0.000 OA
ATOM     11  N   UNL     1      -3.316  11.791  18.678  0.00  0.00    +0.000 N 
ENDROOT
BRANCH   7  12
ATOM     12  N   UNL     1      -4.962  14.313  22.412  0.00  0.00    +0.000 N 
ATOM     13  C   UNL     1      -4.166  15.554  22.179  0.00  0.00    +0.000 C 
ATOM     14  C   UNL     1      -2.836  15.549  22.979  0.00  0.00    +0.000 C 
ATOM     15  C   UNL     1      -2.996  16.106  24.404  0.00  0.00    +0.000 C 
ATOM     16  C   UNL     1      -3.042  14.861  25.280  0.00  0.00    +0.000 C 
ATOM     17  C   UNL     1      -3.338  13.772  24.263  0.00  0.00    +0.000 C 
ATOM     18  C   UNL     1      -4.828  13.824  23.806  0.00  0.00    +0.000 C 
ATOM     19  O   UNL     1      -2.442  14.175  23.200  0.00  0.00    +0.000 OA
ENDBRANCH   7  12
BRANCH   2  20
ATOM     20  C   UNL     1      -3.773  11.190  16.243  0.00  0.00    +0.000 C 
ATOM     21  F   UNL     1      -4.160  10.182  15.421  0.00  0.00    +0.000 F 
ATOM     22  F   UNL     1      -4.542  12.256  15.931  0.00  0.00    +0.000 F 
ATOM     23  F   UNL     1      -2.503  11.502  15.882  0.00  0.00    +0.000 F 
ENDBRANCH   2  20
BRANCH  11  24
ATOM     24  C   UNL     1      -1.904  12.165  18.707  0.00  0.00    +0.000 C 
BRANCH  24  25
ATOM     25  C   UNL     1      -0.973  10.937  18.899  0.00  0.00    +0.000 C 
BRANCH  25  26
ATOM     26  C   UNL     1      -0.665  10.567  20.340  0.00  0.00    +0.000 A 
ATOM     27  C   UNL     1      -0.982  11.487  21.355  0.00  0.00    +0.000 A 
ATOM     28  C   UNL     1      -0.819  11.157  22.701  0.00  0.00    +0.000 A 
ATOM     29  C   UNL     1      -0.341   9.899  23.057  0.00  0.00    +0.000 A 
ATOM     30  C   UNL     1      -0.016   8.976  22.065  0.00  0.00    +0.000 A 
ATOM     31  C   UNL     1      -0.177   9.305  20.716  0.00  0.00    +0.000 A 
ENDBRANCH  25  26
BRANCH  25  32
ATOM     32  O   UNL     1       0.282  11.189  18.245  0.00  0.00    +0.000 OA
ATOM     33  H   UNL     1       0.707  11.930  18.704  0.00  0.00    +0.000 HD
ENDBRANCH  25  32
ENDBRANCH  24  25
ENDBRANCH  11  24
TORSDOF 6
ENDMDL
MODEL 2
REMARK VINA RESULT:      -7.3      0.114      1.092
REMARK  Name = 
REMARK  7 active torsions:
REMARK  status: ('A' for Active; 'I' for Inactive)
REMARK    1  A    between atoms: C_1  and  C_2
REMARK    2  A    between atoms: C_2  and  C_3
REMARK    3  A    between atoms: C_11  and  N_12
REMARK    4  A    between atoms: N_23  and  C_24
REMARK    5  A    between atoms: C_24  and  C_25
REMARK    6  A    between atoms: C_25  and  O_26
REMARK    7  A    between atoms: C_25  and  C_27
REMARK                            x       y       z     vdW  Elec       q    Type
REMARK                         _______ _______ _______ _____ _____    ______ ____
ROOT
ATOM      1  C   UNL     1      -3.161   9.429  17.869  0.00  0.00    +0.000 C 
ATOM      2  C   UNL     1      -3.862  10.781  17.666  0.00  0.00    +0.000 C 
ATOM      3  C   UNL     1      -5.336  10.665  18.148  0.00  0.00    +0.000 C 
ATOM      4  N   UNL     1      -5.430  11.542  19.294  0.00  0.00    +0.000 N 
ATOM      5  C   UNL     1      -4.261  12.210  19.525  0.00  0.00    +0.000 A 
ATOM      6  N   UNL     1      -4.120  13.080  20.460  0.00  0.00    +0.000 NA
ATOM      7  C   UNL     1      -5.167  13.320  21.325  0.00  0.00    +0.000 A 
ATOM      8  C   UNL     1      -6.355  12.702  21.150  0.00  0.00    +0.000 A 
ATOM      9  C   UNL     1      -6.539  11.732  20.053  0.00  0.00    +0.000 A 
ATOM     10  O   UNL     1      -7.610  11.165  19.884  0.00  0.00    +0.000 OA
ATOM     11  N   UNL     1      -3.324  11.800  18.614  0.00  0.00    +0.000 N 
ENDROOT
BRANCH   7  12
ATOM     12  N   UNL     1      -4.998  14.225  22.399  0.00  0.00    +0.000 N 
ATOM     13  C   UNL     1      -4.302  15.523  22.155  0.00  0.00    +0.000 C 
ATOM     14  C   UNL     1      -2.939  15.598  22.893  0.00  0.00    +0.000 C 
ATOM     15  C   UNL     1      -3.071  16.119  24.335  0.00  0.00    +0.000 C 
ATOM     16  C   UNL     1      -2.988  14.859  25.187  0.00  0.00    +0.000 C 
ATOM     17  C   UNL     1      -3.255  13.769  24.163  0.00  0.00    +0.000 C 
ATOM     18  C   UNL     1      -4.765  13.723  23.776  0.00  0.00    +0.000 C 
ATOM     19  O   UNL     1      -2.441  14.253  23.068  0.00  0.00    +0.000 OA
ENDBRANCH   7  12
BRANCH   2  20
ATOM     20  C   UNL     1      -3.794  11.214  16.178  0.00  0.00    +0.000 C 
ATOM     21  F   UNL     1      -4.543  12.322  15.948  0.00  0.00    +0.000 F 
ATOM     22  F   UNL     1      -2.542  11.505  15.763  0.00  0.00    +0.000 F 
ATOM     23  F   UNL     1      -4.273  10.258  15.343  0.00  0.00    +0.000 F 
ENDBRANCH   2  20
BRANCH  11  24
ATOM     24  C   UNL     1      -1.924  12.217  18.630  0.00  0.00    +0.000 C 
BRANCH  24  25
ATOM     25  C   UNL     1      -0.958  11.031  18.898  0.00  0.00    +0.000 C 
BRANCH  25  26
ATOM     26  C   UNL     1      -0.794  10.637  20.356  0.00  0.00    +0.000 A 
ATOM     27  C   UNL     1      -0.250   9.375  20.656  0.00  0.00    +0.000 A 
ATOM     28  C   UNL     1       0.022   9.004  21.974  0.00  0.00    +0.000 A 
ATOM     29  C   UNL     1      -0.241   9.891  23.015  0.00  0.00    +0.000 A 
ATOM     30  C   UNL     1      -0.785  11.142  22.738  0.00  0.00    +0.000 A 
ATOM     31  C   UNL     1      -1.059  11.516  21.418  0.00  0.00    +0.000 A 
ENDBRANCH  25  26
BRANCH  25  32
ATOM     32  O   UNL     1       0.347  11.361  18.395  0.00  0.00    +0.000 OA
ATOM     33  H   UNL     1       0.232  12.025  17.697  0.00  0.00    +0.000 HD
ENDBRANCH  25  32
ENDBRANCH  24  25
ENDBRANCH  11  24
TORSDOF 6
ENDMDL
MODEL 3
REMARK VINA RESULT:      -7.2      2.822      5.846
REMARK  Name = 
REMARK  7 active torsions:
REMARK  status: ('A' for Active; 'I' for Inactive)
REMARK    1  A    between atoms: C_1  and  C_2
REMARK    2  A    between atoms: C_2  and  C_3
REMARK    3  A    between atoms: C_11  and  N_12
REMARK    4  A    between atoms: N_23  and  C_24
REMARK    5  A    between atoms: C_24  and  C_25
REMARK    6  A    between atoms: C_25  and  O_26
REMARK    7  A    between atoms: C_25  and  C_27
REMARK                            x       y       z     vdW  Elec       q    Type
REMARK                         _______ _______ _______ _____ _____    ______ ____
ROOT
ATOM      1  C   UNL     1      -6.166  12.879  17.326  0.00  0.00    +0.000 C 
ATOM      2  C   UNL     1      -5.609  11.821  18.290  0.00  0.00    +0.000 C 
ATOM      3  C   UNL     1      -4.766  10.794  17.482  0.00  0.00    +0.000 C 
ATOM      4  N   UNL     1      -3.407  10.969  17.946  0.00  0.00    +0.000 N 
ATOM      5  C   UNL     1      -3.325  11.893  18.949  0.00  0.00    +0.000 A 
ATOM      6  N   UNL     1      -2.226  12.181  19.552  0.00  0.00    +0.000 NA
ATOM      7  C   UNL     1      -1.051  11.590  19.137  0.00  0.00    +0.000 A 
ATOM      8  C   UNL     1      -1.061  10.660  18.157  0.00  0.00    +0.000 A 
ATOM      9  C   UNL     1      -2.324  10.293  17.488  0.00  0.00    +0.000 A 
ATOM     10  O   UNL     1      -2.346   9.453  16.598  0.00  0.00    +0.000 OA
ATOM     11  N   UNL     1      -4.569  12.416  19.180  0.00  0.00    +0.000 N 
ENDROOT
BRANCH   7  12
ATOM     12  N   UNL     1       0.172  11.953  19.748  0.00  0.00    +0.000 N 
ATOM     13  C   UNL     1       0.173  13.003  20.809  0.00  0.00    +0.000 C 
ATOM     14  C   UNL     1       0.911  14.289  20.352  0.00  0.00    +0.000 C 
ATOM     15  C   UNL     1       2.424  14.235  20.623  0.00  0.00    +0.000 C 
ATOM     16  C   UNL     1       3.028  13.908  19.263  0.00  0.00    +0.000 C 
ATOM     17  C   UNL     1       1.820  13.395  18.498  0.00  0.00    +0.000 C 
ATOM     18  C   UNL     1       1.431  11.959  18.964  0.00  0.00    +0.000 C 
ATOM     19  O   UNL     1       0.833  14.372  18.911  0.00  0.00    +0.000 OA
ENDBRANCH   7  12
BRANCH   2  20
ATOM     20  C   UNL     1      -6.760  11.119  19.057  0.00  0.00    +0.000 C 
ATOM     21  F   UNL     1      -7.810  11.955  19.252  0.00  0.00    +0.000 F 
ATOM     22  F   UNL     1      -7.247  10.036  18.413  0.00  0.00    +0.000 F 
ATOM     23  F   UNL     1      -6.376  10.704  20.289  0.00  0.00    +0.000 F 
ENDBRANCH   2  20
BRANCH  11  24
ATOM     24  C   UNL     1      -4.841  13.513  20.105  0.00  0.00    +0.000 C 
BRANCH  24  25
ATOM     25  C   UNL     1      -4.791  13.059  21.589  0.00  0.00    +0.000 C 
BRANCH  25  26
ATOM     26  C   UNL     1      -5.927  13.559  22.466  0.00  0.00    +0.000 A 
ATOM     27  C   UNL     1      -6.728  12.615  23.134  0.00  0.00    +0.000 A 
ATOM     28  C   UNL     1      -7.715  13.019  24.034  0.00  0.00    +0.000 A 
ATOM     29  C   UNL     1      -7.916  14.374  24.285  0.00  0.00    +0.000 A 
ATOM     30  C   UNL     1      -7.137  15.323  23.628  0.00  0.00    +0.000 A 
ATOM     31  C   UNL     1      -6.148  14.921  22.725  0.00  0.00    +0.000 A 
ENDBRANCH  25  26
BRANCH  25  32
ATOM     32  O   UNL     1      -3.563  13.514  22.181  0.00  0.00    +0.000 OA
ATOM     33  H   UNL     1      -3.736  14.379  22.585  0.00  0.00    +0.000 HD
ENDBRANCH  25  32
ENDBRANCH  24  25
ENDBRANCH  11  24
TORSDOF 6
ENDMDL
MODEL 4
REMARK VINA RESULT:      -7.2      2.787      5.913
REMARK  Name = 
REMARK  7 active torsions:
REMARK  status: ('A' for Active; 'I' for Inactive)
REMARK    1  A    between atoms: C_1  and  C_2
REMARK    2  A    between atoms: C_2  and  C_3
REMARK    3  A    between atoms: C_11  and  N_12
REMARK    4  A    between atoms: N_23  and  C_24
REMARK    5  A    between atoms: C_24  and  C_25
REMARK    6  A    between atoms: C_25  and  O_26
REMARK    7  A    between atoms: C_25  and  C_27
REMARK                            x       y       z     vdW  Elec       q    Type
REMARK                         _______ _______ _______ _____ _____    ______ ____
ROOT
ATOM      1  C   UNL     1      -7.709  12.351  21.207  0.00  0.00    +0.000 C 
ATOM      2  C   UNL     1      -6.602  13.406  21.353  0.00  0.00    +0.000 C 
ATOM      3  C   UNL     1      -6.011  13.324  22.789  0.00  0.00    +0.000 C 
ATOM      4  N   UNL     1      -4.645  12.882  22.613  0.00  0.00    +0.000 N 
ATOM      5  C   UNL     1      -4.315  12.754  21.294  0.00  0.00    +0.000 A 
ATOM      6  N   UNL     1      -3.141  12.420  20.891  0.00  0.00    +0.000 NA
ATOM      7  C   UNL     1      -2.170  12.108  21.820  0.00  0.00    +0.000 A 
ATOM      8  C   UNL     1      -2.424  12.222  23.141  0.00  0.00    +0.000 A 
ATOM      9  C   UNL     1      -3.757  12.646  23.612  0.00  0.00    +0.000 A 
ATOM     10  O   UNL     1      -4.001  12.752  24.807  0.00  0.00    +0.000 OA
ATOM     11  N   UNL     1      -5.413  13.041  20.528  0.00  0.00    +0.000 N 
ENDROOT
BRANCH   7  12
ATOM     12  N   UNL     1      -0.896  11.672  21.386  0.00  0.00    +0.000 N 
ATOM     13  C   UNL     1      -0.707  11.284  19.956  0.00  0.00    +0.000 C 
ATOM     14  C   UNL     1      -0.423   9.767  19.800  0.00  0.00    +0.000 C 
ATOM     15  C   UNL     1       1.071   9.425  19.928  0.00  0.00    +0.000 C 
ATOM     16  C   UNL     1       1.201   8.877  21.343  0.00  0.00    +0.000 C 
ATOM     17  C   UNL     1      -0.087   9.362  21.987  0.00  0.00    +0.000 C 
ATOM     18  C   UNL     1      -0.020  10.889  22.291  0.00  0.00    +0.000 C 
ATOM     19  O   UNL     1      -1.021   9.074  20.919  0.00  0.00    +0.000 OA
ENDBRANCH   7  12
BRANCH   2  20
ATOM     20  C   UNL     1      -7.155  14.825  21.058  0.00  0.00    +0.000 C 
ATOM     21  F   UNL     1      -6.154  15.724  20.887  0.00  0.00    +0.000 F 
ATOM     22  F   UNL     1      -7.914  14.880  19.942  0.00  0.00    +0.000 F 
ATOM     23  F   UNL     1      -7.916  15.300  22.075  0.00  0.00    +0.000 F 
ENDBRANCH   2  20
BRANCH  11  24
ATOM     24  C   UNL     1      -5.463  12.897  19.075  0.00  0.00    +0.000 C 
BRANCH  24  25
ATOM     25  C   UNL     1      -5.635  11.418  18.634  0.00  0.00    +0.000 C 
BRANCH  25  26
ATOM     26  C   UNL     1      -4.597  10.902  17.652  0.00  0.00    +0.000 A 
ATOM     27  C   UNL     1      -4.460  11.552  16.412  0.00  0.00    +0.000 A 
ATOM     28  C   UNL     1      -3.453  11.189  15.518  0.00  0.00    +0.000 A 
ATOM     29  C   UNL     1      -2.562  10.171  15.848  0.00  0.00    +0.000 A 
ATOM     30  C   UNL     1      -2.686   9.512  17.069  0.00  0.00    +0.000 A 
ATOM     31  C   UNL     1      -3.695   9.874  17.966  0.00  0.00    +0.000 A 
ENDBRANCH  25  26
BRANCH  25  32
ATOM     32  O   UNL     1      -6.923  11.255  18.018  0.00  0.00    +0.000 OA
ATOM     33  H   UNL     1      -7.514  10.857  18.677  0.00  0.00    +0.000 HD
ENDBRANCH  25  32
ENDBRANCH  24  25
ENDBRANCH  11  24
TORSDOF 6
ENDMDL
MODEL 5
REMARK VINA RESULT:      -7.1      7.155      9.806
REMARK  Name = 
REMARK  7 active torsions:
REMARK  status: ('A' for Active; 'I' for Inactive)
REMARK    1  A    between atoms: C_1  and  C_2
REMARK    2  A    between atoms: C_2  and  C_3
REMARK    3  A    between atoms: C_11  and  N_12
REMARK    4  A    between atoms: N_23  and  C_24
REMARK    5  A    between atoms: C_24  and  C_25
REMARK    6  A    between atoms: C_25  and  O_26
REMARK    7  A    between atoms: C_25  and  C_27
REMARK                            x       y       z     vdW  Elec       q    Type
REMARK                         _______ _______ _______ _____ _____    ______ ____
ROOT
ATOM      1  C   UNL     1       5.083   3.911  16.407  0.00  0.00    +0.000 C 
ATOM      2  C   UNL     1       5.479   5.163  17.205  0.00  0.00    +0.000 C 
ATOM      3  C   UNL     1       4.714   6.391  16.633  0.00  0.00    +0.000 C 
ATOM      4  N   UNL     1       3.824   6.811  17.692  0.00  0.00    +0.000 N 
ATOM      5  C   UNL     1       3.990   6.066  18.826  0.00  0.00    +0.000 A 
ATOM      6  N   UNL     1       3.342   6.286  19.914  0.00  0.00    +0.000 NA
ATOM      7  C   UNL     1       2.382   7.275  19.942  0.00  0.00    +0.000 A 
ATOM      8  C   UNL     1       2.172   8.057  18.860  0.00  0.00    +0.000 A 
ATOM      9  C   UNL     1       2.941   7.838  17.620  0.00  0.00    +0.000 A 
ATOM     10  O   UNL     1       2.759   8.539  16.633  0.00  0.00    +0.000 OA
ATOM     11  N   UNL     1       4.930   5.099  18.592  0.00  0.00    +0.000 N 
ENDROOT
BRANCH   7  12
ATOM     12  N   UNL     1       1.616   7.479  21.114  0.00  0.00    +0.000 N 
ATOM     13  C   UNL     1       0.143   7.236  21.073  0.00  0.00    +0.000 C 
ATOM     14  C   UNL     1      -0.666   8.549  21.247  0.00  0.00    +0.000 C 
ATOM     15  C   UNL     1      -0.922   8.899  22.722  0.00  0.00    +0.000 C 
ATOM     16  C   UNL     1       0.104   9.985  23.024  0.00  0.00    +0.000 C 
ATOM     17  C   UNL     1       1.080   9.823  21.871  0.00  0.00    +0.000 C 
ATOM     18  C   UNL     1       1.972   8.559  22.066  0.00  0.00    +0.000 C 
ATOM     19  O   UNL     1       0.146   9.650  20.778  0.00  0.00    +0.000 OA
ENDBRANCH   7  12
BRANCH   2  20
ATOM     20  C   UNL     1       7.013   5.386  17.149  0.00  0.00    +0.000 C 
ATOM     21  F   UNL     1       7.407   5.833  15.930  0.00  0.00    +0.000 F 
ATOM     22  F   UNL     1       7.454   6.290  18.050  0.00  0.00    +0.000 F 
ATOM     23  F   UNL     1       7.705   4.241  17.370  0.00  0.00    +0.000 F 
ENDBRANCH   2  20
BRANCH  11  24
ATOM     24  C   UNL     1       5.282   4.047  19.542  0.00  0.00    +0.000 C 
BRANCH  24  25
ATOM     25  C   UNL     1       4.550   2.711  19.241  0.00  0.00    +0.000 C 
BRANCH  25  26
ATOM     26  C   UNL     1       3.054   2.709  19.508  0.00  0.00    +0.000 A 
ATOM     27  C   UNL     1       2.605   2.900  20.827  0.00  0.00    +0.000 A 
ATOM     28  C   UNL     1       1.243   3.014  21.112  0.00  0.00    +0.000 A 
ATOM     29  C   UNL     1       0.307   2.943  20.084  0.00  0.00    +0.000 A 
ATOM     30  C   UNL     1       0.734   2.748  18.772  0.00  0.00    +0.000 A 
ATOM     31  C   UNL     1       2.097   2.633  18.484  0.00  0.00    +0.000 A 
ENDBRANCH  25  26
BRANCH  25  32
ATOM     32  O   UNL     1       5.127   1.665  20.040  0.00  0.00    +0.000 OA
ATOM     33  H   UNL     1       4.422   1.300  20.597  0.00  0.00    +0.000 HD
ENDBRANCH  25  32
ENDBRANCH  24  25
ENDBRANCH  11  24
TORSDOF 6
ENDMDL
MODEL 6
REMARK VINA RESULT:      -7.0      6.098      8.310
REMARK  Name = 
REMARK  7 active torsions:
REMARK  status: ('A' for Active; 'I' for Inactive)
REMARK    1  A    between atoms: C_1  and  C_2
REMARK    2  A    between atoms: C_2  and  C_3
REMARK    3  A    between atoms: C_11  and  N_12
REMARK    4  A    between atoms: N_23  and  C_24
REMARK    5  A    between atoms: C_24  and  C_25
REMARK    6  A    between atoms: C_25  and  O_26
REMARK    7  A    between atoms: C_25  and  C_27
REMARK                            x       y       z     vdW  Elec       q    Type
REMARK                         _______ _______ _______ _____ _____    ______ ____
ROOT
ATOM      1  C   UNL     1       3.702   5.091  20.271  0.00  0.00    +0.000 C 
ATOM      2  C   UNL     1       2.343   5.493  19.679  0.00  0.00    +0.000 C 
ATOM      3  C   UNL     1       1.496   6.188  20.782  0.00  0.00    +0.000 C 
ATOM      4  N   UNL     1       1.343   7.556  20.340  0.00  0.00    +0.000 N 
ATOM      5  C   UNL     1       1.911   7.763  19.114  0.00  0.00    +0.000 A 
ATOM      6  N   UNL     1       1.860   8.889  18.496  0.00  0.00    +0.000 NA
ATOM      7  C   UNL     1       1.265   9.971  19.109  0.00  0.00    +0.000 A 
ATOM      8  C   UNL     1       0.674   9.836  20.317  0.00  0.00    +0.000 A 
ATOM      9  C   UNL     1       0.692   8.536  21.015  0.00  0.00    +0.000 A 
ATOM     10  O   UNL     1       0.162   8.400  22.110  0.00  0.00    +0.000 OA
ATOM     11  N   UNL     1       2.505   6.603  18.694  0.00  0.00    +0.000 N 
ENDROOT
BRANCH   7  12
ATOM     12  N   UNL     1       1.265  11.231  18.466  0.00  0.00    +0.000 N 
ATOM     13  C   UNL     1       2.568  11.889  18.154  0.00  0.00    +0.000 C 
ATOM     14  C   UNL     1       2.781  13.180  18.987  0.00  0.00    +0.000 C 
ATOM     15  C   UNL     1       2.171  14.426  18.322  0.00  0.00    +0.000 C 
ATOM     16  C   UNL     1       0.871  14.648  19.085  0.00  0.00    +0.000 C 
ATOM     17  C   UNL     1       0.676  13.307  19.771  0.00  0.00    +0.000 C 
ATOM     18  C   UNL     1       0.200  12.223  18.755  0.00  0.00    +0.000 C 
ATOM     19  O   UNL     1       2.031  13.058  20.217  0.00  0.00    +0.000 OA
ENDBRANCH   7  12
BRANCH   2  20
ATOM     20  C   UNL     1       1.607   4.253  19.107  0.00  0.00    +0.000 C 
ATOM     21  F   UNL     1       0.562   3.889  19.893  0.00  0.00    +0.000 F 
ATOM     22  F   UNL     1       1.104   4.455  17.870  0.00  0.00    +0.000 F 
ATOM     23  F   UNL     1       2.415   3.167  19.031  0.00  0.00    +0.000 F 
ENDBRANCH   2  20
BRANCH  11  24
ATOM     24  C   UNL     1       3.307   6.483  17.480  0.00  0.00    +0.000 C 
BRANCH  24  25
ATOM     25  C   UNL     1       4.447   5.439  17.626  0.00  0.00    +0.000 C 
BRANCH  25  26
ATOM     26  C   UNL     1       5.835   6.011  17.861  0.00  0.00    +0.000 A 
ATOM     27  C   UNL     1       6.186   7.211  17.217  0.00  0.00    +0.000 A 
ATOM     28  C   UNL     1       7.406   7.837  17.480  0.00  0.00    +0.000 A 
ATOM     29  C   UNL     1       8.293   7.277  18.395  0.00  0.00    +0.000 A 
ATOM     30  C   UNL     1       7.965   6.086  19.037  0.00  0.00    +0.000 A 
ATOM     31  C   UNL     1       6.744   5.456  18.775  0.00  0.00    +0.000 A 
ENDBRANCH  25  26
BRANCH  25  32
ATOM     32  O   UNL     1       4.512   4.639  16.434  0.00  0.00    +0.000 OA
ATOM     33  H   UNL     1       5.168   3.941  16.586  0.00  0.00    +0.000 HD
ENDBRANCH  25  32
ENDBRANCH  24  25
ENDBRANCH  11  24
TORSDOF 6
ENDMDL
MODEL 7
REMARK VINA RESULT:      -7.0      3.327      5.387
REMARK  Name = 
REMARK  7 active torsions:
REMARK  status: ('A' for Active; 'I' for Inactive)
REMARK    1  A    between atoms: C_1  and  C_2
REMARK    2  A    between atoms: C_2  and  C_3
REMARK    3  A    between atoms: C_11  and  N_12
REMARK    4  A    between atoms: N_23  and  C_24
REMARK    5  A    between atoms: C_24  and  C_25
REMARK    6  A    between atoms: C_25  and  O_26
REMARK    7  A    between atoms: C_25  and  C_27
REMARK                            x       y       z     vdW  Elec       q    Type
REMARK                         _______ _______ _______ _____ _____    ______ ____
ROOT
ATOM      1  C   UNL     1       2.124  15.828  19.556  0.00  0.00    +0.000 C 
ATOM      2  C   UNL     1       1.569  14.666  20.394  0.00  0.00    +0.000 C 
ATOM      3  C   UNL     1       1.377  15.145  21.861  0.00  0.00    +0.000 C 
ATOM      4  N   UNL     1      -0.051  15.113  22.087  0.00  0.00    +0.000 N 
ATOM      5  C   UNL     1      -0.729  14.625  21.006  0.00  0.00    +0.000 A 
ATOM      6  N   UNL     1      -2.004  14.458  20.990  0.00  0.00    +0.000 NA
ATOM      7  C   UNL     1      -2.750  14.845  22.084  0.00  0.00    +0.000 A 
ATOM      8  C   UNL     1      -2.144  15.325  23.192  0.00  0.00    +0.000 A 
ATOM      9  C   UNL     1      -0.677  15.480  23.233  0.00  0.00    +0.000 A 
ATOM     10  O   UNL     1      -0.116  15.916  24.230  0.00  0.00    +0.000 OA
ATOM     11  N   UNL     1       0.162  14.358  20.001  0.00  0.00    +0.000 N 
ENDROOT
BRANCH   7  12
ATOM     12  N   UNL     1      -4.159  14.729  22.050  0.00  0.00    +0.000 N 
ATOM     13  C   UNL     1      -4.908  14.561  23.331  0.00  0.00    +0.000 C 
ATOM     14  C   UNL     1      -5.569  13.162  23.437  0.00  0.00    +0.000 C 
ATOM     15  C   UNL     1      -6.967  13.114  22.796  0.00  0.00    +0.000 C 
ATOM     16  C   UNL     1      -6.729  12.437  21.452  0.00  0.00    +0.000 C 
ATOM     17  C   UNL     1      -5.224  12.572  21.294  0.00  0.00    +0.000 C 
ATOM     18  C   UNL     1      -4.830  14.034  20.923  0.00  0.00    +0.000 C 
ATOM     19  O   UNL     1      -4.802  12.233  22.637  0.00  0.00    +0.000 OA
ENDBRANCH   7  12
BRANCH   2  20
ATOM     20  C   UNL     1       2.519  13.441  20.327  0.00  0.00    +0.000 C 
ATOM     21  F   UNL     1       2.007  12.377  20.996  0.00  0.00    +0.000 F 
ATOM     22  F   UNL     1       2.759  13.021  19.066  0.00  0.00    +0.000 F 
ATOM     23  F   UNL     1       3.724  13.695  20.893  0.00  0.00    +0.000 F 
ENDBRANCH   2  20
BRANCH  11  24
ATOM     24  C   UNL     1      -0.217  13.932  18.657  0.00  0.00    +0.000 C 
BRANCH  24  25
ATOM     25  C   UNL     1      -1.135  12.679  18.672  0.00  0.00    +0.000 C 
BRANCH  25  26
ATOM     26  C   UNL     1      -0.511  11.417  19.245  0.00  0.00    +0.000 A 
ATOM     27  C   UNL     1       0.495  10.768  18.508  0.00  0.00    +0.000 A 
ATOM     28  C   UNL     1       1.175   9.669  19.034  0.00  0.00    +0.000 A 
ATOM     29  C   UNL     1       0.864   9.202  20.308  0.00  0.00    +0.000 A 
ATOM     30  C   UNL     1      -0.134   9.828  21.050  0.00  0.00    +0.000 A 
ATOM     31  C   UNL     1      -0.818  10.929  20.525  0.00  0.00    +0.000 A 
ENDBRANCH  25  26
BRANCH  25  32
ATOM     32  O   UNL     1      -1.547  12.379  17.329  0.00  0.00    +0.000 OA
ATOM     33  H   UNL     1      -0.828  11.884  16.906  0.00  0.00    +0.000 HD
ENDBRANCH  25  32
ENDBRANCH  24  25
ENDBRANCH  11  24
TORSDOF 6
ENDMDL
MODEL 8
REMARK VINA RESULT:      -7.0      5.178      6.994
REMARK  Name = 
REMARK  7 active torsions:
REMARK  status: ('A' for Active; 'I' for Inactive)
REMARK    1  A    between atoms: C_1  and  C_2
REMARK    2  A    between atoms: C_2  and  C_3
REMARK    3  A    between atoms: C_11  and  N_12
REMARK    4  A    between atoms: N_23  and  C_24
REMARK    5  A    between atoms: C_24  and  C_25
REMARK    6  A    between atoms: C_25  and  O_26
REMARK    7  A    between atoms: C_25  and  C_27
REMARK                            x       y       z     vdW  Elec       q    Type
REMARK                         _______ _______ _______ _____ _____    ______ ____
ROOT
ATOM      1  C   UNL     1      -1.098  12.002  21.372  0.00  0.00    +0.000 C 
ATOM      2  C   UNL     1      -0.920  12.289  19.873  0.00  0.00    +0.000 C 
ATOM      3  C   UNL     1      -1.309  13.768  19.592  0.00  0.00    +0.000 C 
ATOM      4  N   UNL     1      -0.081  14.412  19.180  0.00  0.00    +0.000 N 
ATOM      5  C   UNL     1       0.960  13.530  19.110  0.00  0.00    +0.000 A 
ATOM      6  N   UNL     1       2.139  13.863  18.721  0.00  0.00    +0.000 NA
ATOM      7  C   UNL     1       2.405  15.182  18.417  0.00  0.00    +0.000 A 
ATOM      8  C   UNL     1       1.420  16.105  18.455  0.00  0.00    +0.000 A 
ATOM      9  C   UNL     1       0.053  15.724  18.861  0.00  0.00    +0.000 A 
ATOM     10  O   UNL     1      -0.848  16.551  18.901  0.00  0.00    +0.000 OA
ATOM     11  N   UNL     1       0.527  12.293  19.506  0.00  0.00    +0.000 N 
ENDROOT
BRANCH   7  12
ATOM     12  N   UNL     1       3.716  15.569  18.055  0.00  0.00    +0.000 N 
ATOM     13  C   UNL     1       4.819  14.566  18.132  0.00  0.00    +0.000 C 
ATOM     14  C   UNL     1       5.851  14.922  19.235  0.00  0.00    +0.000 C 
ATOM     15  C   UNL     1       6.956  15.868  18.735  0.00  0.00    +0.000 C 
ATOM     16  C   UNL     1       6.540  17.232  19.270  0.00  0.00    +0.000 C 
ATOM     17  C   UNL     1       5.080  17.000  19.620  0.00  0.00    +0.000 C 
ATOM     18  C   UNL     1       4.198  16.944  18.335  0.00  0.00    +0.000 C 
ATOM     19  O   UNL     1       5.180  15.701  20.252  0.00  0.00    +0.000 OA
ENDBRANCH   7  12
BRANCH   2  20
ATOM     20  C   UNL     1      -1.778  11.314  19.024  0.00  0.00    +0.000 C 
ATOM     21  F   UNL     1      -3.103  11.571  19.159  0.00  0.00    +0.000 F 
ATOM     22  F   UNL     1      -1.508  11.380  17.702  0.00  0.00    +0.000 F 
ATOM     23  F   UNL     1      -1.606  10.022  19.397  0.00  0.00    +0.000 F 
ENDBRANCH   2  20
BRANCH  11  24
ATOM     24  C   UNL     1       1.395  11.130  19.666  0.00  0.00    +0.000 C 
BRANCH  24  25
ATOM     25  C   UNL     1       1.423  10.235  18.397  0.00  0.00    +0.000 C 
BRANCH  25  26
ATOM     26  C   UNL     1       1.906   8.810  18.611  0.00  0.00    +0.000 A 
ATOM     27  C   UNL     1       2.712   8.216  17.623  0.00  0.00    +0.000 A 
ATOM     28  C   UNL     1       3.271   6.952  17.816  0.00  0.00    +0.000 A 
ATOM     29  C   UNL     1       3.036   6.260  19.001  0.00  0.00    +0.000 A 
ATOM     30  C   UNL     1       2.235   6.830  19.988  0.00  0.00    +0.000 A 
ATOM     31  C   UNL     1       1.674   8.096  19.798  0.00  0.00    +0.000 A 
ENDBRANCH  25  26
BRANCH  25  32
ATOM     32  O   UNL     1       2.283  10.834  17.415  0.00  0.00    +0.000 OA
ATOM     33  H   UNL     1       1.992  10.524  16.543  0.00  0.00    +0.000 HD
ENDBRANCH  25  32
ENDBRANCH  24  25
ENDBRANCH  11  24
TORSDOF 6
ENDMDL
MODEL 9
REMARK VINA RESULT:      -6.9      2.443      4.842
REMARK  Name = 
REMARK  7 active torsions:
REMARK  status: ('A' for Active; 'I' for Inactive)
REMARK    1  A    between atoms: C_1  and  C_2
REMARK    2  A    between atoms: C_2  and  C_3
REMARK    3  A    between atoms: C_11  and  N_12
REMARK    4  A    between atoms: N_23  and  C_24
REMARK    5  A    between atoms: C_24  and  C_25
REMARK    6  A    between atoms: C_25  and  O_26
REMARK    7  A    between atoms: C_25  and  C_27
REMARK                            x       y       z     vdW  Elec       q    Type
REMARK                         _______ _______ _______ _____ _____    ______ ____
ROOT
ATOM      1  C   UNL     1       0.510  10.022  20.101  0.00  0.00    +0.000 C 
ATOM      2  C   UNL     1      -0.001  11.094  19.126  0.00  0.00    +0.000 C 
ATOM      3  C   UNL     1      -0.658  10.394  17.903  0.00  0.00    +0.000 C 
ATOM      4  N   UNL     1      -2.060  10.742  17.974  0.00  0.00    +0.000 N 
ATOM      5  C   UNL     1      -2.324  11.593  19.010  0.00  0.00    +0.000 A 
ATOM      6  N   UNL     1      -3.491  12.077  19.243  0.00  0.00    +0.000 NA
ATOM      7  C   UNL     1      -4.557  11.681  18.461  0.00  0.00    +0.000 A 
ATOM      8  C   UNL     1      -4.366  10.850  17.414  0.00  0.00    +0.000 A 
ATOM      9  C   UNL     1      -3.021  10.322  17.113  0.00  0.00    +0.000 A 
ATOM     10  O   UNL     1      -2.836   9.567  16.167  0.00  0.00    +0.000 OA
ATOM     11  N   UNL     1      -1.168  11.821  19.707  0.00  0.00    +0.000 N 
ENDROOT
BRANCH   7  12
ATOM     12  N   UNL     1      -5.857  12.155  18.753  0.00  0.00    +0.000 N 
ATOM     13  C   UNL     1      -6.287  13.480  18.217  0.00  0.00    +0.000 C 
ATOM     14  C   UNL     1      -6.491  14.524  19.347  0.00  0.00    +0.000 C 
ATOM     15  C   UNL     1      -7.908  14.483  19.947  0.00  0.00    +0.000 C 
ATOM     16  C   UNL     1      -7.729  13.722  21.254  0.00  0.00    +0.000 C 
ATOM     17  C   UNL     1      -6.378  13.057  21.049  0.00  0.00    +0.000 C 
ATOM     18  C   UNL     1      -6.490  11.856  20.062  0.00  0.00    +0.000 C 
ATOM     19  O   UNL     1      -5.646  14.160  20.462  0.00  0.00    +0.000 OA
ENDBRANCH   7  12
BRANCH   2  20
ATOM     20  C   UNL     1       1.157  12.026  18.681  0.00  0.00    +0.000 C 
ATOM     21  F   UNL     1       0.695  13.096  17.987  0.00  0.00    +0.000 F 
ATOM     22  F   UNL     1       1.872  12.519  19.716  0.00  0.00    +0.000 F 
ATOM     23  F   UNL     1       2.034  11.397  17.861  0.00  0.00    +0.000 F 
ENDBRANCH   2  20
BRANCH  11  24
ATOM     24  C   UNL     1      -1.094  12.591  20.946  0.00  0.00    +0.000 C 
BRANCH  24  25
ATOM     25  C   UNL     1      -1.756  11.853  22.141  0.00  0.00    +0.000 C 
BRANCH  25  26
ATOM     26  C   UNL     1      -2.704  12.689  22.984  0.00  0.00    +0.000 A 
ATOM     27  C   UNL     1      -2.839  14.058  22.689  0.00  0.00    +0.000 A 
ATOM     28  C   UNL     1      -3.772  14.849  23.360  0.00  0.00    +0.000 A 
ATOM     29  C   UNL     1      -4.591  14.285  24.335  0.00  0.00    +0.000 A 
ATOM     30  C   UNL     1      -4.468  12.932  24.644  0.00  0.00    +0.000 A 
ATOM     31  C   UNL     1      -3.533  12.138  23.974  0.00  0.00    +0.000 A 
ENDBRANCH  25  26
BRANCH  25  32
ATOM     32  O   UNL     1      -0.732  11.356  23.017  0.00  0.00    +0.000 OA
ATOM     33  H   UNL     1      -0.653  11.978  23.757  0.00  0.00    +0.000 HD
ENDBRANCH  25  32
ENDBRANCH  24  25
ENDBRANCH  11  24
TORSDOF 6
ENDMDL
