MODEL 1
REMARK VINA RESULT:      -7.3      0.000      0.000
REMARK  Name = 
REMARK  2 active torsions:
REMARK  status: ('A' for Active; 'I' for Inactive)
REMARK    1  A    between atoms: N_6  and  C_7
REMARK    2  A    between atoms: C_16  and  C_17
REMARK                            x       y       z     vdW  Elec       q    Type
REMARK                         _______ _______ _______ _____ _____    ______ ____
ROOT
ATOM      1  O   UNL     1      -0.509   8.343  21.273  0.00  0.00    +0.000 OA
ATOM      2  S   UNL     1       0.863   8.736  21.012  0.00  0.00    +0.000 S 
ATOM      3  O   UNL     1       1.767   8.978  22.118  0.00  0.00    +0.000 OA
ATOM      4  N   UNL     1       0.835  10.045  20.107  0.00  0.00    +0.000 NA
ATOM      5  C   UNL     1       1.286  10.177  18.915  0.00  0.00    +0.000 C 
ATOM      6  N   UNL     1       1.221  11.384  18.265  0.00  0.00    +0.000 N 
ATOM      7  S   UNL     1       2.056   8.972  17.924  0.00  0.00    +0.000 S 
ATOM      8  C   UNL     1       2.075   7.496  18.881  0.00  0.00    +0.000 A 
ATOM      9  C   UNL     1       2.649   6.353  18.296  0.00  0.00    +0.000 A 
ATOM     10  C   UNL     1       2.688   5.124  18.970  0.00  0.00    +0.000 A 
ATOM     11  C   UNL     1       2.149   5.003  20.254  0.00  0.00    +0.000 A 
ATOM     12  C   UNL     1       1.587   6.142  20.844  0.00  0.00    +0.000 A 
ATOM     13  C   UNL     1       1.563   7.371  20.157  0.00  0.00    +0.000 A 
ATOM     14  H   UNL     1       1.725  11.413  17.385  0.00  0.00    +0.000 HD
ENDROOT
BRANCH   6  15
ATOM     15  C   UNL     1       1.152  12.643  18.989  0.00  0.00    +0.000 C 
ATOM     16  C   UNL     1       2.193  13.636  18.477  0.00  0.00    +0.000 C 
ATOM     17  C   UNL     1       1.644  14.998  18.869  0.00  0.00    +0.000 C 
ATOM     18  C   UNL     1       0.126  14.849  18.883  0.00  0.00    +0.000 C 
ATOM     19  C   UNL     1      -0.172  13.359  18.732  0.00  0.00    +0.000 C 
ENDBRANCH   6  15
BRANCH  11  20
ATOM     20  C   UNL     1       2.157   3.693  21.006  0.00  0.00    +0.000 C 
ATOM     21  F   UNL     1       3.073   2.802  20.534  0.00  0.00    +0.000 F 
ATOM     22  F   UNL     1       2.440   3.856  22.327  0.00  0.00    +0.000 F 
ATOM     23  F   UNL     1       0.955   3.058  20.953  0.00  0.00    +0.000 F 
ENDBRANCH  11  20
TORSDOF 2
ENDMDL
MODEL 2
REMARK VINA RESULT:      -7.1      3.415      4.115
REMARK  Name = 
REMARK  2 active torsions:
REMARK  status: ('A' for Active; 'I' for Inactive)
REMARK    1  A    between atoms: N_6  and  C_7
REMARK    2  A    between atoms: C_16  and  C_17
REMARK                            x       y       z     vdW  Elec       q    Type
REMARK                         _______ _______ _______ _____ _____    ______ ____
ROOT
ATOM      1  O   UNL     1      -0.623   8.169  22.052  0.00  0.00    +0.000 OA
ATOM      2  S   UNL     1       0.316   9.272  21.969  0.00  0.00    +0.000 S 
ATOM      3  O   UNL     1       1.478   9.297  22.834  0.00  0.00    +0.000 OA
ATOM      4  N   UNL     1      -0.494  10.622  22.199  0.00  0.00    +0.000 NA
ATOM      5  C   UNL     1      -0.654  11.585  21.368  0.00  0.00    +0.000 C 
ATOM      6  N   UNL     1      -1.356  12.711  21.719  0.00  0.00    +0.000 N 
ATOM      7  S   UNL     1      -0.044  11.707  19.744  0.00  0.00    +0.000 S 
ATOM      8  C   UNL     1       0.832  10.212  19.440  0.00  0.00    +0.000 A 
ATOM      9  C   UNL     1       1.427  10.056  18.176  0.00  0.00    +0.000 A 
ATOM     10  C   UNL     1       2.123   8.889  17.831  0.00  0.00    +0.000 A 
ATOM     11  C   UNL     1       2.243   7.839  18.746  0.00  0.00    +0.000 A 
ATOM     12  C   UNL     1       1.662   7.996  20.010  0.00  0.00    +0.000 A 
ATOM     13  C   UNL     1       0.972   9.178  20.343  0.00  0.00    +0.000 A 
ATOM     14  H   UNL     1      -1.307  13.464  21.039  0.00  0.00    +0.000 HD
ENDROOT
BRANCH   6  15
ATOM     15  C   UNL     1      -1.498  13.128  23.105  0.00  0.00    +0.000 C 
ATOM     16  C   UNL     1      -0.947  14.535  23.320  0.00  0.00    +0.000 C 
ATOM     17  C   UNL     1      -1.659  15.034  24.567  0.00  0.00    +0.000 C 
ATOM     18  C   UNL     1      -3.010  14.327  24.589  0.00  0.00    +0.000 C 
ATOM     19  C   UNL     1      -2.968  13.262  23.496  0.00  0.00    +0.000 C 
ENDBRANCH   6  15
BRANCH  11  20
ATOM     20  C   UNL     1       2.973   6.560  18.407  0.00  0.00    +0.000 C 
ATOM     21  F   UNL     1       2.177   5.618  17.829  0.00  0.00    +0.000 F 
ATOM     22  F   UNL     1       4.002   6.764  17.541  0.00  0.00    +0.000 F 
ATOM     23  F   UNL     1       3.516   5.968  19.505  0.00  0.00    +0.000 F 
ENDBRANCH  11  20
TORSDOF 2
ENDMDL
MODEL 3
REMARK VINA RESULT:      -6.7      5.471      7.865
REMARK  Name = 
REMARK  2 active torsions:
REMARK  status: ('A' for Active; 'I' for Inactive)
REMARK    1  A    between atoms: N_6  and  C_7
REMARK    2  A    between atoms: C_16  and  C_17
REMARK                            x       y       z     vdW  Elec       q    Type
REMARK                         _______ _______ _______ _____ _____    ______ ____
ROOT
ATOM      1  O   UNL     1       5.805   3.642  18.612  0.00  0.00    +0.000 OA
ATOM      2  S   UNL     1       4.917   3.948  17.506  0.00  0.00    +0.000 S 
ATOM      3  O   UNL     1       3.939   2.970  17.074  0.00  0.00    +0.000 OA
ATOM      4  N   UNL     1       5.813   4.333  16.250  0.00  0.00    +0.000 NA
ATOM      5  C   UNL     1       5.856   5.459  15.639  0.00  0.00    +0.000 C 
ATOM      6  N   UNL     1       6.660   5.638  14.541  0.00  0.00    +0.000 N 
ATOM      7  S   UNL     1       4.958   6.905  16.000  0.00  0.00    +0.000 S 
ATOM      8  C   UNL     1       3.976   6.528  17.410  0.00  0.00    +0.000 A 
ATOM      9  C   UNL     1       3.148   7.546  17.914  0.00  0.00    +0.000 A 
ATOM     10  C   UNL     1       2.349   7.349  19.049  0.00  0.00    +0.000 A 
ATOM     11  C   UNL     1       2.357   6.122  19.717  0.00  0.00    +0.000 A 
ATOM     12  C   UNL     1       3.172   5.102  19.211  0.00  0.00    +0.000 A 
ATOM     13  C   UNL     1       3.963   5.313  18.065  0.00  0.00    +0.000 A 
ATOM     14  H   UNL     1       6.517   6.518  14.056  0.00  0.00    +0.000 HD
ENDROOT
BRANCH   6  15
ATOM     15  C   UNL     1       7.077   4.523  13.706  0.00  0.00    +0.000 C 
ATOM     16  C   UNL     1       5.882   3.683  13.263  0.00  0.00    +0.000 C 
ATOM     17  C   UNL     1       6.359   2.980  12.003  0.00  0.00    +0.000 C 
ATOM     18  C   UNL     1       7.394   3.905  11.372  0.00  0.00    +0.000 C 
ATOM     19  C   UNL     1       7.672   5.011  12.387  0.00  0.00    +0.000 C 
ENDBRANCH   6  15
BRANCH  11  20
ATOM     20  C   UNL     1       1.522   5.875  20.951  0.00  0.00    +0.000 C 
ATOM     21  F   UNL     1       0.399   5.144  20.710  0.00  0.00    +0.000 F 
ATOM     22  F   UNL     1       2.208   5.203  21.915  0.00  0.00    +0.000 F 
ATOM     23  F   UNL     1       1.097   7.032  21.528  0.00  0.00    +0.000 F 
ENDBRANCH  11  20
TORSDOF 2
ENDMDL
MODEL 4
REMARK VINA RESULT:      -6.7      4.406      7.349
REMARK  Name = 
REMARK  2 active torsions:
REMARK  status: ('A' for Active; 'I' for Inactive)
REMARK    1  A    between atoms: N_6  and  C_7
REMARK    2  A    between atoms: C_16  and  C_17
REMARK                            x       y       z     vdW  Elec       q    Type
REMARK                         _______ _______ _______ _____ _____    ______ ____
ROOT
ATOM      1  O   UNL     1       1.611   9.299  22.493  0.00  0.00    +0.000 OA
ATOM      2  S   UNL     1       0.759   8.777  21.441  0.00  0.00    +0.000 S 
ATOM      3  O   UNL     1      -0.305   7.849  21.767  0.00  0.00    +0.000 OA
ATOM      4  N   UNL     1       1.693   8.087  20.353  0.00  0.00    +0.000 NA
ATOM      5  C   UNL     1       1.845   8.430  19.127  0.00  0.00    +0.000 C 
ATOM      6  N   UNL     1       2.666   7.717  18.290  0.00  0.00    +0.000 N 
ATOM      7  S   UNL     1       1.087   9.751  18.286  0.00  0.00    +0.000 S 
ATOM      8  C   UNL     1       0.069  10.561  19.469  0.00  0.00    +0.000 A 
ATOM      9  C   UNL     1      -0.661  11.683  19.036  0.00  0.00    +0.000 A 
ATOM     10  C   UNL     1      -1.479  12.409  19.913  0.00  0.00    +0.000 A 
ATOM     11  C   UNL     1      -1.590  12.034  21.255  0.00  0.00    +0.000 A 
ATOM     12  C   UNL     1      -0.874  10.911  21.686  0.00  0.00    +0.000 A 
ATOM     13  C   UNL     1      -0.062  10.186  20.792  0.00  0.00    +0.000 A 
ATOM     14  H   UNL     1       2.608   7.990  17.314  0.00  0.00    +0.000 HD
ENDROOT
BRANCH   6  15
ATOM     15  C   UNL     1       2.978   6.317  18.531  0.00  0.00    +0.000 C 
ATOM     16  C   UNL     1       1.903   5.401  17.951  0.00  0.00    +0.000 C 
ATOM     17  C   UNL     1       2.608   4.069  17.751  0.00  0.00    +0.000 C 
ATOM     18  C   UNL     1       4.074   4.404  17.497  0.00  0.00    +0.000 C 
ATOM     19  C   UNL     1       4.241   5.895  17.783  0.00  0.00    +0.000 C 
ENDBRANCH   6  15
BRANCH  11  20
ATOM     20  C   UNL     1      -2.449  12.800  22.233  0.00  0.00    +0.000 C 
ATOM     21  F   UNL     1      -1.956  14.032  22.539  0.00  0.00    +0.000 F 
ATOM     22  F   UNL     1      -3.709  13.006  21.765  0.00  0.00    +0.000 F 
ATOM     23  F   UNL     1      -2.588  12.148  23.420  0.00  0.00    +0.000 F 
ENDBRANCH  11  20
TORSDOF 2
ENDMDL
MODEL 5
REMARK VINA RESULT:      -6.6      4.498      7.534
REMARK  Name = 
REMARK  2 active torsions:
REMARK  status: ('A' for Active; 'I' for Inactive)
REMARK    1  A    between atoms: N_6  and  C_7
REMARK    2  A    between atoms: C_16  and  C_17
REMARK                            x       y       z     vdW  Elec       q    Type
REMARK                         _______ _______ _______ _____ _____    ______ ____
ROOT
ATOM      1  O   UNL     1       1.376   9.388  22.643  0.00  0.00    +0.000 OA
ATOM      2  S   UNL     1       0.576   8.874  21.548  0.00  0.00    +0.000 S 
ATOM      3  O   UNL     1      -0.621   8.106  21.826  0.00  0.00    +0.000 OA
ATOM      4  N   UNL     1       1.522   7.989  20.624  0.00  0.00    +0.000 NA
ATOM      5  C   UNL     1       1.835   8.202  19.399  0.00  0.00    +0.000 C 
ATOM      6  N   UNL     1       2.641   7.328  18.714  0.00  0.00    +0.000 N 
ATOM      7  S   UNL     1       1.331   9.519  18.381  0.00  0.00    +0.000 S 
ATOM      8  C   UNL     1       0.307  10.542  19.381  0.00  0.00    +0.000 A 
ATOM      9  C   UNL     1      -0.234  11.696  18.787  0.00  0.00    +0.000 A 
ATOM     10  C   UNL     1      -1.040  12.586  19.510  0.00  0.00    +0.000 A 
ATOM     11  C   UNL     1      -1.328  12.347  20.857  0.00  0.00    +0.000 A 
ATOM     12  C   UNL     1      -0.801  11.192  21.449  0.00  0.00    +0.000 A 
ATOM     13  C   UNL     1       0.001  10.304  20.706  0.00  0.00    +0.000 A 
ATOM     14  H   UNL     1       2.715   7.518  17.720  0.00  0.00    +0.000 HD
ENDROOT
BRANCH   6  15
ATOM     15  C   UNL     1       2.755   5.929  19.094  0.00  0.00    +0.000 C 
ATOM     16  C   UNL     1       2.185   5.012  18.014  0.00  0.00    +0.000 C 
ATOM     17  C   UNL     1       2.872   3.677  18.250  0.00  0.00    +0.000 C 
ATOM     18  C   UNL     1       4.229   4.005  18.861  0.00  0.00    +0.000 C 
ATOM     19  C   UNL     1       4.217   5.497  19.187  0.00  0.00    +0.000 C 
ENDBRANCH   6  15
BRANCH  11  20
ATOM     20  C   UNL     1      -2.179  13.289  21.674  0.00  0.00    +0.000 C 
ATOM     21  F   UNL     1      -3.503  12.970  21.666  0.00  0.00    +0.000 F 
ATOM     22  F   UNL     1      -1.809  13.320  22.983  0.00  0.00    +0.000 F 
ATOM     23  F   UNL     1      -2.102  14.573  21.230  0.00  0.00    +0.000 F 
ENDBRANCH  11  20
TORSDOF 2
ENDMDL
MODEL 6
REMARK VINA RESULT:      -6.6      0.960      1.335
REMARK  Name = 
REMARK  2 active torsions:
REMARK  status: ('A' for Active; 'I' for Inactive)
REMARK    1  A    between atoms: N_6  and  C_7
REMARK    2  A    between atoms: C_16  and  C_17
REMARK                            x       y       z     vdW  Elec       q    Type
REMARK                         _______ _______ _______ _____ _____    ______ ____
ROOT
ATOM      1  O   UNL     1      -0.525   8.537  21.645  0.00  0.00    +0.000 OA
ATOM      2  S   UNL     1       0.773   9.101  21.327  0.00  0.00    +0.000 S 
ATOM      3  O   UNL     1       1.754   9.293  22.377  0.00  0.00    +0.000 OA
ATOM      4  N   UNL     1       0.537  10.505  20.616  0.00  0.00    +0.000 NA
ATOM      5  C   UNL     1       0.856  10.835  19.420  0.00  0.00    +0.000 C 
ATOM      6  N   UNL     1       0.618  12.102  18.949  0.00  0.00    +0.000 N 
ATOM      7  S   UNL     1       1.634   9.854  18.212  0.00  0.00    +0.000 S 
ATOM      8  C   UNL     1       1.882   8.277  18.952  0.00  0.00    +0.000 A 
ATOM      9  C   UNL     1       2.499   7.285  18.171  0.00  0.00    +0.000 A 
ATOM     10  C   UNL     1       2.716   5.991  18.664  0.00  0.00    +0.000 A 
ATOM     11  C   UNL     1       2.317   5.650  19.960  0.00  0.00    +0.000 A 
ATOM     12  C   UNL     1       1.713   6.640  20.745  0.00  0.00    +0.000 A 
ATOM     13  C   UNL     1       1.509   7.937  20.237  0.00  0.00    +0.000 A 
ATOM     14  H   UNL     1       1.030  12.296  18.042  0.00  0.00    +0.000 HD
ENDROOT
BRANCH   6  15
ATOM     15  C   UNL     1       0.504  13.244  19.842  0.00  0.00    +0.000 C 
ATOM     16  C   UNL     1       1.303  14.437  19.322  0.00  0.00    +0.000 C 
ATOM     17  C   UNL     1       0.650  15.644  19.975  0.00  0.00    +0.000 C 
ATOM     18  C   UNL     1      -0.810  15.264  20.195  0.00  0.00    +0.000 C 
ATOM     19  C   UNL     1      -0.928  13.773  19.886  0.00  0.00    +0.000 C 
ENDBRANCH   6  15
BRANCH  11  20
ATOM     20  C   UNL     1       2.519   4.263  20.522  0.00  0.00    +0.000 C 
ATOM     21  F   UNL     1       2.356   4.196  21.873  0.00  0.00    +0.000 F 
ATOM     22  F   UNL     1       1.651   3.359  19.995  0.00  0.00    +0.000 F 
ATOM     23  F   UNL     1       3.766   3.780  20.272  0.00  0.00    +0.000 F 
ENDBRANCH  11  20
TORSDOF 2
ENDMDL
MODEL 7
REMARK VINA RESULT:      -6.5      4.493      7.687
REMARK  Name = 
REMARK  2 active torsions:
REMARK  status: ('A' for Active; 'I' for Inactive)
REMARK    1  A    between atoms: N_6  and  C_7
REMARK    2  A    between atoms: C_16  and  C_17
REMARK                            x       y       z     vdW  Elec       q    Type
REMARK                         _______ _______ _______ _____ _____    ______ ____
ROOT
ATOM      1  O   UNL     1       1.251   9.423  22.831  0.00  0.00    +0.000 OA
ATOM      2  S   UNL     1       0.551   8.766  21.743  0.00  0.00    +0.000 S 
ATOM      3  O   UNL     1      -0.795   8.269  21.947  0.00  0.00    +0.000 OA
ATOM      4  N   UNL     1       1.451   7.553  21.243  0.00  0.00    +0.000 NA
ATOM      5  C   UNL     1       1.984   7.403  20.088  0.00  0.00    +0.000 C 
ATOM      6  N   UNL     1       2.714   6.280  19.786  0.00  0.00    +0.000 N 
ATOM      7  S   UNL     1       1.895   8.478  18.723  0.00  0.00    +0.000 S 
ATOM      8  C   UNL     1       0.932   9.853  19.249  0.00  0.00    +0.000 A 
ATOM      9  C   UNL     1       0.711  10.883  18.318  0.00  0.00    +0.000 A 
ATOM     10  C   UNL     1      -0.021  12.031  18.652  0.00  0.00    +0.000 A 
ATOM     11  C   UNL     1      -0.554  12.183  19.936  0.00  0.00    +0.000 A 
ATOM     12  C   UNL     1      -0.346  11.153  20.861  0.00  0.00    +0.000 A 
ATOM     13  C   UNL     1       0.385  10.003  20.508  0.00  0.00    +0.000 A 
ATOM     14  H   UNL     1       2.975   6.201  18.808  0.00  0.00    +0.000 HD
ENDROOT
BRANCH   6  15
ATOM     15  C   UNL     1       2.509   5.021  20.484  0.00  0.00    +0.000 C 
ATOM     16  C   UNL     1       1.087   4.501  20.285  0.00  0.00    +0.000 C 
ATOM     17  C   UNL     1       1.192   3.005  20.535  0.00  0.00    +0.000 C 
ATOM     18  C   UNL     1       2.612   2.613  20.139  0.00  0.00    +0.000 C 
ATOM     19  C   UNL     1       3.375   3.912  19.892  0.00  0.00    +0.000 C 
ENDBRANCH   6  15
BRANCH  11  20
ATOM     20  C   UNL     1      -1.335  13.411  20.339  0.00  0.00    +0.000 C 
ATOM     21  F   UNL     1      -1.284  13.672  21.674  0.00  0.00    +0.000 F 
ATOM     22  F   UNL     1      -0.888  14.536  19.719  0.00  0.00    +0.000 F 
ATOM     23  F   UNL     1      -2.656  13.309  20.029  0.00  0.00    +0.000 F 
ENDBRANCH  11  20
TORSDOF 2
ENDMDL
MODEL 8
REMARK VINA RESULT:      -6.5      2.548      3.036
REMARK  Name = 
REMARK  2 active torsions:
REMARK  status: ('A' for Active; 'I' for Inactive)
REMARK    1  A    between atoms: N_6  and  C_7
REMARK    2  A    between atoms: C_16  and  C_17
REMARK                            x       y       z     vdW  Elec       q    Type
REMARK                         _______ _______ _______ _____ _____    ______ ____
ROOT
ATOM      1  O   UNL     1      -0.609   8.443  22.039  0.00  0.00    +0.000 OA
ATOM      2  S   UNL     1       0.427   9.429  21.794  0.00  0.00    +0.000 S 
ATOM      3  O   UNL     1       1.522   9.573  22.732  0.00  0.00    +0.000 OA
ATOM      4  N   UNL     1      -0.275  10.848  21.639  0.00  0.00    +0.000 NA
ATOM      5  C   UNL     1      -0.288  11.600  20.601  0.00  0.00    +0.000 C 
ATOM      6  N   UNL     1      -0.912  12.823  20.623  0.00  0.00    +0.000 N 
ATOM      7  S   UNL     1       0.445  11.299  19.053  0.00  0.00    +0.000 S 
ATOM      8  C   UNL     1       1.205   9.717  19.175  0.00  0.00    +0.000 A 
ATOM      9  C   UNL     1       1.874   9.231  18.038  0.00  0.00    +0.000 A 
ATOM     10  C   UNL     1       2.488   7.970  18.030  0.00  0.00    +0.000 A 
ATOM     11  C   UNL     1       2.448   7.155  19.166  0.00  0.00    +0.000 A 
ATOM     12  C   UNL     1       1.793   7.642  20.303  0.00  0.00    +0.000 A 
ATOM     13  C   UNL     1       1.188   8.914  20.298  0.00  0.00    +0.000 A 
ATOM     14  H   UNL     1      -0.747  13.392  19.799  0.00  0.00    +0.000 HD
ENDROOT
BRANCH   6  15
ATOM     15  C   UNL     1      -1.116  13.559  21.861  0.00  0.00    +0.000 C 
ATOM     16  C   UNL     1       0.088  14.439  22.188  0.00  0.00    +0.000 C 
ATOM     17  C   UNL     1      -0.470  15.521  23.098  0.00  0.00    +0.000 C 
ATOM     18  C   UNL     1      -1.929  15.697  22.695  0.00  0.00    +0.000 C 
ATOM     19  C   UNL     1      -2.259  14.562  21.727  0.00  0.00    +0.000 C 
ENDBRANCH   6  15
BRANCH  11  20
ATOM     20  C   UNL     1       3.084   5.786  19.192  0.00  0.00    +0.000 C 
ATOM     21  F   UNL     1       4.445   5.820  19.239  0.00  0.00    +0.000 F 
ATOM     22  F   UNL     1       2.690   5.052  20.268  0.00  0.00    +0.000 F 
ATOM     23  F   UNL     1       2.767   5.047  18.094  0.00  0.00    +0.000 F 
ENDBRANCH  11  20
TORSDOF 2
ENDMDL
MODEL 9
REMARK VINA RESULT:      -6.5      4.532      7.054
REMARK  Name = 
REMARK  2 active torsions:
REMARK  status: ('A' for Active; 'I' for Inactive)
REMARK    1  A    between atoms: N_6  and  C_7
REMARK    2  A    between atoms: C_16  and  C_17
REMARK                            x       y       z     vdW  Elec       q    Type
REMARK                         _______ _______ _______ _____ _____    ______ ____
ROOT
ATOM      1  O   UNL     1       0.253   9.256  17.445  0.00  0.00    +0.000 OA
ATOM      2  S   UNL     1       1.492   9.260  18.201  0.00  0.00    +0.000 S 
ATOM      3  O   UNL     1       2.426  10.358  18.050  0.00  0.00    +0.000 OA
ATOM      4  N   UNL     1       2.268   7.910  17.877  0.00  0.00    +0.000 NA
ATOM      5  C   UNL     1       2.566   6.967  18.693  0.00  0.00    +0.000 C 
ATOM      6  N   UNL     1       3.272   5.867  18.274  0.00  0.00    +0.000 N 
ATOM      7  S   UNL     1       2.208   6.874  20.393  0.00  0.00    +0.000 S 
ATOM      8  C   UNL     1       1.317   8.339  20.784  0.00  0.00    +0.000 A 
ATOM      9  C   UNL     1       0.900   8.508  22.116  0.00  0.00    +0.000 A 
ATOM     10  C   UNL     1       0.163   9.630  22.518  0.00  0.00    +0.000 A 
ATOM     11  C   UNL     1      -0.182  10.620  21.593  0.00  0.00    +0.000 A 
ATOM     12  C   UNL     1       0.242  10.461  20.269  0.00  0.00    +0.000 A 
ATOM     13  C   UNL     1       0.989   9.332  19.882  0.00  0.00    +0.000 A 
ATOM     14  H   UNL     1       3.570   5.251  19.024  0.00  0.00    +0.000 HD
ENDROOT
BRANCH   6  15
ATOM     15  C   UNL     1       4.150   5.913  17.116  0.00  0.00    +0.000 C 
ATOM     16  C   UNL     1       5.526   6.462  17.484  0.00  0.00    +0.000 C 
ATOM     17  C   UNL     1       6.450   5.921  16.405  0.00  0.00    +0.000 C 
ATOM     18  C   UNL     1       5.838   4.601  15.951  0.00  0.00    +0.000 C 
ATOM     19  C   UNL     1       4.458   4.510  16.598  0.00  0.00    +0.000 C 
ENDBRANCH   6  15
BRANCH  11  20
ATOM     20  C   UNL     1      -0.989  11.836  21.985  0.00  0.00    +0.000 C 
ATOM     21  F   UNL     1      -0.222  12.908  22.327  0.00  0.00    +0.000 F 
ATOM     22  F   UNL     1      -1.803  12.262  20.982  0.00  0.00    +0.000 F 
ATOM     23  F   UNL     1      -1.798  11.598  23.053  0.00  0.00    +0.000 F 
ENDBRANCH  11  20
TORSDOF 2
ENDMDL
