MODEL 1
REMARK VINA RESULT:      -8.2      0.000      0.000
REMARK  Name = 
REMARK  6 active torsions:
REMARK  status: ('A' for Active; 'I' for Inactive)
REMARK    1  A    between atoms: N_15  and  C_16
REMARK    2  A    between atoms: C_16  and  C_17
REMARK    3  A    between atoms: C_24  and  C_25
REMARK    4  A    between atoms: C_25  and  O_26
REMARK    5  A    between atoms: O_26  and  C_27
REMARK    6  A    between atoms: C_27  and  C_28
REMARK                            x       y       z     vdW  Elec       q    Type
REMARK                         _______ _______ _______ _____ _____    ______ ____
ROOT
ATOM      1  O   UNL     1       2.316  12.045  17.687  0.00  0.00    +0.000 OA
ATOM      2  C   UNL     1       1.886  12.083  18.833  0.00  0.00    +0.000 C 
ATOM      3  C   UNL     1       1.738  13.426  19.540  0.00  0.00    +0.000 C 
ATOM      4  C   UNL     1       1.339  13.506  20.814  0.00  0.00    +0.000 C 
ATOM      5  C   UNL     1       0.885  12.270  21.487  0.00  0.00    +0.000 C 
ATOM      6  C   UNL     1       0.352  11.264  20.475  0.00  0.00    +0.000 C 
ATOM      7  C   UNL     1      -0.794  11.276  19.464  0.00  0.00    +0.000 A 
ATOM      8  C   UNL     1      -0.851  10.348  18.411  0.00  0.00    +0.000 A 
ATOM      9  C   UNL     1      -2.097  10.451  17.761  0.00  0.00    +0.000 A 
ATOM     10  C   UNL     1      -2.732   9.692  16.757  0.00  0.00    +0.000 A 
ATOM     11  C   UNL     1      -3.974  10.098  16.271  0.00  0.00    +0.000 A 
ATOM     12  C   UNL     1      -4.561  11.264  16.751  0.00  0.00    +0.000 A 
ATOM     13  C   UNL     1      -3.941  12.036  17.746  0.00  0.00    +0.000 A 
ATOM     14  C   UNL     1      -2.706  11.597  18.262  0.00  0.00    +0.000 A 
ATOM     15  N   UNL     1      -1.878  12.102  19.271  0.00  0.00    +0.000 N 
ATOM     16  C   UNL     1       0.291   9.450  18.020  0.00  0.00    +0.000 C 
ATOM     17  C   UNL     1       1.443   9.571  19.038  0.00  0.00    +0.000 C 
ATOM     18  N   UNL     1       1.481  10.963  19.593  0.00  0.00    +0.000 N 
ENDROOT
BRANCH  15  19
ATOM     19  C   UNL     1      -2.195  13.293  20.039  0.00  0.00    +0.000 C 
BRANCH  19  20
ATOM     20  C   UNL     1      -3.097  13.001  21.208  0.00  0.00    +0.000 A 
ATOM     21  C   UNL     1      -4.499  13.119  21.148  0.00  0.00    +0.000 A 
ATOM     22  C   UNL     1      -5.282  12.903  22.275  0.00  0.00    +0.000 A 
ATOM     23  C   UNL     1      -4.674  12.559  23.478  0.00  0.00    +0.000 A 
ATOM     24  C   UNL     1      -3.287  12.421  23.549  0.00  0.00    +0.000 A 
ATOM     25  C   UNL     1      -2.494  12.628  22.418  0.00  0.00    +0.000 A 
ENDBRANCH  19  20
ENDBRANCH  15  19
BRANCH  17  26
ATOM     26  C   UNL     1       1.184   8.575  20.203  0.00  0.00    +0.000 C 
BRANCH  26  27
ATOM     27  O   UNL     1       2.185   7.608  20.477  0.00  0.00    +0.000 OA
BRANCH  27  28
ATOM     28  C   UNL     1       2.509   6.949  19.235  0.00  0.00    +0.000 C 
BRANCH  28  29
ATOM     29  C   UNL     1       2.005   5.541  19.258  0.00  0.00    +0.000 A 
ATOM     30  C   UNL     1       1.984   4.803  18.072  0.00  0.00    +0.000 A 
ATOM     31  C   UNL     1       1.525   3.489  18.074  0.00  0.00    +0.000 A 
ATOM     32  C   UNL     1       1.066   2.899  19.256  0.00  0.00    +0.000 A 
ATOM     33  C   UNL     1       1.121   3.625  20.449  0.00  0.00    +0.000 A 
ATOM     34  C   UNL     1       1.571   4.950  20.447  0.00  0.00    +0.000 A 
ENDBRANCH  28  29
ENDBRANCH  27  28
ENDBRANCH  26  27
ENDBRANCH  17  26
TORSDOF 6
ENDMDL
MODEL 2
REMARK VINA RESULT:      -8.1      1.065      1.551
REMARK  Name = 
REMARK  6 active torsions:
REMARK  status: ('A' for Active; 'I' for Inactive)
REMARK    1  A    between atoms: N_15  and  C_16
REMARK    2  A    between atoms: C_16  and  C_17
REMARK    3  A    between atoms: C_24  and  C_25
REMARK    4  A    between atoms: C_25  and  O_26
REMARK    5  A    between atoms: O_26  and  C_27
REMARK    6  A    between atoms: C_27  and  C_28
REMARK                            x       y       z     vdW  Elec       q    Type
REMARK                         _______ _______ _______ _____ _____    ______ ____
ROOT
ATOM      1  O   UNL     1       2.042  12.358  18.945  0.00  0.00    +0.000 OA
ATOM      2  C   UNL     1       1.274  12.281  19.896  0.00  0.00    +0.000 C 
ATOM      3  C   UNL     1       0.765  13.555  20.560  0.00  0.00    +0.000 C 
ATOM      4  C   UNL     1      -0.019  13.515  21.643  0.00  0.00    +0.000 C 
ATOM      5  C   UNL     1      -0.520  12.200  22.099  0.00  0.00    +0.000 C 
ATOM      6  C   UNL     1      -0.595  11.214  20.940  0.00  0.00    +0.000 C 
ATOM      7  C   UNL     1      -1.361  11.181  19.618  0.00  0.00    +0.000 A 
ATOM      8  C   UNL     1      -0.983  10.321  18.574  0.00  0.00    +0.000 A 
ATOM      9  C   UNL     1      -1.966  10.345  17.565  0.00  0.00    +0.000 A 
ATOM     10  C   UNL     1      -2.167   9.595  16.389  0.00  0.00    +0.000 A 
ATOM     11  C   UNL     1      -3.232   9.910  15.547  0.00  0.00    +0.000 A 
ATOM     12  C   UNL     1      -4.065  10.981  15.851  0.00  0.00    +0.000 A 
ATOM     13  C   UNL     1      -3.877  11.744  17.014  0.00  0.00    +0.000 A 
ATOM     14  C   UNL     1      -2.825  11.393  17.882  0.00  0.00    +0.000 A 
ATOM     15  N   UNL     1      -2.415  11.909  19.117  0.00  0.00    +0.000 N 
ATOM     16  C   UNL     1       0.317   9.564  18.539  0.00  0.00    +0.000 C 
ATOM     17  C   UNL     1       1.073   9.730  19.873  0.00  0.00    +0.000 C 
ATOM     18  N   UNL     1       0.780  11.081  20.454  0.00  0.00    +0.000 N 
ENDROOT
BRANCH  15  19
ATOM     19  C   UNL     1      -3.087  13.013  19.780  0.00  0.00    +0.000 C 
BRANCH  19  20
ATOM     20  C   UNL     1      -4.404  12.606  20.384  0.00  0.00    +0.000 A 
ATOM     21  C   UNL     1      -5.439  12.003  19.642  0.00  0.00    +0.000 A 
ATOM     22  C   UNL     1      -6.661  11.707  20.232  0.00  0.00    +0.000 A 
ATOM     23  C   UNL     1      -6.865  12.005  21.576  0.00  0.00    +0.000 A 
ATOM     24  C   UNL     1      -5.843  12.586  22.329  0.00  0.00    +0.000 A 
ATOM     25  C   UNL     1      -4.608  12.877  21.744  0.00  0.00    +0.000 A 
ENDBRANCH  19  20
ENDBRANCH  15  19
BRANCH  17  26
ATOM     26  C   UNL     1       0.575   8.640  20.865  0.00  0.00    +0.000 C 
BRANCH  26  27
ATOM     27  O   UNL     1       1.484   7.612  21.221  0.00  0.00    +0.000 OA
BRANCH  27  28
ATOM     28  C   UNL     1       2.220   7.247  20.036  0.00  0.00    +0.000 C 
BRANCH  28  29
ATOM     29  C   UNL     1       1.893   5.841  19.644  0.00  0.00    +0.000 A 
ATOM     30  C   UNL     1       1.419   4.954  20.614  0.00  0.00    +0.000 A 
ATOM     31  C   UNL     1       1.103   3.642  20.268  0.00  0.00    +0.000 A 
ATOM     32  C   UNL     1       1.270   3.195  18.954  0.00  0.00    +0.000 A 
ATOM     33  C   UNL     1       1.710   4.092  17.977  0.00  0.00    +0.000 A 
ATOM     34  C   UNL     1       2.039   5.407  18.324  0.00  0.00    +0.000 A 
ENDBRANCH  28  29
ENDBRANCH  27  28
ENDBRANCH  26  27
ENDBRANCH  17  26
TORSDOF 6
ENDMDL
MODEL 3
REMARK VINA RESULT:      -7.9      0.515      1.244
REMARK  Name = 
REMARK  6 active torsions:
REMARK  status: ('A' for Active; 'I' for Inactive)
REMARK    1  A    between atoms: N_15  and  C_16
REMARK    2  A    between atoms: C_16  and  C_17
REMARK    3  A    between atoms: C_24  and  C_25
REMARK    4  A    between atoms: C_25  and  O_26
REMARK    5  A    between atoms: O_26  and  C_27
REMARK    6  A    between atoms: C_27  and  C_28
REMARK                            x       y       z     vdW  Elec       q    Type
REMARK                         _______ _______ _______ _____ _____    ______ ____
ROOT
ATOM      1  O   UNL     1       2.195  12.192  17.384  0.00  0.00    +0.000 OA
ATOM      2  C   UNL     1       1.895  12.208  18.572  0.00  0.00    +0.000 C 
ATOM      3  C   UNL     1       1.818  13.537  19.313  0.00  0.00    +0.000 C 
ATOM      4  C   UNL     1       1.564  13.594  20.625  0.00  0.00    +0.000 C 
ATOM      5  C   UNL     1       1.197  12.343  21.324  0.00  0.00    +0.000 C 
ATOM      6  C   UNL     1       0.562  11.348  20.361  0.00  0.00    +0.000 C 
ATOM      7  C   UNL     1      -0.691  11.366  19.485  0.00  0.00    +0.000 A 
ATOM      8  C   UNL     1      -0.858  10.454  18.429  0.00  0.00    +0.000 A 
ATOM      9  C   UNL     1      -2.170  10.555  17.925  0.00  0.00    +0.000 A 
ATOM     10  C   UNL     1      -2.908   9.807  16.985  0.00  0.00    +0.000 A 
ATOM     11  C   UNL     1      -4.199  10.208  16.649  0.00  0.00    +0.000 A 
ATOM     12  C   UNL     1      -4.737  11.361  17.211  0.00  0.00    +0.000 A 
ATOM     13  C   UNL     1      -4.015  12.123  18.143  0.00  0.00    +0.000 A 
ATOM     14  C   UNL     1      -2.727  11.687  18.511  0.00  0.00    +0.000 A 
ATOM     15  N   UNL     1      -1.795  12.184  19.429  0.00  0.00    +0.000 N 
ATOM     16  C   UNL     1       0.240   9.573  17.898  0.00  0.00    +0.000 C 
ATOM     17  C   UNL     1       1.498   9.689  18.782  0.00  0.00    +0.000 C 
ATOM     18  N   UNL     1       1.587  11.072  19.353  0.00  0.00    +0.000 N 
ENDROOT
BRANCH  15  19
ATOM     19  C   UNL     1      -2.033  13.359  20.247  0.00  0.00    +0.000 C 
BRANCH  19  20
ATOM     20  C   UNL     1      -2.806  13.042  21.499  0.00  0.00    +0.000 A 
ATOM     21  C   UNL     1      -2.245  12.368  22.602  0.00  0.00    +0.000 A 
ATOM     22  C   UNL     1      -3.021  12.040  23.707  0.00  0.00    +0.000 A 
ATOM     23  C   UNL     1      -4.367  12.388  23.729  0.00  0.00    +0.000 A 
ATOM     24  C   UNL     1      -4.933  13.073  22.653  0.00  0.00    +0.000 A 
ATOM     25  C   UNL     1      -4.158  13.414  21.542  0.00  0.00    +0.000 A 
ENDBRANCH  19  20
ENDBRANCH  15  19
BRANCH  17  26
ATOM     26  C   UNL     1       1.379   8.671  19.952  0.00  0.00    +0.000 C 
BRANCH  26  27
ATOM     27  O   UNL     1       2.298   7.592  19.981  0.00  0.00    +0.000 OA
BRANCH  27  28
ATOM     28  C   UNL     1       1.696   6.524  20.741  0.00  0.00    +0.000 C 
BRANCH  28  29
ATOM     29  C   UNL     1       1.631   5.281  19.911  0.00  0.00    +0.000 A 
ATOM     30  C   UNL     1       0.980   4.154  20.417  0.00  0.00    +0.000 A 
ATOM     31  C   UNL     1       0.903   2.990  19.657  0.00  0.00    +0.000 A 
ATOM     32  C   UNL     1       1.488   2.931  18.389  0.00  0.00    +0.000 A 
ATOM     33  C   UNL     1       2.108   4.069  17.867  0.00  0.00    +0.000 A 
ATOM     34  C   UNL     1       2.197   5.236  18.634  0.00  0.00    +0.000 A 
ENDBRANCH  28  29
ENDBRANCH  27  28
ENDBRANCH  26  27
ENDBRANCH  17  26
TORSDOF 6
ENDMDL
MODEL 4
REMARK VINA RESULT:      -7.8      0.835      1.246
REMARK  Name = 
REMARK  6 active torsions:
REMARK  status: ('A' for Active; 'I' for Inactive)
REMARK    1  A    between atoms: N_15  and  C_16
REMARK    2  A    between atoms: C_16  and  C_17
REMARK    3  A    between atoms: C_24  and  C_25
REMARK    4  A    between atoms: C_25  and  O_26
REMARK    5  A    between atoms: O_26  and  C_27
REMARK    6  A    between atoms: C_27  and  C_28
REMARK                            x       y       z     vdW  Elec       q    Type
REMARK                         _______ _______ _______ _____ _____    ______ ____
ROOT
ATOM      1  O   UNL     1       2.231  12.197  17.479  0.00  0.00    +0.000 OA
ATOM      2  C   UNL     1       1.888  12.191  18.655  0.00  0.00    +0.000 C 
ATOM      3  C   UNL     1       1.772  13.508  19.414  0.00  0.00    +0.000 C 
ATOM      4  C   UNL     1       1.468  13.542  20.716  0.00  0.00    +0.000 C 
ATOM      5  C   UNL     1       1.086  12.277  21.381  0.00  0.00    +0.000 C 
ATOM      6  C   UNL     1       0.496  11.293  20.380  0.00  0.00    +0.000 C 
ATOM      7  C   UNL     1      -0.723  11.314  19.458  0.00  0.00    +0.000 A 
ATOM      8  C   UNL     1      -0.843  10.418  18.383  0.00  0.00    +0.000 A 
ATOM      9  C   UNL     1      -2.136  10.516  17.832  0.00  0.00    +0.000 A 
ATOM     10  C   UNL     1      -2.832   9.777  16.854  0.00  0.00    +0.000 A 
ATOM     11  C   UNL     1      -4.114  10.173  16.476  0.00  0.00    +0.000 A 
ATOM     12  C   UNL     1      -4.682  11.312  17.035  0.00  0.00    +0.000 A 
ATOM     13  C   UNL     1      -4.002  12.066  18.005  0.00  0.00    +0.000 A 
ATOM     14  C   UNL     1      -2.725  11.634  18.414  0.00  0.00    +0.000 A 
ATOM     15  N   UNL     1      -1.832  12.124  19.374  0.00  0.00    +0.000 N 
ATOM     16  C   UNL     1       0.281   9.554  17.879  0.00  0.00    +0.000 C 
ATOM     17  C   UNL     1       1.505   9.666  18.812  0.00  0.00    +0.000 C 
ATOM     18  N   UNL     1       1.561  11.041  19.407  0.00  0.00    +0.000 N 
ENDROOT
BRANCH  15  19
ATOM     19  C   UNL     1      -2.110  13.285  20.201  0.00  0.00    +0.000 C 
BRANCH  19  20
ATOM     20  C   UNL     1      -2.962  12.949  21.396  0.00  0.00    +0.000 A 
ATOM     21  C   UNL     1      -4.356  13.149  21.429  0.00  0.00    +0.000 A 
ATOM     22  C   UNL     1      -5.087  12.886  22.581  0.00  0.00    +0.000 A 
ATOM     23  C   UNL     1      -4.436  12.412  23.714  0.00  0.00    +0.000 A 
ATOM     24  C   UNL     1      -3.058  12.190  23.691  0.00  0.00    +0.000 A 
ATOM     25  C   UNL     1      -2.317  12.444  22.534  0.00  0.00    +0.000 A 
ENDBRANCH  19  20
ENDBRANCH  15  19
BRANCH  17  26
ATOM     26  C   UNL     1       1.351   8.629  19.960  0.00  0.00    +0.000 C 
BRANCH  26  27
ATOM     27  O   UNL     1       1.988   7.372  19.801  0.00  0.00    +0.000 OA
BRANCH  27  28
ATOM     28  C   UNL     1       2.682   7.390  18.536  0.00  0.00    +0.000 C 
BRANCH  28  29
ATOM     29  C   UNL     1       2.951   5.989  18.084  0.00  0.00    +0.000 A 
ATOM     30  C   UNL     1       1.906   5.063  18.067  0.00  0.00    +0.000 A 
ATOM     31  C   UNL     1       2.135   3.757  17.643  0.00  0.00    +0.000 A 
ATOM     32  C   UNL     1       3.414   3.354  17.246  0.00  0.00    +0.000 A 
ATOM     33  C   UNL     1       4.452   4.289  17.229  0.00  0.00    +0.000 A 
ATOM     34  C   UNL     1       4.226   5.599  17.665  0.00  0.00    +0.000 A 
ENDBRANCH  28  29
ENDBRANCH  27  28
ENDBRANCH  26  27
ENDBRANCH  17  26
TORSDOF 6
ENDMDL
MODEL 5
REMARK VINA RESULT:      -7.7      4.814      8.744
REMARK  Name = 
REMARK  6 active torsions:
REMARK  status: ('A' for Active; 'I' for Inactive)
REMARK    1  A    between atoms: N_15  and  C_16
REMARK    2  A    between atoms: C_16  and  C_17
REMARK    3  A    between atoms: C_24  and  C_25
REMARK    4  A    between atoms: C_25  and  O_26
REMARK    5  A    between atoms: O_26  and  C_27
REMARK    6  A    between atoms: C_27  and  C_28
REMARK                            x       y       z     vdW  Elec       q    Type
REMARK                         _______ _______ _______ _____ _____    ______ ____
ROOT
ATOM      1  O   UNL     1       6.397   5.014  19.726  0.00  0.00    +0.000 OA
ATOM      2  C   UNL     1       5.763   4.391  18.883  0.00  0.00    +0.000 C 
ATOM      3  C   UNL     1       4.852   3.248  19.315  0.00  0.00    +0.000 C 
ATOM      4  C   UNL     1       4.198   2.498  18.422  0.00  0.00    +0.000 C 
ATOM      5  C   UNL     1       4.246   2.899  16.999  0.00  0.00    +0.000 C 
ATOM      6  C   UNL     1       4.483   4.397  16.863  0.00  0.00    +0.000 C 
ATOM      7  C   UNL     1       3.715   5.641  17.310  0.00  0.00    +0.000 A 
ATOM      8  C   UNL     1       4.331   6.903  17.359  0.00  0.00    +0.000 A 
ATOM      9  C   UNL     1       3.358   7.892  17.603  0.00  0.00    +0.000 A 
ATOM     10  C   UNL     1       3.389   9.301  17.614  0.00  0.00    +0.000 A 
ATOM     11  C   UNL     1       2.240  10.011  17.960  0.00  0.00    +0.000 A 
ATOM     12  C   UNL     1       1.086   9.328  18.327  0.00  0.00    +0.000 A 
ATOM     13  C   UNL     1       1.037   7.925  18.330  0.00  0.00    +0.000 A 
ATOM     14  C   UNL     1       2.189   7.215  17.937  0.00  0.00    +0.000 A 
ATOM     15  N   UNL     1       2.441   5.847  17.786  0.00  0.00    +0.000 N 
ATOM     16  C   UNL     1       5.816   7.118  17.240  0.00  0.00    +0.000 C 
ATOM     17  C   UNL     1       6.524   5.795  16.884  0.00  0.00    +0.000 C 
ATOM     18  N   UNL     1       5.781   4.645  17.494  0.00  0.00    +0.000 N 
ENDROOT
BRANCH  15  19
ATOM     19  C   UNL     1       1.444   4.821  18.034  0.00  0.00    +0.000 C 
BRANCH  19  20
ATOM     20  C   UNL     1       1.554   4.233  19.416  0.00  0.00    +0.000 A 
ATOM     21  C   UNL     1       2.178   4.898  20.489  0.00  0.00    +0.000 A 
ATOM     22  C   UNL     1       2.313   4.283  21.728  0.00  0.00    +0.000 A 
ATOM     23  C   UNL     1       1.818   2.996  21.913  0.00  0.00    +0.000 A 
ATOM     24  C   UNL     1       1.181   2.331  20.864  0.00  0.00    +0.000 A 
ATOM     25  C   UNL     1       1.034   2.947  19.619  0.00  0.00    +0.000 A 
ENDBRANCH  19  20
ENDBRANCH  15  19
BRANCH  17  26
ATOM     26  C   UNL     1       6.521   5.630  15.338  0.00  0.00    +0.000 C 
BRANCH  26  27
ATOM     27  O   UNL     1       7.457   4.729  14.770  0.00  0.00    +0.000 OA
BRANCH  27  28
ATOM     28  C   UNL     1       7.518   4.995  13.354  0.00  0.00    +0.000 C 
BRANCH  28  29
ATOM     29  C   UNL     1       6.737   3.960  12.607  0.00  0.00    +0.000 A 
ATOM     30  C   UNL     1       7.419   2.976  11.888  0.00  0.00    +0.000 A 
ATOM     31  C   UNL     1       6.711   2.000  11.191  0.00  0.00    +0.000 A 
ATOM     32  C   UNL     1       5.312   2.004  11.190  0.00  0.00    +0.000 A 
ATOM     33  C   UNL     1       4.630   2.967  11.938  0.00  0.00    +0.000 A 
ATOM     34  C   UNL     1       5.340   3.955  12.629  0.00  0.00    +0.000 A 
ENDBRANCH  28  29
ENDBRANCH  27  28
ENDBRANCH  26  27
ENDBRANCH  17  26
TORSDOF 6
ENDMDL
MODEL 6
REMARK VINA RESULT:      -7.6      1.198      1.844
REMARK  Name = 
REMARK  6 active torsions:
REMARK  status: ('A' for Active; 'I' for Inactive)
REMARK    1  A    between atoms: N_15  and  C_16
REMARK    2  A    between atoms: C_16  and  C_17
REMARK    3  A    between atoms: C_24  and  C_25
REMARK    4  A    between atoms: C_25  and  O_26
REMARK    5  A    between atoms: O_26  and  C_27
REMARK    6  A    between atoms: C_27  and  C_28
REMARK                            x       y       z     vdW  Elec       q    Type
REMARK                         _______ _______ _______ _____ _____    ______ ____
ROOT
ATOM      1  O   UNL     1       1.410  13.326  18.077  0.00  0.00    +0.000 OA
ATOM      2  C   UNL     1       1.042  13.366  19.245  0.00  0.00    +0.000 C 
ATOM      3  C   UNL     1       0.662  14.701  19.872  0.00  0.00    +0.000 C 
ATOM      4  C   UNL     1       0.322  14.798  21.162  0.00  0.00    +0.000 C 
ATOM      5  C   UNL     1       0.165  13.551  21.942  0.00  0.00    +0.000 C 
ATOM      6  C   UNL     1      -0.204  12.385  21.035  0.00  0.00    +0.000 C 
ATOM      7  C   UNL     1      -1.380  12.091  20.104  0.00  0.00    +0.000 A 
ATOM      8  C   UNL     1      -1.302  11.092  19.119  0.00  0.00    +0.000 A 
ATOM      9  C   UNL     1      -2.575  10.894  18.549  0.00  0.00    +0.000 A 
ATOM     10  C   UNL     1      -3.095   9.950  17.640  0.00  0.00    +0.000 A 
ATOM     11  C   UNL     1      -4.417  10.061  17.214  0.00  0.00    +0.000 A 
ATOM     12  C   UNL     1      -5.202  11.120  17.657  0.00  0.00    +0.000 A 
ATOM     13  C   UNL     1      -4.701  12.074  18.556  0.00  0.00    +0.000 A 
ATOM     14  C   UNL     1      -3.378  11.931  19.016  0.00  0.00    +0.000 A 
ATOM     15  N   UNL     1      -2.618  12.666  19.932  0.00  0.00    +0.000 N 
ATOM     16  C   UNL     1      -0.023  10.413  18.711  0.00  0.00    +0.000 C 
ATOM     17  C   UNL     1       1.132  10.839  19.639  0.00  0.00    +0.000 C 
ATOM     18  N   UNL     1       0.915  12.249  20.100  0.00  0.00    +0.000 N 
ENDROOT
BRANCH  15  19
ATOM     19  C   UNL     1      -3.130  13.825  20.642  0.00  0.00    +0.000 C 
BRANCH  19  20
ATOM     20  C   UNL     1      -3.880  13.450  21.891  0.00  0.00    +0.000 A 
ATOM     21  C   UNL     1      -3.255  12.914  23.034  0.00  0.00    +0.000 A 
ATOM     22  C   UNL     1      -4.002  12.522  24.138  0.00  0.00    +0.000 A 
ATOM     23  C   UNL     1      -5.385  12.666  24.118  0.00  0.00    +0.000 A 
ATOM     24  C   UNL     1      -6.017  13.213  23.000  0.00  0.00    +0.000 A 
ATOM     25  C   UNL     1      -5.272  13.618  21.890  0.00  0.00    +0.000 A 
ENDBRANCH  19  20
ENDBRANCH  15  19
BRANCH  17  26
ATOM     26  C   UNL     1       1.144   9.903  20.880  0.00  0.00    +0.000 C 
BRANCH  26  27
ATOM     27  O   UNL     1       0.656   8.582  20.712  0.00  0.00    +0.000 OA
BRANCH  27  28
ATOM     28  C   UNL     1       1.679   7.675  21.175  0.00  0.00    +0.000 C 
BRANCH  28  29
ATOM     29  C   UNL     1       2.017   6.695  20.097  0.00  0.00    +0.000 A 
ATOM     30  C   UNL     1       1.831   5.330  20.331  0.00  0.00    +0.000 A 
ATOM     31  C   UNL     1       2.134   4.402  19.338  0.00  0.00    +0.000 A 
ATOM     32  C   UNL     1       2.641   4.823  18.105  0.00  0.00    +0.000 A 
ATOM     33  C   UNL     1       2.794   6.189  17.858  0.00  0.00    +0.000 A 
ATOM     34  C   UNL     1       2.501   7.123  18.858  0.00  0.00    +0.000 A 
ENDBRANCH  28  29
ENDBRANCH  27  28
ENDBRANCH  26  27
ENDBRANCH  17  26
TORSDOF 6
ENDMDL
MODEL 7
REMARK VINA RESULT:      -7.6      1.035      1.067
REMARK  Name = 
REMARK  6 active torsions:
REMARK  status: ('A' for Active; 'I' for Inactive)
REMARK    1  A    between atoms: N_15  and  C_16
REMARK    2  A    between atoms: C_16  and  C_17
REMARK    3  A    between atoms: C_24  and  C_25
REMARK    4  A    between atoms: C_25  and  O_26
REMARK    5  A    between atoms: O_26  and  C_27
REMARK    6  A    between atoms: C_27  and  C_28
REMARK                            x       y       z     vdW  Elec       q    Type
REMARK                         _______ _______ _______ _____ _____    ______ ____
ROOT
ATOM      1  O   UNL     1       1.734  12.774  18.171  0.00  0.00    +0.000 OA
ATOM      2  C   UNL     1       1.311  12.791  19.320  0.00  0.00    +0.000 C 
ATOM      3  C   UNL     1       1.021  14.126  19.997  0.00  0.00    +0.000 C 
ATOM      4  C   UNL     1       0.625  14.192  21.273  0.00  0.00    +0.000 C 
ATOM      5  C   UNL     1       0.315  12.930  21.979  0.00  0.00    +0.000 C 
ATOM      6  C   UNL     1      -0.111  11.847  20.996  0.00  0.00    +0.000 C 
ATOM      7  C   UNL     1      -1.259  11.708  19.996  0.00  0.00    +0.000 A 
ATOM      8  C   UNL     1      -1.220  10.755  18.966  0.00  0.00    +0.000 A 
ATOM      9  C   UNL     1      -2.475  10.703  18.326  0.00  0.00    +0.000 A 
ATOM     10  C   UNL     1      -3.030   9.856  17.346  0.00  0.00    +0.000 A 
ATOM     11  C   UNL     1      -4.313  10.110  16.865  0.00  0.00    +0.000 A 
ATOM     12  C   UNL     1      -5.021  11.215  17.323  0.00  0.00    +0.000 A 
ATOM     13  C   UNL     1      -4.483  12.075  18.294  0.00  0.00    +0.000 A 
ATOM     14  C   UNL     1      -3.203  11.787  18.808  0.00  0.00    +0.000 A 
ATOM     15  N   UNL     1      -2.429  12.404  19.796  0.00  0.00    +0.000 N 
ATOM     16  C   UNL     1       0.011   9.979  18.584  0.00  0.00    +0.000 C 
ATOM     17  C   UNL     1       1.151  10.252  19.587  0.00  0.00    +0.000 C 
ATOM     18  N   UNL     1       1.039  11.652  20.110  0.00  0.00    +0.000 N 
ENDROOT
BRANCH  15  19
ATOM     19  C   UNL     1      -2.869  13.571  20.540  0.00  0.00    +0.000 C 
BRANCH  19  20
ATOM     20  C   UNL     1      -3.726  13.209  21.723  0.00  0.00    +0.000 A 
ATOM     21  C   UNL     1      -5.132  13.296  21.713  0.00  0.00    +0.000 A 
ATOM     22  C   UNL     1      -5.873  13.014  22.854  0.00  0.00    +0.000 A 
ATOM     23  C   UNL     1      -5.218  12.635  24.021  0.00  0.00    +0.000 A 
ATOM     24  C   UNL     1      -3.827  12.527  24.043  0.00  0.00    +0.000 A 
ATOM     25  C   UNL     1      -3.076  12.800  22.897  0.00  0.00    +0.000 A 
ENDBRANCH  19  20
ENDBRANCH  15  19
BRANCH  17  26
ATOM     26  C   UNL     1       1.013   9.261  20.777  0.00  0.00    +0.000 C 
BRANCH  26  27
ATOM     27  O   UNL     1       0.912   7.879  20.474  0.00  0.00    +0.000 OA
BRANCH  27  28
ATOM     28  C   UNL     1       2.172   7.461  19.910  0.00  0.00    +0.000 C 
BRANCH  28  29
ATOM     29  C   UNL     1       2.317   5.976  20.031  0.00  0.00    +0.000 A 
ATOM     30  C   UNL     1       3.475   5.361  19.549  0.00  0.00    +0.000 A 
ATOM     31  C   UNL     1       3.632   3.982  19.658  0.00  0.00    +0.000 A 
ATOM     32  C   UNL     1       2.628   3.197  20.235  0.00  0.00    +0.000 A 
ATOM     33  C   UNL     1       1.486   3.816  20.749  0.00  0.00    +0.000 A 
ATOM     34  C   UNL     1       1.321   5.201  20.630  0.00  0.00    +0.000 A 
ENDBRANCH  28  29
ENDBRANCH  27  28
ENDBRANCH  26  27
ENDBRANCH  17  26
TORSDOF 6
ENDMDL
MODEL 8
REMARK VINA RESULT:      -7.5      4.818      8.770
REMARK  Name = 
REMARK  6 active torsions:
REMARK  status: ('A' for Active; 'I' for Inactive)
REMARK    1  A    between atoms: N_15  and  C_16
REMARK    2  A    between atoms: C_16  and  C_17
REMARK    3  A    between atoms: C_24  and  C_25
REMARK    4  A    between atoms: C_25  and  O_26
REMARK    5  A    between atoms: O_26  and  C_27
REMARK    6  A    between atoms: C_27  and  C_28
REMARK                            x       y       z     vdW  Elec       q    Type
REMARK                         _______ _______ _______ _____ _____    ______ ____
ROOT
ATOM      1  O   UNL     1       6.391   4.981  19.687  0.00  0.00    +0.000 OA
ATOM      2  C   UNL     1       5.760   4.369  18.834  0.00  0.00    +0.000 C 
ATOM      3  C   UNL     1       4.850   3.219  19.249  0.00  0.00    +0.000 C 
ATOM      4  C   UNL     1       4.199   2.480  18.344  0.00  0.00    +0.000 C 
ATOM      5  C   UNL     1       4.250   2.900  16.927  0.00  0.00    +0.000 C 
ATOM      6  C   UNL     1       4.485   4.400  16.811  0.00  0.00    +0.000 C 
ATOM      7  C   UNL     1       3.715   5.637  17.273  0.00  0.00    +0.000 A 
ATOM      8  C   UNL     1       4.329   6.898  17.340  0.00  0.00    +0.000 A 
ATOM      9  C   UNL     1       3.353   7.883  17.595  0.00  0.00    +0.000 A 
ATOM     10  C   UNL     1       3.383   9.292  17.625  0.00  0.00    +0.000 A 
ATOM     11  C   UNL     1       2.232   9.995  17.977  0.00  0.00    +0.000 A 
ATOM     12  C   UNL     1       1.078   9.306  18.332  0.00  0.00    +0.000 A 
ATOM     13  C   UNL     1       1.031   7.904  18.316  0.00  0.00    +0.000 A 
ATOM     14  C   UNL     1       2.185   7.200  17.917  0.00  0.00    +0.000 A 
ATOM     15  N   UNL     1       2.439   5.834  17.749  0.00  0.00    +0.000 N 
ATOM     16  C   UNL     1       5.813   7.117  17.227  0.00  0.00    +0.000 C 
ATOM     17  C   UNL     1       6.525   5.800  16.856  0.00  0.00    +0.000 C 
ATOM     18  N   UNL     1       5.781   4.641  17.448  0.00  0.00    +0.000 N 
ENDROOT
BRANCH  15  19
ATOM     19  C   UNL     1       1.442   4.804  17.980  0.00  0.00    +0.000 C 
BRANCH  19  20
ATOM     20  C   UNL     1       1.586   4.158  19.332  0.00  0.00    +0.000 A 
ATOM     21  C   UNL     1       1.115   2.862  19.621  0.00  0.00    +0.000 A 
ATOM     22  C   UNL     1       1.213   2.336  20.903  0.00  0.00    +0.000 A 
ATOM     23  C   UNL     1       1.790   3.097  21.915  0.00  0.00    +0.000 A 
ATOM     24  C   UNL     1       2.279   4.376  21.640  0.00  0.00    +0.000 A 
ATOM     25  C   UNL     1       2.192   4.907  20.351  0.00  0.00    +0.000 A 
ENDBRANCH  19  20
ENDBRANCH  15  19
BRANCH  17  26
ATOM     26  C   UNL     1       6.525   5.656  15.308  0.00  0.00    +0.000 C 
BRANCH  26  27
ATOM     27  O   UNL     1       7.372   4.670  14.739  0.00  0.00    +0.000 OA
BRANCH  27  28
ATOM     28  C   UNL     1       7.465   4.936  13.324  0.00  0.00    +0.000 C 
BRANCH  28  29
ATOM     29  C   UNL     1       6.742   3.874  12.557  0.00  0.00    +0.000 A 
ATOM     30  C   UNL     1       5.346   3.888  12.518  0.00  0.00    +0.000 A 
ATOM     31  C   UNL     1       4.656   2.912  11.805  0.00  0.00    +0.000 A 
ATOM     32  C   UNL     1       5.349   1.900  11.134  0.00  0.00    +0.000 A 
ATOM     33  C   UNL     1       6.746   1.905  11.144  0.00  0.00    +0.000 A 
ATOM     34  C   UNL     1       7.442   2.879  11.869  0.00  0.00    +0.000 A 
ENDBRANCH  28  29
ENDBRANCH  27  28
ENDBRANCH  26  27
ENDBRANCH  17  26
TORSDOF 6
ENDMDL
MODEL 9
REMARK VINA RESULT:      -7.4      1.251      1.651
REMARK  Name = 
REMARK  6 active torsions:
REMARK  status: ('A' for Active; 'I' for Inactive)
REMARK    1  A    between atoms: N_15  and  C_16
REMARK    2  A    between atoms: C_16  and  C_17
REMARK    3  A    between atoms: C_24  and  C_25
REMARK    4  A    between atoms: C_25  and  O_26
REMARK    5  A    between atoms: O_26  and  C_27
REMARK    6  A    between atoms: C_27  and  C_28
REMARK                            x       y       z     vdW  Elec       q    Type
REMARK                         _______ _______ _______ _____ _____    ______ ____
ROOT
ATOM      1  O   UNL     1       2.005  12.336  17.787  0.00  0.00    +0.000 OA
ATOM      2  C   UNL     1       1.604  12.362  18.945  0.00  0.00    +0.000 C 
ATOM      3  C   UNL     1       1.429  13.701  19.653  0.00  0.00    +0.000 C 
ATOM      4  C   UNL     1       1.061  13.771  20.937  0.00  0.00    +0.000 C 
ATOM      5  C   UNL     1       0.669  12.521  21.624  0.00  0.00    +0.000 C 
ATOM      6  C   UNL     1       0.145  11.494  20.629  0.00  0.00    +0.000 C 
ATOM      7  C   UNL     1      -1.027  11.463  19.649  0.00  0.00    +0.000 A 
ATOM      8  C   UNL     1      -1.080  10.530  18.600  0.00  0.00    +0.000 A 
ATOM      9  C   UNL     1      -2.345  10.587  17.983  0.00  0.00    +0.000 A 
ATOM     10  C   UNL     1      -2.980   9.804  16.998  0.00  0.00    +0.000 A 
ATOM     11  C   UNL     1      -4.248  10.164  16.545  0.00  0.00    +0.000 A 
ATOM     12  C   UNL     1      -4.862  11.310  17.039  0.00  0.00    +0.000 A 
ATOM     13  C   UNL     1      -4.244  12.107  18.015  0.00  0.00    +0.000 A 
ATOM     14  C   UNL     1      -2.981  11.712  18.499  0.00  0.00    +0.000 A 
ATOM     15  N   UNL     1      -2.144  12.249  19.484  0.00  0.00    +0.000 N 
ATOM     16  C   UNL     1       0.083   9.672  18.179  0.00  0.00    +0.000 C 
ATOM     17  C   UNL     1       1.257   9.837  19.166  0.00  0.00    +0.000 C 
ATOM     18  N   UNL     1       1.261  11.231  19.717  0.00  0.00    +0.000 N 
ENDROOT
BRANCH  15  19
ATOM     19  C   UNL     1      -2.482  13.430  20.258  0.00  0.00    +0.000 C 
BRANCH  19  20
ATOM     20  C   UNL     1      -3.358  13.113  21.440  0.00  0.00    +0.000 A 
ATOM     21  C   UNL     1      -4.758  13.272  21.427  0.00  0.00    +0.000 A 
ATOM     22  C   UNL     1      -5.514  13.029  22.567  0.00  0.00    +0.000 A 
ATOM     23  C   UNL     1      -4.882  12.615  23.735  0.00  0.00    +0.000 A 
ATOM     24  C   UNL     1      -3.498  12.434  23.758  0.00  0.00    +0.000 A 
ATOM     25  C   UNL     1      -2.733  12.669  22.614  0.00  0.00    +0.000 A 
ENDBRANCH  19  20
ENDBRANCH  15  19
BRANCH  17  26
ATOM     26  C   UNL     1       1.065   8.835  20.339  0.00  0.00    +0.000 C 
BRANCH  26  27
ATOM     27  O   UNL     1       2.133   7.948  20.628  0.00  0.00    +0.000 OA
BRANCH  27  28
ATOM     28  C   UNL     1       1.910   6.735  19.881  0.00  0.00    +0.000 C 
BRANCH  28  29
ATOM     29  C   UNL     1       3.129   6.395  19.083  0.00  0.00    +0.000 A 
ATOM     30  C   UNL     1       3.337   7.022  17.852  0.00  0.00    +0.000 A 
ATOM     31  C   UNL     1       4.469   6.724  17.097  0.00  0.00    +0.000 A 
ATOM     32  C   UNL     1       5.399   5.786  17.555  0.00  0.00    +0.000 A 
ATOM     33  C   UNL     1       5.210   5.187  18.802  0.00  0.00    +0.000 A 
ATOM     34  C   UNL     1       4.068   5.475  19.557  0.00  0.00    +0.000 A 
ENDBRANCH  28  29
ENDBRANCH  27  28
ENDBRANCH  26  27
ENDBRANCH  17  26
TORSDOF 6
ENDMDL
