MODEL 1
REMARK VINA RESULT:      -8.5      0.000      0.000
REMARK  Name = 
REMARK  4 active torsions:
REMARK  status: ('A' for Active; 'I' for Inactive)
REMARK    1  A    between atoms: C_1  and  N_2
REMARK    2  A    between atoms: C_9  and  C_10
REMARK    3  A    between atoms: C_10  and  C_11
REMARK    4  A    between atoms: C_16  and  C_17
REMARK                            x       y       z     vdW  Elec       q    Type
REMARK                         _______ _______ _______ _____ _____    ______ ____
ROOT
ATOM      1  C   UNL     1       2.800   5.779  19.553  0.00  0.00    +0.000 C 
ATOM      2  O   UNL     1       2.131   5.791  20.592  0.00  0.00    +0.000 OA
ATOM      3  N   UNL     1       2.926   6.790  18.636  0.00  0.00    +0.000 N 
ATOM      4  C   UNL     1       2.286   7.977  18.839  0.00  0.00    +0.000 A 
ATOM      5  N   UNL     1       1.675   8.385  19.917  0.00  0.00    +0.000 NA
ATOM      6  C   UNL     1       0.988   9.556  19.666  0.00  0.00    +0.000 A 
ATOM      7  C   UNL     1       1.187  10.062  18.394  0.00  0.00    +0.000 A 
ATOM      8  S   UNL     1       2.253   9.039  17.508  0.00  0.00    +0.000 S 
ATOM      9  H   UNL     1       3.292   6.604  17.708  0.00  0.00    +0.000 HD
ENDROOT
BRANCH   6  10
ATOM     10  C   UNL     1       0.131  10.132  20.699  0.00  0.00    +0.000 A 
ATOM     11  C   UNL     1      -0.658  11.256  20.389  0.00  0.00    +0.000 A 
ATOM     12  C   UNL     1      -1.501  11.830  21.343  0.00  0.00    +0.000 A 
ATOM     13  C   UNL     1      -1.558  11.290  22.623  0.00  0.00    +0.000 A 
ATOM     14 CL   UNL     1      -2.598  11.984  23.804  0.00  0.00    +0.000 Cl
ATOM     15  C   UNL     1      -0.774  10.187  22.955  0.00  0.00    +0.000 A 
ATOM     16  C   UNL     1       0.068   9.611  21.998  0.00  0.00    +0.000 A 
ENDBRANCH   6  10
BRANCH   1  17
ATOM     17  C   UNL     1       3.586   4.537  19.202  0.00  0.00    +0.000 C 
BRANCH  17  26
ATOM     18  C   UNL     1       5.287   4.100  13.857  0.00  0.00    +0.000 C 
ATOM     19  N   UNL     1       5.606   4.410  15.228  0.00  0.00    +0.000 N 
ATOM     20  C   UNL     1       6.802   4.933  15.636  0.00  0.00    +0.000 C 
ATOM     21  O   UNL     1       7.777   5.236  14.977  0.00  0.00    +0.000 OA
ATOM     22  C   UNL     1       6.708   5.100  17.085  0.00  0.00    +0.000 A 
ATOM     23  C   UNL     1       7.632   5.600  17.979  0.00  0.00    +0.000 A 
ATOM     24  C   UNL     1       7.245   5.683  19.317  0.00  0.00    +0.000 A 
ATOM     25  C   UNL     1       5.940   5.318  19.711  0.00  0.00    +0.000 A 
ATOM     26  C   UNL     1       4.998   4.840  18.781  0.00  0.00    +0.000 A 
ATOM     27  C   UNL     1       5.442   4.687  17.477  0.00  0.00    +0.000 A 
ATOM     28  C   UNL     1       4.782   4.141  16.286  0.00  0.00    +0.000 C 
ATOM     29  O   UNL     1       3.731   3.525  16.318  0.00  0.00    +0.000 OA
ENDBRANCH  17  26
ENDBRANCH   1  17
TORSDOF 3
ENDMDL
MODEL 2
REMARK VINA RESULT:      -8.4      4.660     10.050
REMARK  Name = 
REMARK  4 active torsions:
REMARK  status: ('A' for Active; 'I' for Inactive)
REMARK    1  A    between atoms: C_1  and  N_2
REMARK    2  A    between atoms: C_9  and  C_10
REMARK    3  A    between atoms: C_10  and  C_11
REMARK    4  A    between atoms: C_16  and  C_17
REMARK                            x       y       z     vdW  Elec       q    Type
REMARK                         _______ _______ _______ _____ _____    ______ ____
ROOT
ATOM      1  C   UNL     1       1.094   9.825  18.614  0.00  0.00    +0.000 C 
ATOM      2  O   UNL     1       1.592   9.782  17.484  0.00  0.00    +0.000 OA
ATOM      3  N   UNL     1       1.225   8.896  19.613  0.00  0.00    +0.000 N 
ATOM      4  C   UNL     1       1.992   7.785  19.415  0.00  0.00    +0.000 A 
ATOM      5  N   UNL     1       2.806   7.539  18.426  0.00  0.00    +0.000 NA
ATOM      6  C   UNL     1       3.248   6.232  18.482  0.00  0.00    +0.000 A 
ATOM      7  C   UNL     1       2.817   5.541  19.600  0.00  0.00    +0.000 A 
ATOM      8  S   UNL     1       1.837   6.558  20.586  0.00  0.00    +0.000 S 
ATOM      9  H   UNL     1       0.591   8.895  20.406  0.00  0.00    +0.000 HD
ENDROOT
BRANCH   6  10
ATOM     10  C   UNL     1       4.077   5.699  17.404  0.00  0.00    +0.000 A 
ATOM     11  C   UNL     1       4.213   4.305  17.269  0.00  0.00    +0.000 A 
ATOM     12  C   UNL     1       4.986   3.752  16.244  0.00  0.00    +0.000 A 
ATOM     13  C   UNL     1       5.638   4.591  15.348  0.00  0.00    +0.000 A 
ATOM     14 CL   UNL     1       6.586   3.921  14.078  0.00  0.00    +0.000 Cl
ATOM     15  C   UNL     1       5.529   5.973  15.473  0.00  0.00    +0.000 A 
ATOM     16  C   UNL     1       4.754   6.526  16.498  0.00  0.00    +0.000 A 
ENDBRANCH   6  10
BRANCH   1  17
ATOM     17  C   UNL     1       0.235  11.009  18.992  0.00  0.00    +0.000 C 
BRANCH  17  26
ATOM     18  C   UNL     1      -3.967  13.952  21.304  0.00  0.00    +0.000 C 
ATOM     19  N   UNL     1      -3.536  12.972  20.338  0.00  0.00    +0.000 N 
ATOM     20  C   UNL     1      -4.353  12.428  19.386  0.00  0.00    +0.000 C 
ATOM     21  O   UNL     1      -5.527  12.645  19.159  0.00  0.00    +0.000 OA
ATOM     22  C   UNL     1      -3.530  11.496  18.618  0.00  0.00    +0.000 A 
ATOM     23  C   UNL     1      -3.864  10.701  17.541  0.00  0.00    +0.000 A 
ATOM     24  C   UNL     1      -2.845   9.935  16.973  0.00  0.00    +0.000 A 
ATOM     25  C   UNL     1      -1.523  10.022  17.461  0.00  0.00    +0.000 A 
ATOM     26  C   UNL     1      -1.192  10.862  18.541  0.00  0.00    +0.000 A 
ATOM     27  C   UNL     1      -2.243  11.543  19.136  0.00  0.00    +0.000 A 
ATOM     28  C   UNL     1      -2.288  12.415  20.315  0.00  0.00    +0.000 C 
ATOM     29  O   UNL     1      -1.370  12.526  21.110  0.00  0.00    +0.000 OA
ENDBRANCH  17  26
ENDBRANCH   1  17
TORSDOF 3
ENDMDL
MODEL 3
REMARK VINA RESULT:      -8.3      4.205      9.681
REMARK  Name = 
REMARK  4 active torsions:
REMARK  status: ('A' for Active; 'I' for Inactive)
REMARK    1  A    between atoms: C_1  and  N_2
REMARK    2  A    between atoms: C_9  and  C_10
REMARK    3  A    between atoms: C_10  and  C_11
REMARK    4  A    between atoms: C_16  and  C_17
REMARK                            x       y       z     vdW  Elec       q    Type
REMARK                         _______ _______ _______ _____ _____    ______ ____
ROOT
ATOM      1  C   UNL     1       1.482   8.170  20.411  0.00  0.00    +0.000 C 
ATOM      2  O   UNL     1       2.022   8.618  19.393  0.00  0.00    +0.000 OA
ATOM      3  N   UNL     1       1.527   6.880  20.873  0.00  0.00    +0.000 N 
ATOM      4  C   UNL     1       2.245   5.938  20.197  0.00  0.00    +0.000 A 
ATOM      5  N   UNL     1       3.085   6.122  19.216  0.00  0.00    +0.000 NA
ATOM      6  C   UNL     1       3.459   4.909  18.671  0.00  0.00    +0.000 A 
ATOM      7  C   UNL     1       2.950   3.811  19.341  0.00  0.00    +0.000 A 
ATOM      8  S   UNL     1       1.983   4.324  20.672  0.00  0.00    +0.000 S 
ATOM      9  H   UNL     1       0.863   6.557  21.569  0.00  0.00    +0.000 HD
ENDROOT
BRANCH   6  10
ATOM     10  C   UNL     1       4.303   4.877  17.479  0.00  0.00    +0.000 A 
ATOM     11  C   UNL     1       4.613   6.084  16.825  0.00  0.00    +0.000 A 
ATOM     12  C   UNL     1       5.427   6.100  15.689  0.00  0.00    +0.000 A 
ATOM     13  C   UNL     1       5.933   4.904  15.191  0.00  0.00    +0.000 A 
ATOM     14 CL   UNL     1       6.941   4.913  13.797  0.00  0.00    +0.000 Cl
ATOM     15  C   UNL     1       5.625   3.698  15.814  0.00  0.00    +0.000 A 
ATOM     16  C   UNL     1       4.812   3.683  16.952  0.00  0.00    +0.000 A 
ENDBRANCH   6  10
BRANCH   1  17
ATOM     17  C   UNL     1       0.668   9.100  21.279  0.00  0.00    +0.000 C 
BRANCH  17  26
ATOM     18  C   UNL     1      -1.459  13.817  23.491  0.00  0.00    +0.000 C 
ATOM     19  N   UNL     1      -1.317  12.948  22.349  0.00  0.00    +0.000 N 
ATOM     20  C   UNL     1      -1.765  13.255  21.094  0.00  0.00    +0.000 C 
ATOM     21  O   UNL     1      -2.329  14.256  20.699  0.00  0.00    +0.000 OA
ATOM     22  C   UNL     1      -1.418  12.120  20.241  0.00  0.00    +0.000 A 
ATOM     23  C   UNL     1      -1.633  11.929  18.892  0.00  0.00    +0.000 A 
ATOM     24  C   UNL     1      -1.146  10.750  18.329  0.00  0.00    +0.000 A 
ATOM     25  C   UNL     1      -0.419   9.826  19.111  0.00  0.00    +0.000 A 
ATOM     26  C   UNL     1      -0.181  10.051  20.480  0.00  0.00    +0.000 A 
ATOM     27  C   UNL     1      -0.753  11.189  21.027  0.00  0.00    +0.000 A 
ATOM     28  C   UNL     1      -0.792  11.686  22.406  0.00  0.00    +0.000 C 
ATOM     29  O   UNL     1      -0.461  11.023  23.374  0.00  0.00    +0.000 OA
ENDBRANCH  17  26
ENDBRANCH   1  17
TORSDOF 3
ENDMDL
MODEL 4
REMARK VINA RESULT:      -8.3      4.363      9.281
REMARK  Name = 
REMARK  4 active torsions:
REMARK  status: ('A' for Active; 'I' for Inactive)
REMARK    1  A    between atoms: C_1  and  N_2
REMARK    2  A    between atoms: C_9  and  C_10
REMARK    3  A    between atoms: C_10  and  C_11
REMARK    4  A    between atoms: C_16  and  C_17
REMARK                            x       y       z     vdW  Elec       q    Type
REMARK                         _______ _______ _______ _____ _____    ______ ____
ROOT
ATOM      1  C   UNL     1       1.437   8.565  19.959  0.00  0.00    +0.000 C 
ATOM      2  O   UNL     1       1.905   8.893  18.863  0.00  0.00    +0.000 OA
ATOM      3  N   UNL     1       1.588   7.361  20.598  0.00  0.00    +0.000 N 
ATOM      4  C   UNL     1       2.343   6.377  20.028  0.00  0.00    +0.000 A 
ATOM      5  N   UNL     1       3.129   6.469  18.991  0.00  0.00    +0.000 NA
ATOM      6  C   UNL     1       3.565   5.217  18.607  0.00  0.00    +0.000 A 
ATOM      7  C   UNL     1       3.159   4.197  19.451  0.00  0.00    +0.000 A 
ATOM      8  S   UNL     1       2.212   4.836  20.740  0.00  0.00    +0.000 S 
ATOM      9  H   UNL     1       0.975   7.101  21.363  0.00  0.00    +0.000 HD
ENDROOT
BRANCH   6  10
ATOM     10  C   UNL     1       4.362   5.065  17.393  0.00  0.00    +0.000 A 
ATOM     11  C   UNL     1       4.701   6.209  16.646  0.00  0.00    +0.000 A 
ATOM     12  C   UNL     1       5.472   6.110  15.485  0.00  0.00    +0.000 A 
ATOM     13  C   UNL     1       5.906   4.861  15.054  0.00  0.00    +0.000 A 
ATOM     14 CL   UNL     1       6.863   4.729  13.630  0.00  0.00    +0.000 Cl
ATOM     15  C   UNL     1       5.569   3.715  15.770  0.00  0.00    +0.000 A 
ATOM     16  C   UNL     1       4.799   3.815  16.933  0.00  0.00    +0.000 A 
ENDBRANCH   6  10
BRANCH   1  17
ATOM     17  C   UNL     1       0.595   9.558  20.724  0.00  0.00    +0.000 C 
BRANCH  17  26
ATOM     18  C   UNL     1       1.896  15.003  20.158  0.00  0.00    +0.000 C 
ATOM     19  N   UNL     1       1.042  13.898  19.800  0.00  0.00    +0.000 N 
ATOM     20  C   UNL     1       0.080  13.958  18.830  0.00  0.00    +0.000 C 
ATOM     21  O   UNL     1      -0.232  14.885  18.108  0.00  0.00    +0.000 OA
ATOM     22  C   UNL     1      -0.542  12.637  18.781  0.00  0.00    +0.000 A 
ATOM     23  C   UNL     1      -1.554  12.165  17.970  0.00  0.00    +0.000 A 
ATOM     24  C   UNL     1      -1.918  10.827  18.118  0.00  0.00    +0.000 A 
ATOM     25  C   UNL     1      -1.233   9.992  19.027  0.00  0.00    +0.000 A 
ATOM     26  C   UNL     1      -0.181  10.481  19.825  0.00  0.00    +0.000 A 
ATOM     27  C   UNL     1       0.097  11.834  19.715  0.00  0.00    +0.000 A 
ATOM     28  C   UNL     1       1.041  12.691  20.441  0.00  0.00    +0.000 C 
ATOM     29  O   UNL     1       1.629  12.345  21.451  0.00  0.00    +0.000 OA
ENDBRANCH  17  26
ENDBRANCH   1  17
TORSDOF 3
ENDMDL
MODEL 5
REMARK VINA RESULT:      -8.2      3.131      4.481
REMARK  Name = 
REMARK  4 active torsions:
REMARK  status: ('A' for Active; 'I' for Inactive)
REMARK    1  A    between atoms: C_1  and  N_2
REMARK    2  A    between atoms: C_9  and  C_10
REMARK    3  A    between atoms: C_10  and  C_11
REMARK    4  A    between atoms: C_16  and  C_17
REMARK                            x       y       z     vdW  Elec       q    Type
REMARK                         _______ _______ _______ _____ _____    ______ ____
ROOT
ATOM      1  C   UNL     1       1.362   9.239  18.162  0.00  0.00    +0.000 C 
ATOM      2  O   UNL     1       0.397   9.048  17.414  0.00  0.00    +0.000 OA
ATOM      3  N   UNL     1       1.429  10.102  19.225  0.00  0.00    +0.000 N 
ATOM      4  C   UNL     1       0.340  10.849  19.566  0.00  0.00    +0.000 A 
ATOM      5  N   UNL     1      -0.880  10.738  19.118  0.00  0.00    +0.000 NA
ATOM      6  C   UNL     1      -1.650  11.797  19.557  0.00  0.00    +0.000 A 
ATOM      7  C   UNL     1      -0.992  12.648  20.427  0.00  0.00    +0.000 A 
ATOM      8  S   UNL     1       0.620  12.100  20.687  0.00  0.00    +0.000 S 
ATOM      9  H   UNL     1       2.325  10.368  19.620  0.00  0.00    +0.000 HD
ENDROOT
BRANCH   6  10
ATOM     10  C   UNL     1      -3.023  11.946  19.079  0.00  0.00    +0.000 A 
ATOM     11  C   UNL     1      -3.974  12.570  19.906  0.00  0.00    +0.000 A 
ATOM     12  C   UNL     1      -5.295  12.744  19.483  0.00  0.00    +0.000 A 
ATOM     13  C   UNL     1      -5.678  12.285  18.227  0.00  0.00    +0.000 A 
ATOM     14 CL   UNL     1      -7.299  12.500  17.693  0.00  0.00    +0.000 Cl
ATOM     15  C   UNL     1      -4.756  11.651  17.399  0.00  0.00    +0.000 A 
ATOM     16  C   UNL     1      -3.434  11.480  17.823  0.00  0.00    +0.000 A 
ENDBRANCH   6  10
BRANCH   1  17
ATOM     17  C   UNL     1       2.638   8.465  17.924  0.00  0.00    +0.000 C 
BRANCH  17  26
ATOM     18  C   UNL     1       6.653   4.615  17.085  0.00  0.00    +0.000 C 
ATOM     19  N   UNL     1       5.471   5.024  17.801  0.00  0.00    +0.000 N 
ATOM     20  C   UNL     1       4.951   4.346  18.868  0.00  0.00    +0.000 C 
ATOM     21  O   UNL     1       5.351   3.333  19.409  0.00  0.00    +0.000 OA
ATOM     22  C   UNL     1       3.771   5.093  19.299  0.00  0.00    +0.000 A 
ATOM     23  C   UNL     1       2.896   4.844  20.336  0.00  0.00    +0.000 A 
ATOM     24  C   UNL     1       1.870   5.767  20.541  0.00  0.00    +0.000 A 
ATOM     25  C   UNL     1       1.778   6.928  19.743  0.00  0.00    +0.000 A 
ATOM     26  C   UNL     1       2.697   7.183  18.707  0.00  0.00    +0.000 A 
ATOM     27  C   UNL     1       3.651   6.204  18.476  0.00  0.00    +0.000 A 
ATOM     28  C   UNL     1       4.689   6.088  17.446  0.00  0.00    +0.000 C 
ATOM     29  O   UNL     1       4.745   6.801  16.458  0.00  0.00    +0.000 OA
ENDBRANCH  17  26
ENDBRANCH   1  17
TORSDOF 3
ENDMDL
MODEL 6
REMARK VINA RESULT:      -8.1      5.748     11.377
REMARK  Name = 
REMARK  4 active torsions:
REMARK  status: ('A' for Active; 'I' for Inactive)
REMARK    1  A    between atoms: C_1  and  N_2
REMARK    2  A    between atoms: C_9  and  C_10
REMARK    3  A    between atoms: C_10  and  C_11
REMARK    4  A    between atoms: C_16  and  C_17
REMARK                            x       y       z     vdW  Elec       q    Type
REMARK                         _______ _______ _______ _____ _____    ______ ____
ROOT
ATOM      1  C   UNL     1      -3.537  11.314  18.204  0.00  0.00    +0.000 C 
ATOM      2  O   UNL     1      -3.368  10.091  18.143  0.00  0.00    +0.000 OA
ATOM      3  N   UNL     1      -2.584  12.272  18.437  0.00  0.00    +0.000 N 
ATOM      4  C   UNL     1      -1.280  11.909  18.610  0.00  0.00    +0.000 A 
ATOM      5  N   UNL     1      -0.741  10.739  18.405  0.00  0.00    +0.000 NA
ATOM      6  C   UNL     1       0.557  10.720  18.877  0.00  0.00    +0.000 A 
ATOM      7  C   UNL     1       1.001  11.943  19.349  0.00  0.00    +0.000 A 
ATOM      8  S   UNL     1      -0.243  13.125  19.196  0.00  0.00    +0.000 S 
ATOM      9  H   UNL     1      -2.851  13.212  18.710  0.00  0.00    +0.000 HD
ENDROOT
BRANCH   6  10
ATOM     10  C   UNL     1       1.318   9.474  18.863  0.00  0.00    +0.000 A 
ATOM     11  C   UNL     1       1.327   8.662  20.012  0.00  0.00    +0.000 A 
ATOM     12  C   UNL     1       2.031   7.455  20.038  0.00  0.00    +0.000 A 
ATOM     13  C   UNL     1       2.741   7.052  18.913  0.00  0.00    +0.000 A 
ATOM     14 CL   UNL     1       3.606   5.564  18.930  0.00  0.00    +0.000 Cl
ATOM     15  C   UNL     1       2.758   7.848  17.770  0.00  0.00    +0.000 A 
ATOM     16  C   UNL     1       2.051   9.054  17.745  0.00  0.00    +0.000 A 
ENDBRANCH   6  10
BRANCH   1  17
ATOM     17  C   UNL     1      -4.927  11.873  18.010  0.00  0.00    +0.000 C 
BRANCH  17  26
ATOM     18  C   UNL     1      -5.890  14.953  22.619  0.00  0.00    +0.000 C 
ATOM     19  N   UNL     1      -6.164  13.761  21.857  0.00  0.00    +0.000 N 
ATOM     20  C   UNL     1      -7.131  12.851  22.182  0.00  0.00    +0.000 C 
ATOM     21  O   UNL     1      -7.917  12.856  23.109  0.00  0.00    +0.000 OA
ATOM     22  C   UNL     1      -7.082  11.810  21.157  0.00  0.00    +0.000 A 
ATOM     23  C   UNL     1      -7.852  10.675  21.012  0.00  0.00    +0.000 A 
ATOM     24  C   UNL     1      -7.606   9.876  19.895  0.00  0.00    +0.000 A 
ATOM     25  C   UNL     1      -6.642  10.258  18.936  0.00  0.00    +0.000 A 
ATOM     26  C   UNL     1      -5.887  11.436  19.083  0.00  0.00    +0.000 A 
ATOM     27  C   UNL     1      -6.095  12.161  20.246  0.00  0.00    +0.000 A 
ATOM     28  C   UNL     1      -5.437  13.362  20.769  0.00  0.00    +0.000 C 
ATOM     29  O   UNL     1      -4.407  13.825  20.309  0.00  0.00    +0.000 OA
ENDBRANCH  17  26
ENDBRANCH   1  17
TORSDOF 3
ENDMDL
MODEL 7
REMARK VINA RESULT:      -7.9      2.395      3.852
REMARK  Name = 
REMARK  4 active torsions:
REMARK  status: ('A' for Active; 'I' for Inactive)
REMARK    1  A    between atoms: C_1  and  N_2
REMARK    2  A    between atoms: C_9  and  C_10
REMARK    3  A    between atoms: C_10  and  C_11
REMARK    4  A    between atoms: C_16  and  C_17
REMARK                            x       y       z     vdW  Elec       q    Type
REMARK                         _______ _______ _______ _____ _____    ______ ____
ROOT
ATOM      1  C   UNL     1       1.365   9.273  18.671  0.00  0.00    +0.000 C 
ATOM      2  O   UNL     1       1.530   9.603  19.851  0.00  0.00    +0.000 OA
ATOM      3  N   UNL     1       0.339   9.643  17.842  0.00  0.00    +0.000 N 
ATOM      4  C   UNL     1      -0.634  10.486  18.295  0.00  0.00    +0.000 A 
ATOM      5  N   UNL     1      -0.648  11.169  19.406  0.00  0.00    +0.000 NA
ATOM      6  C   UNL     1      -1.886  11.750  19.597  0.00  0.00    +0.000 A 
ATOM      7  C   UNL     1      -2.764  11.560  18.544  0.00  0.00    +0.000 A 
ATOM      8  S   UNL     1      -2.010  10.632  17.303  0.00  0.00    +0.000 S 
ATOM      9  H   UNL     1       0.158   9.134  16.983  0.00  0.00    +0.000 HD
ENDROOT
BRANCH   6  10
ATOM     10  C   UNL     1      -2.170  12.466  20.838  0.00  0.00    +0.000 A 
ATOM     11  C   UNL     1      -1.275  12.350  21.917  0.00  0.00    +0.000 A 
ATOM     12  C   UNL     1      -1.502  13.028  23.118  0.00  0.00    +0.000 A 
ATOM     13  C   UNL     1      -2.635  13.823  23.254  0.00  0.00    +0.000 A 
ATOM     14 CL   UNL     1      -2.921  14.667  24.725  0.00  0.00    +0.000 Cl
ATOM     15  C   UNL     1      -3.542  13.938  22.203  0.00  0.00    +0.000 A 
ATOM     16  C   UNL     1      -3.312  13.262  21.001  0.00  0.00    +0.000 A 
ENDBRANCH   6  10
BRANCH   1  17
ATOM     17  C   UNL     1       2.375   8.358  18.019  0.00  0.00    +0.000 C 
BRANCH  17  26
ATOM     18  C   UNL     1       6.732   4.928  17.064  0.00  0.00    +0.000 C 
ATOM     19  N   UNL     1       5.518   5.203  17.793  0.00  0.00    +0.000 N 
ATOM     20  C   UNL     1       5.068   4.448  18.840  0.00  0.00    +0.000 C 
ATOM     21  O   UNL     1       5.563   3.462  19.350  0.00  0.00    +0.000 OA
ATOM     22  C   UNL     1       3.824   5.067  19.292  0.00  0.00    +0.000 A 
ATOM     23  C   UNL     1       2.980   4.707  20.323  0.00  0.00    +0.000 A 
ATOM     24  C   UNL     1       1.873   5.523  20.555  0.00  0.00    +0.000 A 
ATOM     25  C   UNL     1       1.670   6.694  19.792  0.00  0.00    +0.000 A 
ATOM     26  C   UNL     1       2.557   7.064  18.764  0.00  0.00    +0.000 A 
ATOM     27  C   UNL     1       3.598   6.187  18.503  0.00  0.00    +0.000 A 
ATOM     28  C   UNL     1       4.639   6.199  17.470  0.00  0.00    +0.000 C 
ATOM     29  O   UNL     1       4.625   6.942  16.504  0.00  0.00    +0.000 OA
ENDBRANCH  17  26
ENDBRANCH   1  17
TORSDOF 3
ENDMDL
MODEL 8
REMARK VINA RESULT:      -7.8      1.556      2.807
REMARK  Name = 
REMARK  4 active torsions:
REMARK  status: ('A' for Active; 'I' for Inactive)
REMARK    1  A    between atoms: C_1  and  N_2
REMARK    2  A    between atoms: C_9  and  C_10
REMARK    3  A    between atoms: C_10  and  C_11
REMARK    4  A    between atoms: C_16  and  C_17
REMARK                            x       y       z     vdW  Elec       q    Type
REMARK                         _______ _______ _______ _____ _____    ______ ____
ROOT
ATOM      1  C   UNL     1       1.972   6.513  20.529  0.00  0.00    +0.000 C 
ATOM      2  O   UNL     1       1.159   6.678  21.445  0.00  0.00    +0.000 OA
ATOM      3  N   UNL     1       2.275   7.392  19.521  0.00  0.00    +0.000 N 
ATOM      4  C   UNL     1       1.664   8.611  19.473  0.00  0.00    +0.000 A 
ATOM      5  N   UNL     1       0.921   9.171  20.387  0.00  0.00    +0.000 NA
ATOM      6  C   UNL     1       0.330  10.316  19.889  0.00  0.00    +0.000 A 
ATOM      7  C   UNL     1       0.736  10.646  18.608  0.00  0.00    +0.000 A 
ATOM      8  S   UNL     1       1.873   9.489  18.029  0.00  0.00    +0.000 S 
ATOM      9  H   UNL     1       2.763   7.077  18.689  0.00  0.00    +0.000 HD
ENDROOT
BRANCH   6  10
ATOM     10  C   UNL     1      -0.642  11.044  20.700  0.00  0.00    +0.000 A 
ATOM     11  C   UNL     1      -0.626  10.886  22.099  0.00  0.00    +0.000 A 
ATOM     12  C   UNL     1      -1.530  11.573  22.913  0.00  0.00    +0.000 A 
ATOM     13  C   UNL     1      -2.467  12.421  22.333  0.00  0.00    +0.000 A 
ATOM     14 CL   UNL     1      -3.581  13.277  23.327  0.00  0.00    +0.000 Cl
ATOM     15  C   UNL     1      -2.511  12.580  20.950  0.00  0.00    +0.000 A 
ATOM     16  C   UNL     1      -1.604  11.894  20.137  0.00  0.00    +0.000 A 
ENDBRANCH   6  10
BRANCH   1  17
ATOM     17  C   UNL     1       2.745   5.217  20.459  0.00  0.00    +0.000 C 
BRANCH  17  26
ATOM     18  C   UNL     1       7.618   4.678  17.698  0.00  0.00    +0.000 C 
ATOM     19  N   UNL     1       6.186   4.511  17.711  0.00  0.00    +0.000 N 
ATOM     20  C   UNL     1       5.481   3.877  16.726  0.00  0.00    +0.000 C 
ATOM     21  O   UNL     1       5.881   3.348  15.708  0.00  0.00    +0.000 OA
ATOM     22  C   UNL     1       4.076   3.921  17.128  0.00  0.00    +0.000 A 
ATOM     23  C   UNL     1       2.959   3.416  16.496  0.00  0.00    +0.000 A 
ATOM     24  C   UNL     1       1.734   3.570  17.146  0.00  0.00    +0.000 A 
ATOM     25  C   UNL     1       1.667   4.174  18.420  0.00  0.00    +0.000 A 
ATOM     26  C   UNL     1       2.821   4.657  19.066  0.00  0.00    +0.000 A 
ATOM     27  C   UNL     1       4.008   4.565  18.356  0.00  0.00    +0.000 A 
ATOM     28  C   UNL     1       5.362   5.038  18.667  0.00  0.00    +0.000 C 
ATOM     29  O   UNL     1       5.618   5.801  19.583  0.00  0.00    +0.000 OA
ENDBRANCH  17  26
ENDBRANCH   1  17
TORSDOF 3
ENDMDL
MODEL 9
REMARK VINA RESULT:      -7.8      4.922     10.543
REMARK  Name = 
REMARK  4 active torsions:
REMARK  status: ('A' for Active; 'I' for Inactive)
REMARK    1  A    between atoms: C_1  and  N_2
REMARK    2  A    between atoms: C_9  and  C_10
REMARK    3  A    between atoms: C_10  and  C_11
REMARK    4  A    between atoms: C_16  and  C_17
REMARK                            x       y       z     vdW  Elec       q    Type
REMARK                         _______ _______ _______ _____ _____    ______ ____
ROOT
ATOM      1  C   UNL     1      -1.151  10.838  18.418  0.00  0.00    +0.000 C 
ATOM      2  O   UNL     1      -0.909   9.953  17.590  0.00  0.00    +0.000 OA
ATOM      3  N   UNL     1      -0.664  10.933  19.696  0.00  0.00    +0.000 N 
ATOM      4  C   UNL     1       0.205   9.992  20.166  0.00  0.00    +0.000 A 
ATOM      5  N   UNL     1       0.813   9.055  19.492  0.00  0.00    +0.000 NA
ATOM      6  C   UNL     1       1.454   8.185  20.352  0.00  0.00    +0.000 A 
ATOM      7  C   UNL     1       1.388   8.560  21.683  0.00  0.00    +0.000 A 
ATOM      8  S   UNL     1       0.500  10.027  21.843  0.00  0.00    +0.000 S 
ATOM      9  H   UNL     1      -1.103  11.549  20.372  0.00  0.00    +0.000 HD
ENDROOT
BRANCH   6  10
ATOM     10  C   UNL     1       2.102   6.987  19.825  0.00  0.00    +0.000 A 
ATOM     11  C   UNL     1       1.987   5.777  20.532  0.00  0.00    +0.000 A 
ATOM     12  C   UNL     1       2.581   4.604  20.057  0.00  0.00    +0.000 A 
ATOM     13  C   UNL     1       3.304   4.634  18.869  0.00  0.00    +0.000 A 
ATOM     14 CL   UNL     1       4.032   3.195  18.271  0.00  0.00    +0.000 Cl
ATOM     15  C   UNL     1       3.443   5.826  18.162  0.00  0.00    +0.000 A 
ATOM     16  C   UNL     1       2.846   6.998  18.637  0.00  0.00    +0.000 A 
ENDBRANCH   6  10
BRANCH   1  17
ATOM     17  C   UNL     1      -2.081  11.965  18.035  0.00  0.00    +0.000 C 
BRANCH  17  26
ATOM     18  C   UNL     1      -4.128  14.546  22.597  0.00  0.00    +0.000 C 
ATOM     19  N   UNL     1      -4.339  13.635  21.500  0.00  0.00    +0.000 N 
ATOM     20  C   UNL     1      -5.549  13.082  21.188  0.00  0.00    +0.000 C 
ATOM     21  O   UNL     1      -6.630  13.235  21.723  0.00  0.00    +0.000 OA
ATOM     22  C   UNL     1      -5.329  12.235  20.017  0.00  0.00    +0.000 A 
ATOM     23  C   UNL     1      -6.222  11.466  19.300  0.00  0.00    +0.000 A 
ATOM     24  C   UNL     1      -5.729  10.788  18.185  0.00  0.00    +0.000 A 
ATOM     25  C   UNL     1      -4.381  10.936  17.792  0.00  0.00    +0.000 A 
ATOM     26  C   UNL     1      -3.489  11.749  18.517  0.00  0.00    +0.000 A 
ATOM     27  C   UNL     1      -3.989  12.339  19.667  0.00  0.00    +0.000 A 
ATOM     28  C   UNL     1      -3.340  13.158  20.696  0.00  0.00    +0.000 C 
ATOM     29  O   UNL     1      -2.132  13.292  20.792  0.00  0.00    +0.000 OA
ENDBRANCH  17  26
ENDBRANCH   1  17
TORSDOF 3
ENDMDL
