MODEL 1
REMARK VINA RESULT:      -8.3      0.000      0.000
REMARK  Name = 
REMARK  9 active torsions:
REMARK  status: ('A' for Active; 'I' for Inactive)
REMARK    1  A    between atoms: N_1  and  C_2
REMARK    2  A    between atoms: C_8  and  S_9
REMARK    3  A    between atoms: S_9  and  C_10
REMARK    4  A    between atoms: N_21  and  C_22
REMARK    5  A    between atoms: C_24  and  O_25
REMARK    6  A    between atoms: C_26  and  C_27
REMARK    7  A    between atoms: C_27  and  O_28
REMARK    8  A    between atoms: O_28  and  S_29
REMARK    9  A    between atoms: S_29  and  N_30
REMARK                            x       y       z     vdW  Elec       q    Type
REMARK                         _______ _______ _______ _____ _____    ______ ____
ROOT
ATOM      1  C   UNL     1       2.300   9.327  18.069  0.00  0.00    +0.000 A 
ATOM      2  N   UNL     1       3.011   8.732  17.089  0.00  0.00    +0.000 NA
ATOM      3  C   UNL     1       3.298   7.425  17.201  0.00  0.00    +0.000 A 
ATOM      4  N   UNL     1       2.955   6.591  18.201  0.00  0.00    +0.000 NA
ATOM      5  C   UNL     1       2.281   7.224  19.170  0.00  0.00    +0.000 A 
ATOM      6  C   UNL     1       1.924   8.565  19.180  0.00  0.00    +0.000 A 
ATOM      7  C   UNL     1       1.239   8.734  20.394  0.00  0.00    +0.000 A 
ATOM      8  N   UNL     1       1.130   7.600  21.100  0.00  0.00    +0.000 NA
ATOM      9  N   UNL     1       1.806   6.688  20.349  0.00  0.00    +0.000 N 
ENDROOT
BRANCH   9  10
ATOM     10  C   UNL     1       1.841   5.292  20.779  0.00  0.00    +0.000 C 
ATOM     11  C   UNL     1       1.031   4.278  19.980  0.00  0.00    +0.000 C 
ATOM     12  C   UNL     1       1.803   2.998  20.178  0.00  0.00    +0.000 C 
ATOM     13  C   UNL     1       3.252   3.477  20.223  0.00  0.00    +0.000 C 
ATOM     14  O   UNL     1       3.210   4.808  20.785  0.00  0.00    +0.000 OA
BRANCH  12  15
ATOM     15  O   UNL     1       1.402   2.397  21.408  0.00  0.00    +0.000 OA
ATOM     16  H   UNL     1       1.464   1.429  21.332  0.00  0.00    +0.000 HD
ENDBRANCH  12  15
BRANCH  13  17
ATOM     17  C   UNL     1       3.901   3.543  18.837  0.00  0.00    +0.000 C 
BRANCH  17  18
ATOM     18  O   UNL     1       5.309   3.627  18.991  0.00  0.00    +0.000 OA
BRANCH  18  19
ATOM     19  S   UNL     1       6.084   4.718  18.050  0.00  0.00    +0.000 S 
ATOM     20  O   UNL     1       5.479   4.670  16.743  0.00  0.00    +0.000 OA
ATOM     21  O   UNL     1       6.230   5.936  18.801  0.00  0.00    +0.000 OA
BRANCH  19  22
ATOM     22  N   UNL     1       7.602   4.038  17.907  0.00  0.00    +0.000 NA
ATOM     23  H   UNL     1       7.717   3.603  16.995  0.00  0.00    +0.000 HD
ATOM     24  H   UNL     1       7.794   3.418  18.690  0.00  0.00    +0.000 HD
ENDBRANCH  19  22
ENDBRANCH  18  19
ENDBRANCH  17  18
ENDBRANCH  13  17
ENDBRANCH   9  10
BRANCH   1  25
ATOM     25  N   UNL     1       1.985  10.662  17.890  0.00  0.00    +0.000 N 
ATOM     26  H   UNL     1       2.481  11.070  17.108  0.00  0.00    +0.000 HD
ATOM     27  H   UNL     1       1.903  11.224  18.728  0.00  0.00    +0.000 HD
ENDBRANCH   1  25
BRANCH   7  28
ATOM     28  S   UNL     1       0.583  10.229  21.011  0.00  0.00    +0.000 S 
BRANCH  28  29
ATOM     29  C   UNL     1      -0.745  10.621  19.881  0.00  0.00    +0.000 A 
ATOM     30  C   UNL     1      -1.131   9.764  18.846  0.00  0.00    +0.000 A 
ATOM     31  C   UNL     1      -2.151  10.179  18.009  0.00  0.00    +0.000 A 
ATOM     32  C   UNL     1      -2.951  11.287  18.311  0.00  0.00    +0.000 A 
ATOM     33  C   UNL     1      -2.556  12.173  19.286  0.00  0.00    +0.000 A 
ATOM     34  C   UNL     1      -1.417  11.855  20.026  0.00  0.00    +0.000 A 
ATOM     35  F   UNL     1      -0.923  12.798  20.845  0.00  0.00    +0.000 F 
ATOM     36  C   UNL     1      -4.013  11.436  17.266  0.00  0.00    +0.000 C 
ATOM     37  C   UNL     1      -3.149  11.012  16.078  0.00  0.00    +0.000 C 
ATOM     38  C   UNL     1      -2.405   9.755  16.587  0.00  0.00    +0.000 C 
ENDBRANCH  28  29
ENDBRANCH   7  28
TORSDOF 9
ENDMDL
MODEL 2
REMARK VINA RESULT:      -8.2      3.254      5.133
REMARK  Name = 
REMARK  9 active torsions:
REMARK  status: ('A' for Active; 'I' for Inactive)
REMARK    1  A    between atoms: N_1  and  C_2
REMARK    2  A    between atoms: C_8  and  S_9
REMARK    3  A    between atoms: S_9  and  C_10
REMARK    4  A    between atoms: N_21  and  C_22
REMARK    5  A    between atoms: C_24  and  O_25
REMARK    6  A    between atoms: C_26  and  C_27
REMARK    7  A    between atoms: C_27  and  O_28
REMARK    8  A    between atoms: O_28  and  S_29
REMARK    9  A    between atoms: S_29  and  N_30
REMARK                            x       y       z     vdW  Elec       q    Type
REMARK                         _______ _______ _______ _____ _____    ______ ____
ROOT
ATOM      1  C   UNL     1       1.405   3.467  19.260  0.00  0.00    +0.000 A 
ATOM      2  N   UNL     1       1.522   2.428  18.408  0.00  0.00    +0.000 NA
ATOM      3  C   UNL     1       2.492   2.460  17.480  0.00  0.00    +0.000 A 
ATOM      4  N   UNL     1       3.404   3.430  17.276  0.00  0.00    +0.000 NA
ATOM      5  C   UNL     1       3.235   4.458  18.118  0.00  0.00    +0.000 A 
ATOM      6  C   UNL     1       2.276   4.552  19.116  0.00  0.00    +0.000 A 
ATOM      7  C   UNL     1       2.514   5.802  19.711  0.00  0.00    +0.000 A 
ATOM      8  N   UNL     1       3.554   6.452  19.172  0.00  0.00    +0.000 NA
ATOM      9  N   UNL     1       3.965   5.627  18.170  0.00  0.00    +0.000 N 
ENDROOT
BRANCH   9  10
ATOM     10  C   UNL     1       5.149   5.983  17.390  0.00  0.00    +0.000 C 
ATOM     11  C   UNL     1       6.360   5.061  17.469  0.00  0.00    +0.000 C 
ATOM     12  C   UNL     1       7.022   5.258  16.129  0.00  0.00    +0.000 C 
ATOM     13  C   UNL     1       5.836   5.458  15.189  0.00  0.00    +0.000 C 
ATOM     14  O   UNL     1       4.804   6.084  15.983  0.00  0.00    +0.000 OA
BRANCH  12  15
ATOM     15  O   UNL     1       7.857   6.414  16.186  0.00  0.00    +0.000 OA
ATOM     16  H   UNL     1       7.326   7.208  16.003  0.00  0.00    +0.000 HD
ENDBRANCH  12  15
BRANCH  13  17
ATOM     17  C   UNL     1       5.296   4.140  14.623  0.00  0.00    +0.000 C 
BRANCH  17  18
ATOM     18  O   UNL     1       6.325   3.499  13.886  0.00  0.00    +0.000 OA
BRANCH  18  19
ATOM     19  S   UNL     1       6.206   3.560  12.257  0.00  0.00    +0.000 S 
ATOM     20  O   UNL     1       4.809   3.696  11.929  0.00  0.00    +0.000 OA
ATOM     21  O   UNL     1       7.216   4.459  11.765  0.00  0.00    +0.000 OA
BRANCH  19  22
ATOM     22  N   UNL     1       6.659   2.016  11.815  0.00  0.00    +0.000 NA
ATOM     23  H   UNL     1       5.864   1.498  11.448  0.00  0.00    +0.000 HD
ATOM     24  H   UNL     1       7.140   1.549  12.580  0.00  0.00    +0.000 HD
ENDBRANCH  19  22
ENDBRANCH  18  19
ENDBRANCH  17  18
ENDBRANCH  13  17
ENDBRANCH   9  10
BRANCH   1  25
ATOM     25  N   UNL     1       0.426   3.371  20.232  0.00  0.00    +0.000 N 
ATOM     26  H   UNL     1       0.549   2.556  20.820  0.00  0.00    +0.000 HD
ATOM     27  H   UNL     1      -0.519   3.593  19.946  0.00  0.00    +0.000 HD
ENDBRANCH   1  25
BRANCH   7  28
ATOM     28  S   UNL     1       1.592   6.523  21.005  0.00  0.00    +0.000 S 
BRANCH  28  29
ATOM     29  C   UNL     1       1.177   8.149  20.391  0.00  0.00    +0.000 A 
ATOM     30  C   UNL     1       1.708   8.665  19.204  0.00  0.00    +0.000 A 
ATOM     31  C   UNL     1       1.344   9.948  18.836  0.00  0.00    +0.000 A 
ATOM     32  C   UNL     1       0.297  10.629  19.467  0.00  0.00    +0.000 A 
ATOM     33  C   UNL     1      -0.199  10.169  20.665  0.00  0.00    +0.000 A 
ATOM     34  C   UNL     1       0.293   8.954  21.144  0.00  0.00    +0.000 A 
ATOM     35  F   UNL     1      -0.045   8.594  22.393  0.00  0.00    +0.000 F 
ATOM     36  C   UNL     1       0.089  11.953  18.800  0.00  0.00    +0.000 C 
ATOM     37  C   UNL     1       1.564  12.244  18.525  0.00  0.00    +0.000 C 
ATOM     38  C   UNL     1       2.111  10.908  17.968  0.00  0.00    +0.000 C 
ENDBRANCH  28  29
ENDBRANCH   7  28
TORSDOF 9
ENDMDL
MODEL 3
REMARK VINA RESULT:      -7.6      5.263      9.051
REMARK  Name = 
REMARK  9 active torsions:
REMARK  status: ('A' for Active; 'I' for Inactive)
REMARK    1  A    between atoms: N_1  and  C_2
REMARK    2  A    between atoms: C_8  and  S_9
REMARK    3  A    between atoms: S_9  and  C_10
REMARK    4  A    between atoms: N_21  and  C_22
REMARK    5  A    between atoms: C_24  and  O_25
REMARK    6  A    between atoms: C_26  and  C_27
REMARK    7  A    between atoms: C_27  and  O_28
REMARK    8  A    between atoms: O_28  and  S_29
REMARK    9  A    between atoms: S_29  and  N_30
REMARK                            x       y       z     vdW  Elec       q    Type
REMARK                         _______ _______ _______ _____ _____    ______ ____
ROOT
ATOM      1  C   UNL     1       1.081   9.591  21.669  0.00  0.00    +0.000 A 
ATOM      2  N   UNL     1       0.244  10.232  22.511  0.00  0.00    +0.000 NA
ATOM      3  C   UNL     1      -0.860  10.809  22.010  0.00  0.00    +0.000 A 
ATOM      4  N   UNL     1      -1.264  10.834  20.726  0.00  0.00    +0.000 NA
ATOM      5  C   UNL     1      -0.392  10.219  19.917  0.00  0.00    +0.000 A 
ATOM      6  C   UNL     1       0.782   9.589  20.303  0.00  0.00    +0.000 A 
ATOM      7  C   UNL     1       1.329   9.106  19.102  0.00  0.00    +0.000 A 
ATOM      8  N   UNL     1       0.567   9.368  18.032  0.00  0.00    +0.000 NA
ATOM      9  N   UNL     1      -0.471  10.085  18.546  0.00  0.00    +0.000 N 
ENDROOT
BRANCH   9  10
ATOM     10  C   UNL     1      -1.563  10.494  17.665  0.00  0.00    +0.000 C 
ATOM     11  C   UNL     1      -2.839   9.660  17.673  0.00  0.00    +0.000 C 
ATOM     12  C   UNL     1      -3.900  10.664  17.299  0.00  0.00    +0.000 C 
ATOM     13  C   UNL     1      -3.405  11.947  17.963  0.00  0.00    +0.000 C 
ATOM     14  O   UNL     1      -1.963  11.856  17.970  0.00  0.00    +0.000 OA
BRANCH  12  15
ATOM     15  O   UNL     1      -3.949  10.784  15.878  0.00  0.00    +0.000 OA
ATOM     16  H   UNL     1      -3.763   9.920  15.472  0.00  0.00    +0.000 HD
ENDBRANCH  12  15
BRANCH  13  17
ATOM     17  C   UNL     1      -3.901  12.101  19.405  0.00  0.00    +0.000 C 
BRANCH  17  18
ATOM     18  O   UNL     1      -5.316  12.001  19.419  0.00  0.00    +0.000 OA
BRANCH  18  19
ATOM     19  S   UNL     1      -6.059  12.329  20.838  0.00  0.00    +0.000 S 
ATOM     20  O   UNL     1      -5.056  12.285  21.873  0.00  0.00    +0.000 OA
ATOM     21  O   UNL     1      -6.930  13.457  20.641  0.00  0.00    +0.000 OA
BRANCH  19  22
ATOM     22  N   UNL     1      -7.027  10.986  21.044  0.00  0.00    +0.000 NA
ATOM     23  H   UNL     1      -8.011  11.239  20.992  0.00  0.00    +0.000 HD
ATOM     24  H   UNL     1      -6.772  10.485  21.891  0.00  0.00    +0.000 HD
ENDBRANCH  19  22
ENDBRANCH  18  19
ENDBRANCH  17  18
ENDBRANCH  13  17
ENDBRANCH   9  10
BRANCH   1  25
ATOM     25  N   UNL     1       2.180   8.969  22.233  0.00  0.00    +0.000 N 
ATOM     26  H   UNL     1       1.931   8.411  23.040  0.00  0.00    +0.000 HD
ATOM     27  H   UNL     1       3.028   9.518  22.297  0.00  0.00    +0.000 HD
ENDBRANCH   1  25
BRANCH   7  28
ATOM     28  S   UNL     1       2.846   8.260  18.924  0.00  0.00    +0.000 S 
BRANCH  28  29
ATOM     29  C   UNL     1       2.391   6.533  18.982  0.00  0.00    +0.000 A 
ATOM     30  C   UNL     1       1.756   5.957  20.087  0.00  0.00    +0.000 A 
ATOM     31  C   UNL     1       1.475   4.603  20.039  0.00  0.00    +0.000 A 
ATOM     32  C   UNL     1       1.580   3.868  18.853  0.00  0.00    +0.000 A 
ATOM     33  C   UNL     1       2.254   4.395  17.775  0.00  0.00    +0.000 A 
ATOM     34  C   UNL     1       2.704   5.712  17.875  0.00  0.00    +0.000 A 
ATOM     35  F   UNL     1       3.518   6.168  16.909  0.00  0.00    +0.000 F 
ATOM     36  C   UNL     1       1.137   2.459  19.098  0.00  0.00    +0.000 C 
ATOM     37  C   UNL     1       1.716   2.336  20.506  0.00  0.00    +0.000 C 
ATOM     38  C   UNL     1       1.304   3.658  21.198  0.00  0.00    +0.000 C 
ENDBRANCH  28  29
ENDBRANCH   7  28
TORSDOF 9
ENDMDL
MODEL 4
REMARK VINA RESULT:      -7.6      1.807      3.375
REMARK  Name = 
REMARK  9 active torsions:
REMARK  status: ('A' for Active; 'I' for Inactive)
REMARK    1  A    between atoms: N_1  and  C_2
REMARK    2  A    between atoms: C_8  and  S_9
REMARK    3  A    between atoms: S_9  and  C_10
REMARK    4  A    between atoms: N_21  and  C_22
REMARK    5  A    between atoms: C_24  and  O_25
REMARK    6  A    between atoms: C_26  and  C_27
REMARK    7  A    between atoms: C_27  and  O_28
REMARK    8  A    between atoms: O_28  and  S_29
REMARK    9  A    between atoms: S_29  and  N_30
REMARK                            x       y       z     vdW  Elec       q    Type
REMARK                         _______ _______ _______ _____ _____    ______ ____
ROOT
ATOM      1  C   UNL     1       0.934   8.812  20.932  0.00  0.00    +0.000 A 
ATOM      2  N   UNL     1       0.863   7.640  21.595  0.00  0.00    +0.000 NA
ATOM      3  C   UNL     1       1.441   6.556  21.054  0.00  0.00    +0.000 A 
ATOM      4  N   UNL     1       2.113   6.477  19.889  0.00  0.00    +0.000 NA
ATOM      5  C   UNL     1       2.132   7.650  19.245  0.00  0.00    +0.000 A 
ATOM      6  C   UNL     1       1.574   8.840  19.688  0.00  0.00    +0.000 A 
ATOM      7  C   UNL     1       1.863   9.762  18.669  0.00  0.00    +0.000 A 
ATOM      8  N   UNL     1       2.573   9.231  17.664  0.00  0.00    +0.000 NA
ATOM      9  N   UNL     1       2.701   7.923  18.017  0.00  0.00    +0.000 N 
ENDROOT
BRANCH   9  10
ATOM     10  C   UNL     1       3.494   7.029  17.176  0.00  0.00    +0.000 C 
ATOM     11  C   UNL     1       4.996   7.270  17.095  0.00  0.00    +0.000 C 
ATOM     12  C   UNL     1       5.545   5.894  16.818  0.00  0.00    +0.000 C 
ATOM     13  C   UNL     1       4.605   4.986  17.608  0.00  0.00    +0.000 C 
ATOM     14  O   UNL     1       3.324   5.655  17.614  0.00  0.00    +0.000 OA
BRANCH  12  15
ATOM     15  O   UNL     1       5.478   5.638  15.416  0.00  0.00    +0.000 OA
ATOM     16  H   UNL     1       5.368   6.478  14.937  0.00  0.00    +0.000 HD
ENDBRANCH  12  15
BRANCH  13  17
ATOM     17  C   UNL     1       5.060   4.774  19.056  0.00  0.00    +0.000 C 
BRANCH  17  18
ATOM     18  O   UNL     1       5.464   3.423  19.218  0.00  0.00    +0.000 OA
BRANCH  18  19
ATOM     19  S   UNL     1       4.386   2.417  19.926  0.00  0.00    +0.000 S 
ATOM     20  O   UNL     1       5.111   1.589  20.857  0.00  0.00    +0.000 OA
ATOM     21  O   UNL     1       3.230   3.188  20.300  0.00  0.00    +0.000 OA
BRANCH  19  22
ATOM     22  N   UNL     1       3.937   1.436  18.652  0.00  0.00    +0.000 NA
ATOM     23  H   UNL     1       4.437   1.694  17.805  0.00  0.00    +0.000 HD
ATOM     24  H   UNL     1       2.926   1.421  18.549  0.00  0.00    +0.000 HD
ENDBRANCH  19  22
ENDBRANCH  18  19
ENDBRANCH  17  18
ENDBRANCH  13  17
ENDBRANCH   9  10
BRANCH   1  25
ATOM     25  N   UNL     1       0.368   9.914  21.547  0.00  0.00    +0.000 N 
ATOM     26  H   UNL     1      -0.323  10.366  20.962  0.00  0.00    +0.000 HD
ATOM     27  H   UNL     1       0.995  10.514  22.068  0.00  0.00    +0.000 HD
ENDBRANCH   1  25
BRANCH   7  28
ATOM     28  S   UNL     1       1.372  11.436  18.620  0.00  0.00    +0.000 S 
BRANCH  28  29
ATOM     29  C   UNL     1      -0.403  11.364  18.427  0.00  0.00    +0.000 A 
ATOM     30  C   UNL     1      -1.032  10.452  17.572  0.00  0.00    +0.000 A 
ATOM     31  C   UNL     1      -2.411  10.502  17.474  0.00  0.00    +0.000 A 
ATOM     32  C   UNL     1      -3.189  11.248  18.367  0.00  0.00    +0.000 A 
ATOM     33  C   UNL     1      -2.595  12.191  19.174  0.00  0.00    +0.000 A 
ATOM     34  C   UNL     1      -1.203  12.276  19.151  0.00  0.00    +0.000 A 
ATOM     35  F   UNL     1      -0.631  13.311  19.789  0.00  0.00    +0.000 F 
ATOM     36  C   UNL     1      -4.640  11.040  18.059  0.00  0.00    +0.000 C 
ATOM     37  C   UNL     1      -4.488  10.980  16.540  0.00  0.00    +0.000 C 
ATOM     38  C   UNL     1      -3.268  10.054  16.321  0.00  0.00    +0.000 C 
ENDBRANCH  28  29
ENDBRANCH   7  28
TORSDOF 9
ENDMDL
MODEL 5
REMARK VINA RESULT:      -7.6      1.883      3.221
REMARK  Name = 
REMARK  9 active torsions:
REMARK  status: ('A' for Active; 'I' for Inactive)
REMARK    1  A    between atoms: N_1  and  C_2
REMARK    2  A    between atoms: C_8  and  S_9
REMARK    3  A    between atoms: S_9  and  C_10
REMARK    4  A    between atoms: N_21  and  C_22
REMARK    5  A    between atoms: C_24  and  O_25
REMARK    6  A    between atoms: C_26  and  C_27
REMARK    7  A    between atoms: C_27  and  O_28
REMARK    8  A    between atoms: O_28  and  S_29
REMARK    9  A    between atoms: S_29  and  N_30
REMARK                            x       y       z     vdW  Elec       q    Type
REMARK                         _______ _______ _______ _____ _____    ______ ____
ROOT
ATOM      1  C   UNL     1       1.200   8.247  20.830  0.00  0.00    +0.000 A 
ATOM      2  N   UNL     1       1.123   7.036  21.419  0.00  0.00    +0.000 NA
ATOM      3  C   UNL     1       1.663   5.978  20.794  0.00  0.00    +0.000 A 
ATOM      4  N   UNL     1       2.302   5.961  19.609  0.00  0.00    +0.000 NA
ATOM      5  C   UNL     1       2.329   7.173  19.040  0.00  0.00    +0.000 A 
ATOM      6  C   UNL     1       1.808   8.342  19.574  0.00  0.00    +0.000 A 
ATOM      7  C   UNL     1       2.090   9.322  18.608  0.00  0.00    +0.000 A 
ATOM      8  N   UNL     1       2.762   8.844  17.552  0.00  0.00    +0.000 NA
ATOM      9  N   UNL     1       2.871   7.513  17.817  0.00  0.00    +0.000 N 
ENDROOT
BRANCH   9  10
ATOM     10  C   UNL     1       3.622   6.660  16.899  0.00  0.00    +0.000 C 
ATOM     11  C   UNL     1       5.093   6.985  16.663  0.00  0.00    +0.000 C 
ATOM     12  C   UNL     1       5.687   5.639  16.332  0.00  0.00    +0.000 C 
ATOM     13  C   UNL     1       4.886   4.686  17.215  0.00  0.00    +0.000 C 
ATOM     14  O   UNL     1       3.577   5.281  17.352  0.00  0.00    +0.000 OA
BRANCH  12  15
ATOM     15  O   UNL     1       5.491   5.371  14.944  0.00  0.00    +0.000 OA
ATOM     16  H   UNL     1       6.352   5.345  14.493  0.00  0.00    +0.000 HD
ENDBRANCH  12  15
BRANCH  13  17
ATOM     17  C   UNL     1       5.499   4.508  18.608  0.00  0.00    +0.000 C 
BRANCH  17  18
ATOM     18  O   UNL     1       6.160   5.709  18.977  0.00  0.00    +0.000 OA
BRANCH  18  19
ATOM     19  S   UNL     1       7.793   5.657  19.037  0.00  0.00    +0.000 S 
ATOM     20  O   UNL     1       8.215   4.468  18.339  0.00  0.00    +0.000 OA
ATOM     21  O   UNL     1       8.297   6.968  18.724  0.00  0.00    +0.000 OA
BRANCH  19  22
ATOM     22  N   UNL     1       8.074   5.392  20.660  0.00  0.00    +0.000 NA
ATOM     23  H   UNL     1       9.057   5.529  20.883  0.00  0.00    +0.000 HD
ATOM     24  H   UNL     1       7.707   4.488  20.946  0.00  0.00    +0.000 HD
ENDBRANCH  19  22
ENDBRANCH  18  19
ENDBRANCH  17  18
ENDBRANCH  13  17
ENDBRANCH   9  10
BRANCH   1  25
ATOM     25  N   UNL     1       0.675   9.317  21.530  0.00  0.00    +0.000 N 
ATOM     26  H   UNL     1       1.390   9.970  21.825  0.00  0.00    +0.000 HD
ATOM     27  H   UNL     1      -0.060   9.108  22.194  0.00  0.00    +0.000 HD
ENDBRANCH   1  25
BRANCH   7  28
ATOM     28  S   UNL     1       1.633  11.005  18.679  0.00  0.00    +0.000 S 
BRANCH  28  29
ATOM     29  C   UNL     1      -0.134  10.989  18.409  0.00  0.00    +0.000 A 
ATOM     30  C   UNL     1      -0.751  10.110  17.512  0.00  0.00    +0.000 A 
ATOM     31  C   UNL     1      -2.122  10.202  17.355  0.00  0.00    +0.000 A 
ATOM     32  C   UNL     1      -2.916  10.957  18.226  0.00  0.00    +0.000 A 
ATOM     33  C   UNL     1      -2.331  11.870  19.074  0.00  0.00    +0.000 A 
ATOM     34  C   UNL     1      -0.937  11.914  19.113  0.00  0.00    +0.000 A 
ATOM     35  F   UNL     1      -0.364  12.921  19.791  0.00  0.00    +0.000 F 
ATOM     36  C   UNL     1      -4.358  10.798  17.852  0.00  0.00    +0.000 C 
ATOM     37  C   UNL     1      -4.142  10.756  16.340  0.00  0.00    +0.000 C 
ATOM     38  C   UNL     1      -2.941   9.797  16.159  0.00  0.00    +0.000 C 
ENDBRANCH  28  29
ENDBRANCH   7  28
TORSDOF 9
ENDMDL
MODEL 6
REMARK VINA RESULT:      -7.6      6.393      9.169
REMARK  Name = 
REMARK  9 active torsions:
REMARK  status: ('A' for Active; 'I' for Inactive)
REMARK    1  A    between atoms: N_1  and  C_2
REMARK    2  A    between atoms: C_8  and  S_9
REMARK    3  A    between atoms: S_9  and  C_10
REMARK    4  A    between atoms: N_21  and  C_22
REMARK    5  A    between atoms: C_24  and  O_25
REMARK    6  A    between atoms: C_26  and  C_27
REMARK    7  A    between atoms: C_27  and  O_28
REMARK    8  A    between atoms: O_28  and  S_29
REMARK    9  A    between atoms: S_29  and  N_30
REMARK                            x       y       z     vdW  Elec       q    Type
REMARK                         _______ _______ _______ _____ _____    ______ ____
ROOT
ATOM      1  C   UNL     1       0.556  10.008  20.604  0.00  0.00    +0.000 A 
ATOM      2  N   UNL     1       1.000   9.207  21.594  0.00  0.00    +0.000 NA
ATOM      3  C   UNL     1       0.564   9.424  22.845  0.00  0.00    +0.000 A 
ATOM      4  N   UNL     1      -0.297  10.371  23.263  0.00  0.00    +0.000 NA
ATOM      5  C   UNL     1      -0.689  11.166  22.260  0.00  0.00    +0.000 A 
ATOM      6  C   UNL     1      -0.313  11.055  20.930  0.00  0.00    +0.000 A 
ATOM      7  C   UNL     1      -0.986  12.108  20.287  0.00  0.00    +0.000 A 
ATOM      8  N   UNL     1      -1.757  12.823  21.117  0.00  0.00    +0.000 NA
ATOM      9  N   UNL     1      -1.536  12.253  22.333  0.00  0.00    +0.000 N 
ENDROOT
BRANCH   9  10
ATOM     10  C   UNL     1      -2.278  12.737  23.495  0.00  0.00    +0.000 C 
ATOM     11  C   UNL     1      -2.605  14.223  23.566  0.00  0.00    +0.000 C 
ATOM     12  C   UNL     1      -3.876  14.251  24.376  0.00  0.00    +0.000 C 
ATOM     13  C   UNL     1      -4.590  12.975  23.936  0.00  0.00    +0.000 C 
ATOM     14  O   UNL     1      -3.545  12.035  23.602  0.00  0.00    +0.000 OA
BRANCH  12  15
ATOM     15  O   UNL     1      -3.547  14.225  25.764  0.00  0.00    +0.000 OA
ATOM     16  H   UNL     1      -4.360  14.296  26.293  0.00  0.00    +0.000 HD
ENDBRANCH  12  15
BRANCH  13  17
ATOM     17  C   UNL     1      -5.480  13.185  22.706  0.00  0.00    +0.000 C 
BRANCH  17  18
ATOM     18  O   UNL     1      -5.151  12.211  21.728  0.00  0.00    +0.000 OA
BRANCH  18  19
ATOM     19  S   UNL     1      -5.799  12.420  20.241  0.00  0.00    +0.000 S 
ATOM     20  O   UNL     1      -6.369  11.160  19.835  0.00  0.00    +0.000 OA
ATOM     21  O   UNL     1      -6.542  13.651  20.243  0.00  0.00    +0.000 OA
BRANCH  19  22
ATOM     22  N   UNL     1      -4.441  12.662  19.300  0.00  0.00    +0.000 NA
ATOM     23  H   UNL     1      -4.692  13.074  18.405  0.00  0.00    +0.000 HD
ATOM     24  H   UNL     1      -3.898  11.805  19.225  0.00  0.00    +0.000 HD
ENDBRANCH  19  22
ENDBRANCH  18  19
ENDBRANCH  17  18
ENDBRANCH  13  17
ENDBRANCH   9  10
BRANCH   1  25
ATOM     25  N   UNL     1       0.992   9.719  19.323  0.00  0.00    +0.000 N 
ATOM     26  H   UNL     1       0.223   9.582  18.680  0.00  0.00    +0.000 HD
ATOM     27  H   UNL     1       1.778   9.086  19.244  0.00  0.00    +0.000 HD
ENDBRANCH   1  25
BRANCH   7  28
ATOM     28  S   UNL     1      -0.873  12.528  18.597  0.00  0.00    +0.000 S 
BRANCH  28  29
ATOM     29  C   UNL     1       0.450  13.727  18.533  0.00  0.00    +0.000 A 
ATOM     30  C   UNL     1       1.760  13.386  18.178  0.00  0.00    +0.000 A 
ATOM     31  C   UNL     1       2.715  14.387  18.191  0.00  0.00    +0.000 A 
ATOM     32  C   UNL     1       2.368  15.738  18.303  0.00  0.00    +0.000 A 
ATOM     33  C   UNL     1       1.102  16.091  18.710  0.00  0.00    +0.000 A 
ATOM     34  C   UNL     1       0.168  15.068  18.876  0.00  0.00    +0.000 A 
ATOM     35  F   UNL     1      -1.006  15.383  19.448  0.00  0.00    +0.000 F 
ATOM     36  C   UNL     1       3.603  16.580  18.206  0.00  0.00    +0.000 C 
ATOM     37  C   UNL     1       4.524  15.628  18.968  0.00  0.00    +0.000 C 
ATOM     38  C   UNL     1       4.202  14.237  18.371  0.00  0.00    +0.000 C 
ENDBRANCH  28  29
ENDBRANCH   7  28
TORSDOF 9
ENDMDL
MODEL 7
REMARK VINA RESULT:      -7.6      6.562      9.646
REMARK  Name = 
REMARK  9 active torsions:
REMARK  status: ('A' for Active; 'I' for Inactive)
REMARK    1  A    between atoms: N_1  and  C_2
REMARK    2  A    between atoms: C_8  and  S_9
REMARK    3  A    between atoms: S_9  and  C_10
REMARK    4  A    between atoms: N_21  and  C_22
REMARK    5  A    between atoms: C_24  and  O_25
REMARK    6  A    between atoms: C_26  and  C_27
REMARK    7  A    between atoms: C_27  and  O_28
REMARK    8  A    between atoms: O_28  and  S_29
REMARK    9  A    between atoms: S_29  and  N_30
REMARK                            x       y       z     vdW  Elec       q    Type
REMARK                         _______ _______ _______ _____ _____    ______ ____
ROOT
ATOM      1  C   UNL     1       0.457   9.682  20.801  0.00  0.00    +0.000 A 
ATOM      2  N   UNL     1       0.829   8.895  21.831  0.00  0.00    +0.000 NA
ATOM      3  C   UNL     1       0.408   9.206  23.068  0.00  0.00    +0.000 A 
ATOM      4  N   UNL     1      -0.372  10.240  23.435  0.00  0.00    +0.000 NA
ATOM      5  C   UNL     1      -0.693  11.017  22.392  0.00  0.00    +0.000 A 
ATOM      6  C   UNL     1      -0.323  10.812  21.071  0.00  0.00    +0.000 A 
ATOM      7  C   UNL     1      -0.904  11.885  20.376  0.00  0.00    +0.000 A 
ATOM      8  N   UNL     1      -1.616  12.701  21.165  0.00  0.00    +0.000 NA
ATOM      9  N   UNL     1      -1.447  12.172  22.408  0.00  0.00    +0.000 N 
ENDROOT
BRANCH   9  10
ATOM     10  C   UNL     1      -2.151  12.770  23.541  0.00  0.00    +0.000 C 
ATOM     11  C   UNL     1      -2.347  14.281  23.543  0.00  0.00    +0.000 C 
ATOM     12  C   UNL     1      -3.615  14.456  24.339  0.00  0.00    +0.000 C 
ATOM     13  C   UNL     1      -4.435  13.229  23.948  0.00  0.00    +0.000 C 
ATOM     14  O   UNL     1      -3.475  12.187  23.666  0.00  0.00    +0.000 OA
BRANCH  12  15
ATOM     15  O   UNL     1      -3.297  14.463  25.730  0.00  0.00    +0.000 OA
ATOM     16  H   UNL     1      -2.365  14.211  25.851  0.00  0.00    +0.000 HD
ENDBRANCH  12  15
BRANCH  13  17
ATOM     17  C   UNL     1      -5.297  13.461  22.702  0.00  0.00    +0.000 C 
BRANCH  17  18
ATOM     18  O   UNL     1      -5.804  12.213  22.254  0.00  0.00    +0.000 OA
BRANCH  18  19
ATOM     19  S   UNL     1      -7.432  12.066  22.190  0.00  0.00    +0.000 S 
ATOM     20  O   UNL     1      -7.914  13.010  21.213  0.00  0.00    +0.000 OA
ATOM     21  O   UNL     1      -7.756  10.665  22.151  0.00  0.00    +0.000 OA
BRANCH  19  22
ATOM     22  N   UNL     1      -7.893  12.641  23.688  0.00  0.00    +0.000 NA
ATOM     23  H   UNL     1      -7.218  12.373  24.400  0.00  0.00    +0.000 HD
ATOM     24  H   UNL     1      -8.849  12.367  23.899  0.00  0.00    +0.000 HD
ENDBRANCH  19  22
ENDBRANCH  18  19
ENDBRANCH  17  18
ENDBRANCH  13  17
ENDBRANCH   9  10
BRANCH   1  25
ATOM     25  N   UNL     1       0.872   9.298  19.539  0.00  0.00    +0.000 N 
ATOM     26  H   UNL     1       0.472   8.412  19.258  0.00  0.00    +0.000 HD
ATOM     27  H   UNL     1       1.846   9.455  19.316  0.00  0.00    +0.000 HD
ENDBRANCH   1  25
BRANCH   7  28
ATOM     28  S   UNL     1      -0.751  12.214  18.668  0.00  0.00    +0.000 S 
BRANCH  28  29
ATOM     29  C   UNL     1       0.574  13.410  18.572  0.00  0.00    +0.000 A 
ATOM     30  C   UNL     1       0.354  14.788  18.671  0.00  0.00    +0.000 A 
ATOM     31  C   UNL     1       1.448  15.627  18.552  0.00  0.00    +0.000 A 
ATOM     32  C   UNL     1       2.760  15.142  18.586  0.00  0.00    +0.000 A 
ATOM     33  C   UNL     1       2.998  13.795  18.430  0.00  0.00    +0.000 A 
ATOM     34  C   UNL     1       1.893  12.946  18.368  0.00  0.00    +0.000 A 
ATOM     35  F   UNL     1       2.110  11.664  18.031  0.00  0.00    +0.000 F 
ATOM     36  C   UNL     1       3.719  16.289  18.517  0.00  0.00    +0.000 C 
ATOM     37  C   UNL     1       2.901  17.142  17.548  0.00  0.00    +0.000 C 
ATOM     38  C   UNL     1       1.460  17.065  18.105  0.00  0.00    +0.000 C 
ENDBRANCH  28  29
ENDBRANCH   7  28
TORSDOF 9
ENDMDL
MODEL 8
REMARK VINA RESULT:      -7.5      3.434      5.318
REMARK  Name = 
REMARK  9 active torsions:
REMARK  status: ('A' for Active; 'I' for Inactive)
REMARK    1  A    between atoms: N_1  and  C_2
REMARK    2  A    between atoms: C_8  and  S_9
REMARK    3  A    between atoms: S_9  and  C_10
REMARK    4  A    between atoms: N_21  and  C_22
REMARK    5  A    between atoms: C_24  and  O_25
REMARK    6  A    between atoms: C_26  and  C_27
REMARK    7  A    between atoms: C_27  and  O_28
REMARK    8  A    between atoms: O_28  and  S_29
REMARK    9  A    between atoms: S_29  and  N_30
REMARK                            x       y       z     vdW  Elec       q    Type
REMARK                         _______ _______ _______ _____ _____    ______ ____
ROOT
ATOM      1  C   UNL     1       1.494   3.530  19.277  0.00  0.00    +0.000 A 
ATOM      2  N   UNL     1       1.704   2.418  18.543  0.00  0.00    +0.000 NA
ATOM      3  C   UNL     1       2.706   2.413  17.650  0.00  0.00    +0.000 A 
ATOM      4  N   UNL     1       3.570   3.409  17.378  0.00  0.00    +0.000 NA
ATOM      5  C   UNL     1       3.310   4.506  18.100  0.00  0.00    +0.000 A 
ATOM      6  C   UNL     1       2.308   4.645  19.049  0.00  0.00    +0.000 A 
ATOM      7  C   UNL     1       2.452   5.962  19.517  0.00  0.00    +0.000 A 
ATOM      8  N   UNL     1       3.475   6.614  18.949  0.00  0.00    +0.000 NA
ATOM      9  N   UNL     1       3.971   5.716  18.054  0.00  0.00    +0.000 N 
ENDROOT
BRANCH   9  10
ATOM     10  C   UNL     1       5.164   6.060  17.283  0.00  0.00    +0.000 C 
ATOM     11  C   UNL     1       6.373   5.139  17.388  0.00  0.00    +0.000 C 
ATOM     12  C   UNL     1       7.050   5.316  16.053  0.00  0.00    +0.000 C 
ATOM     13  C   UNL     1       5.875   5.502  15.097  0.00  0.00    +0.000 C 
ATOM     14  O   UNL     1       4.835   6.141  15.870  0.00  0.00    +0.000 OA
BRANCH  12  15
ATOM     15  O   UNL     1       7.886   6.471  16.102  0.00  0.00    +0.000 OA
ATOM     16  H   UNL     1       8.367   6.560  15.262  0.00  0.00    +0.000 HD
ENDBRANCH  12  15
BRANCH  13  17
ATOM     17  C   UNL     1       5.340   4.177  14.544  0.00  0.00    +0.000 C 
BRANCH  17  18
ATOM     18  O   UNL     1       6.378   3.523  13.830  0.00  0.00    +0.000 OA
BRANCH  18  19
ATOM     19  S   UNL     1       6.289   3.578  12.198  0.00  0.00    +0.000 S 
ATOM     20  O   UNL     1       4.895   3.669  11.842  0.00  0.00    +0.000 OA
ATOM     21  O   UNL     1       7.279   4.507  11.724  0.00  0.00    +0.000 OA
BRANCH  19  22
ATOM     22  N   UNL     1       6.800   2.048  11.769  0.00  0.00    +0.000 NA
ATOM     23  H   UNL     1       7.707   2.086  11.311  0.00  0.00    +0.000 HD
ATOM     24  H   UNL     1       6.083   1.567  11.231  0.00  0.00    +0.000 HD
ENDBRANCH  19  22
ENDBRANCH  18  19
ENDBRANCH  17  18
ENDBRANCH  13  17
ENDBRANCH   9  10
BRANCH   1  25
ATOM     25  N   UNL     1       0.483   3.477  20.219  0.00  0.00    +0.000 N 
ATOM     26  H   UNL     1      -0.428   3.349  19.795  0.00  0.00    +0.000 HD
ATOM     27  H   UNL     1       0.545   4.131  20.988  0.00  0.00    +0.000 HD
ENDBRANCH   1  25
BRANCH   7  28
ATOM     28  S   UNL     1       1.439   6.756  20.696  0.00  0.00    +0.000 S 
BRANCH  28  29
ATOM     29  C   UNL     1       1.295   8.430  20.089  0.00  0.00    +0.000 A 
ATOM     30  C   UNL     1       1.117   9.528  20.939  0.00  0.00    +0.000 A 
ATOM     31  C   UNL     1       0.987  10.778  20.362  0.00  0.00    +0.000 A 
ATOM     32  C   UNL     1       1.268  11.002  19.009  0.00  0.00    +0.000 A 
ATOM     33  C   UNL     1       1.387   9.936  18.147  0.00  0.00    +0.000 A 
ATOM     34  C   UNL     1       1.341   8.653  18.695  0.00  0.00    +0.000 A 
ATOM     35  F   UNL     1       1.269   7.615  17.846  0.00  0.00    +0.000 F 
ATOM     36  C   UNL     1       1.114  12.459  18.701  0.00  0.00    +0.000 C 
ATOM     37  C   UNL     1      -0.085  12.704  19.616  0.00  0.00    +0.000 C 
ATOM     38  C   UNL     1       0.294  11.987  20.933  0.00  0.00    +0.000 C 
ENDBRANCH  28  29
ENDBRANCH   7  28
TORSDOF 9
ENDMDL
MODEL 9
REMARK VINA RESULT:      -7.4      5.588      8.368
REMARK  Name = 
REMARK  9 active torsions:
REMARK  status: ('A' for Active; 'I' for Inactive)
REMARK    1  A    between atoms: N_1  and  C_2
REMARK    2  A    between atoms: C_8  and  S_9
REMARK    3  A    between atoms: S_9  and  C_10
REMARK    4  A    between atoms: N_21  and  C_22
REMARK    5  A    between atoms: C_24  and  O_25
REMARK    6  A    between atoms: C_26  and  C_27
REMARK    7  A    between atoms: C_27  and  O_28
REMARK    8  A    between atoms: O_28  and  S_29
REMARK    9  A    between atoms: S_29  and  N_30
REMARK                            x       y       z     vdW  Elec       q    Type
REMARK                         _______ _______ _______ _____ _____    ______ ____
ROOT
ATOM      1  C   UNL     1       1.438   8.887  20.688  0.00  0.00    +0.000 A 
ATOM      2  N   UNL     1       2.086   8.284  19.670  0.00  0.00    +0.000 NA
ATOM      3  C   UNL     1       1.652   8.490  18.416  0.00  0.00    +0.000 A 
ATOM      4  N   UNL     1       0.614   9.251  18.019  0.00  0.00    +0.000 NA
ATOM      5  C   UNL     1      -0.024   9.805  19.058  0.00  0.00    +0.000 A 
ATOM      6  C   UNL     1       0.317   9.672  20.396  0.00  0.00    +0.000 A 
ATOM      7  C   UNL     1      -0.645  10.435  21.078  0.00  0.00    +0.000 A 
ATOM      8  N   UNL     1      -1.516  11.039  20.259  0.00  0.00    +0.000 NA
ATOM      9  N   UNL     1      -1.142  10.613  19.021  0.00  0.00    +0.000 N 
ENDROOT
BRANCH   9  10
ATOM     10  C   UNL     1      -1.837  11.132  17.845  0.00  0.00    +0.000 C 
ATOM     11  C   UNL     1      -2.343  10.129  16.815  0.00  0.00    +0.000 C 
ATOM     12  C   UNL     1      -3.533  10.835  16.215  0.00  0.00    +0.000 C 
ATOM     13  C   UNL     1      -4.114  11.597  17.403  0.00  0.00    +0.000 C 
ATOM     14  O   UNL     1      -2.990  11.913  18.255  0.00  0.00    +0.000 OA
BRANCH  12  15
ATOM     15  O   UNL     1      -3.084  11.715  15.185  0.00  0.00    +0.000 OA
ATOM     16  H   UNL     1      -3.844  12.003  14.650  0.00  0.00    +0.000 HD
ENDBRANCH  12  15
BRANCH  13  17
ATOM     17  C   UNL     1      -5.126  10.770  18.204  0.00  0.00    +0.000 C 
BRANCH  17  18
ATOM     18  O   UNL     1      -5.406  11.440  19.423  0.00  0.00    +0.000 OA
BRANCH  18  19
ATOM     19  S   UNL     1      -6.941  11.341  19.977  0.00  0.00    +0.000 S 
ATOM     20  O   UNL     1      -6.882  11.298  21.416  0.00  0.00    +0.000 OA
ATOM     21  O   UNL     1      -7.743  12.292  19.254  0.00  0.00    +0.000 OA
BRANCH  19  22
ATOM     22  N   UNL     1      -7.398   9.819  19.465  0.00  0.00    +0.000 NA
ATOM     23  H   UNL     1      -8.037   9.880  18.676  0.00  0.00    +0.000 HD
ATOM     24  H   UNL     1      -7.752   9.269  20.244  0.00  0.00    +0.000 HD
ENDBRANCH  19  22
ENDBRANCH  18  19
ENDBRANCH  17  18
ENDBRANCH  13  17
ENDBRANCH   9  10
BRANCH   1  25
ATOM     25  N   UNL     1       1.947   8.688  21.958  0.00  0.00    +0.000 N 
ATOM     26  H   UNL     1       2.829   8.192  21.943  0.00  0.00    +0.000 HD
ATOM     27  H   UNL     1       1.284   8.427  22.676  0.00  0.00    +0.000 HD
ENDBRANCH   1  25
BRANCH   7  28
ATOM     28  S   UNL     1      -0.781  10.619  22.809  0.00  0.00    +0.000 S 
BRANCH  28  29
ATOM     29  C   UNL     1      -1.686  12.146  23.014  0.00  0.00    +0.000 A 
ATOM     30  C   UNL     1      -3.040  12.179  23.367  0.00  0.00    +0.000 A 
ATOM     31  C   UNL     1      -3.652  13.415  23.469  0.00  0.00    +0.000 A 
ATOM     32  C   UNL     1      -2.917  14.606  23.474  0.00  0.00    +0.000 A 
ATOM     33  C   UNL     1      -1.601  14.603  23.073  0.00  0.00    +0.000 A 
ATOM     34  C   UNL     1      -1.014  13.369  22.791  0.00  0.00    +0.000 A 
ATOM     35  F   UNL     1       0.203  13.372  22.224  0.00  0.00    +0.000 F 
ATOM     36  C   UNL     1      -3.844  15.765  23.678  0.00  0.00    +0.000 C 
ATOM     37  C   UNL     1      -5.003  15.207  22.853  0.00  0.00    +0.000 C 
ATOM     38  C   UNL     1      -5.115  13.733  23.310  0.00  0.00    +0.000 C 
ENDBRANCH  28  29
ENDBRANCH   7  28
TORSDOF 9
ENDMDL
