MODEL 1
REMARK VINA RESULT:      -8.6      0.000      0.000
REMARK  Name = 
REMARK  3 active torsions:
REMARK  status: ('A' for Active; 'I' for Inactive)
REMARK    1  A    between atoms: C_2  and  C_3
REMARK    2  A    between atoms: C_3  and  N_4
REMARK    3  A    between atoms: C_6  and  C_7
REMARK                            x       y       z     vdW  Elec       q    Type
REMARK                         _______ _______ _______ _____ _____    ______ ____
ROOT
ATOM      1  O   UNL     1       6.065   6.976  16.309  0.00  0.00    +0.000 OA
ATOM      2  C   UNL     1       5.948   5.746  16.409  0.00  0.00    +0.000 C 
ATOM      3  N   UNL     1       4.914   5.194  17.208  0.00  0.00    +0.000 N 
ATOM      4  C   UNL     1       4.059   6.222  17.781  0.00  0.00    +0.000 C 
ATOM      5  C   UNL     1       3.278   5.847  19.018  0.00  0.00    +0.000 C 
ATOM      6  C   UNL     1       2.600   4.527  18.905  0.00  0.00    +0.000 A 
ATOM      7  C   UNL     1       1.452   4.322  19.705  0.00  0.00    +0.000 A 
ATOM      8  C   UNL     1       0.760   3.125  19.662  0.00  0.00    +0.000 A 
ATOM      9  C   UNL     1       1.238   2.111  18.840  0.00  0.00    +0.000 A 
ATOM     10  C   UNL     1       2.417   2.298  18.067  0.00  0.00    +0.000 A 
ATOM     11  C   UNL     1       3.118   3.525  18.076  0.00  0.00    +0.000 A 
ATOM     12  C   UNL     1       4.434   3.765  17.290  0.00  0.00    +0.000 C 
ENDROOT
BRANCH   2  13
ATOM     13  C   UNL     1       6.919   4.844  15.640  0.00  0.00    +0.000 C 
BRANCH  13  14
ATOM     14  N   UNL     1       6.786   4.585  14.163  0.00  0.00    +0.000 N 
ATOM     15  C   UNL     1       5.729   3.895  13.545  0.00  0.00    +0.000 A 
ATOM     16  C   UNL     1       5.642   3.764  12.198  0.00  0.00    +0.000 A 
ATOM     17  C   UNL     1       6.666   4.344  11.369  0.00  0.00    +0.000 A 
ATOM     18  C   UNL     1       7.676   5.037  11.911  0.00  0.00    +0.000 A 
ATOM     19  C   UNL     1       7.766   5.209  13.376  0.00  0.00    +0.000 A 
ATOM     20  O   UNL     1       8.683   5.888  13.829  0.00  0.00    +0.000 OA
BRANCH  16  21
ATOM     21  C   UNL     1       4.508   3.048  11.482  0.00  0.00    +0.000 C 
ATOM     22  F   UNL     1       3.411   2.876  12.276  0.00  0.00    +0.000 F 
ATOM     23  F   UNL     1       4.078   3.720  10.386  0.00  0.00    +0.000 F 
ATOM     24  F   UNL     1       4.870   1.804  11.072  0.00  0.00    +0.000 F 
ENDBRANCH  16  21
ENDBRANCH  13  14
ENDBRANCH   2  13
TORSDOF 3
ENDMDL
MODEL 2
REMARK VINA RESULT:      -8.3      4.991      6.809
REMARK  Name = 
REMARK  3 active torsions:
REMARK  status: ('A' for Active; 'I' for Inactive)
REMARK    1  A    between atoms: C_2  and  C_3
REMARK    2  A    between atoms: C_3  and  N_4
REMARK    3  A    between atoms: C_6  and  C_7
REMARK                            x       y       z     vdW  Elec       q    Type
REMARK                         _______ _______ _______ _____ _____    ______ ____
ROOT
ATOM      1  O   UNL     1       2.365   8.259  17.359  0.00  0.00    +0.000 OA
ATOM      2  C   UNL     1       2.249   7.971  18.559  0.00  0.00    +0.000 C 
ATOM      3  N   UNL     1       1.611   8.874  19.447  0.00  0.00    +0.000 N 
ATOM      4  C   UNL     1       1.107  10.053  18.760  0.00  0.00    +0.000 C 
ATOM      5  C   UNL     1       0.886  11.288  19.599  0.00  0.00    +0.000 C 
ATOM      6  C   UNL     1       0.168  11.011  20.873  0.00  0.00    +0.000 A 
ATOM      7  C   UNL     1      -0.561  12.078  21.448  0.00  0.00    +0.000 A 
ATOM      8  C   UNL     1      -1.257  11.908  22.630  0.00  0.00    +0.000 A 
ATOM      9  C   UNL     1      -1.199  10.671  23.262  0.00  0.00    +0.000 A 
ATOM     10  C   UNL     1      -0.433   9.608  22.710  0.00  0.00    +0.000 A 
ATOM     11  C   UNL     1       0.260   9.756  21.487  0.00  0.00    +0.000 A 
ATOM     12  C   UNL     1       1.148   8.646  20.866  0.00  0.00    +0.000 C 
ENDROOT
BRANCH   2  13
ATOM     13  C   UNL     1       2.783   6.622  19.052  0.00  0.00    +0.000 C 
BRANCH  13  14
ATOM     14  N   UNL     1       3.590   5.701  18.176  0.00  0.00    +0.000 N 
ATOM     15  C   UNL     1       4.963   5.828  17.903  0.00  0.00    +0.000 A 
ATOM     16  C   UNL     1       5.639   4.916  17.161  0.00  0.00    +0.000 A 
ATOM     17  C   UNL     1       4.930   3.781  16.630  0.00  0.00    +0.000 A 
ATOM     18  C   UNL     1       3.628   3.601  16.890  0.00  0.00    +0.000 A 
ATOM     19  C   UNL     1       2.889   4.575  17.720  0.00  0.00    +0.000 A 
ATOM     20  O   UNL     1       1.708   4.350  17.971  0.00  0.00    +0.000 OA
BRANCH  16  21
ATOM     21  C   UNL     1       7.126   4.996  16.856  0.00  0.00    +0.000 C 
ATOM     22  F   UNL     1       7.883   4.289  17.744  0.00  0.00    +0.000 F 
ATOM     23  F   UNL     1       7.433   4.508  15.628  0.00  0.00    +0.000 F 
ATOM     24  F   UNL     1       7.587   6.273  16.905  0.00  0.00    +0.000 F 
ENDBRANCH  16  21
ENDBRANCH  13  14
ENDBRANCH   2  13
TORSDOF 3
ENDMDL
MODEL 3
REMARK VINA RESULT:      -7.9      1.295      1.831
REMARK  Name = 
REMARK  3 active torsions:
REMARK  status: ('A' for Active; 'I' for Inactive)
REMARK    1  A    between atoms: C_2  and  C_3
REMARK    2  A    between atoms: C_3  and  N_4
REMARK    3  A    between atoms: C_6  and  C_7
REMARK                            x       y       z     vdW  Elec       q    Type
REMARK                         _______ _______ _______ _____ _____    ______ ____
ROOT
ATOM      1  O   UNL     1       7.276   4.631  17.379  0.00  0.00    +0.000 OA
ATOM      2  C   UNL     1       6.089   4.756  17.043  0.00  0.00    +0.000 C 
ATOM      3  N   UNL     1       5.058   4.257  17.880  0.00  0.00    +0.000 N 
ATOM      4  C   UNL     1       5.582   3.689  19.112  0.00  0.00    +0.000 C 
ATOM      5  C   UNL     1       4.704   2.691  19.829  0.00  0.00    +0.000 C 
ATOM      6  C   UNL     1       3.290   3.138  19.954  0.00  0.00    +0.000 A 
ATOM      7  C   UNL     1       2.537   2.604  21.025  0.00  0.00    +0.000 A 
ATOM      8  C   UNL     1       1.216   2.965  21.216  0.00  0.00    +0.000 A 
ATOM      9  C   UNL     1       0.630   3.841  20.310  0.00  0.00    +0.000 A 
ATOM     10  C   UNL     1       1.371   4.348  19.207  0.00  0.00    +0.000 A 
ATOM     11  C   UNL     1       2.731   4.013  19.015  0.00  0.00    +0.000 A 
ATOM     12  C   UNL     1       3.570   4.498  17.803  0.00  0.00    +0.000 C 
ENDROOT
BRANCH   2  13
ATOM     13  C   UNL     1       5.762   5.473  15.729  0.00  0.00    +0.000 C 
BRANCH  13  14
ATOM     14  N   UNL     1       6.028   4.857  14.381  0.00  0.00    +0.000 N 
ATOM     15  C   UNL     1       5.076   4.206  13.577  0.00  0.00    +0.000 A 
ATOM     16  C   UNL     1       5.375   3.738  12.340  0.00  0.00    +0.000 A 
ATOM     17  C   UNL     1       6.711   3.907  11.830  0.00  0.00    +0.000 A 
ATOM     18  C   UNL     1       7.643   4.548  12.547  0.00  0.00    +0.000 A 
ATOM     19  C   UNL     1       7.321   5.086  13.885  0.00  0.00    +0.000 A 
ATOM     20  O   UNL     1       8.191   5.705  14.491  0.00  0.00    +0.000 OA
BRANCH  16  21
ATOM     21  C   UNL     1       4.377   3.048  11.424  0.00  0.00    +0.000 C 
ATOM     22  F   UNL     1       4.070   3.795  10.324  0.00  0.00    +0.000 F 
ATOM     23  F   UNL     1       4.835   1.860  10.956  0.00  0.00    +0.000 F 
ATOM     24  F   UNL     1       3.197   2.802  12.051  0.00  0.00    +0.000 F 
ENDBRANCH  16  21
ENDBRANCH  13  14
ENDBRANCH   2  13
TORSDOF 3
ENDMDL
MODEL 4
REMARK VINA RESULT:      -7.9      5.184      7.309
REMARK  Name = 
REMARK  3 active torsions:
REMARK  status: ('A' for Active; 'I' for Inactive)
REMARK    1  A    between atoms: C_2  and  C_3
REMARK    2  A    between atoms: C_3  and  N_4
REMARK    3  A    between atoms: C_6  and  C_7
REMARK                            x       y       z     vdW  Elec       q    Type
REMARK                         _______ _______ _______ _____ _____    ______ ____
ROOT
ATOM      1  O   UNL     1       2.095   8.488  17.062  0.00  0.00    +0.000 OA
ATOM      2  C   UNL     1       2.234   8.346  18.286  0.00  0.00    +0.000 C 
ATOM      3  N   UNL     1       1.483   9.147  19.183  0.00  0.00    +0.000 N 
ATOM      4  C   UNL     1       0.563  10.032  18.486  0.00  0.00    +0.000 C 
ATOM      5  C   UNL     1       0.099  11.259  19.234  0.00  0.00    +0.000 C 
ATOM      6  C   UNL     1      -0.324  10.969  20.631  0.00  0.00    +0.000 A 
ATOM      7  C   UNL     1      -1.252  11.858  21.220  0.00  0.00    +0.000 A 
ATOM      8  C   UNL     1      -1.699  11.664  22.515  0.00  0.00    +0.000 A 
ATOM      9  C   UNL     1      -1.190  10.592  23.239  0.00  0.00    +0.000 A 
ATOM     10  C   UNL     1      -0.225   9.721  22.664  0.00  0.00    +0.000 A 
ATOM     11  C   UNL     1       0.220   9.887  21.333  0.00  0.00    +0.000 A 
ATOM     12  C   UNL     1       1.306   8.996  20.675  0.00  0.00    +0.000 C 
ENDROOT
BRANCH   2  13
ATOM     13  C   UNL     1       3.208   7.281  18.803  0.00  0.00    +0.000 C 
BRANCH  13  14
ATOM     14  N   UNL     1       3.053   5.818  18.484  0.00  0.00    +0.000 N 
ATOM     15  C   UNL     1       2.158   4.935  19.111  0.00  0.00    +0.000 A 
ATOM     16  C   UNL     1       2.023   3.643  18.718  0.00  0.00    +0.000 A 
ATOM     17  C   UNL     1       2.826   3.156  17.627  0.00  0.00    +0.000 A 
ATOM     18  C   UNL     1       3.670   3.968  16.978  0.00  0.00    +0.000 A 
ATOM     19  C   UNL     1       3.804   5.384  17.381  0.00  0.00    +0.000 A 
ATOM     20  O   UNL     1       4.556   6.107  16.733  0.00  0.00    +0.000 OA
BRANCH  16  21
ATOM     21  C   UNL     1       1.055   2.656  19.349  0.00  0.00    +0.000 C 
ATOM     22  F   UNL     1       1.687   1.578  19.897  0.00  0.00    +0.000 F 
ATOM     23  F   UNL     1       0.323   3.210  20.347  0.00  0.00    +0.000 F 
ATOM     24  F   UNL     1       0.178   2.153  18.442  0.00  0.00    +0.000 F 
ENDBRANCH  16  21
ENDBRANCH  13  14
ENDBRANCH   2  13
TORSDOF 3
ENDMDL
MODEL 5
REMARK VINA RESULT:      -7.9      4.832      6.720
REMARK  Name = 
REMARK  3 active torsions:
REMARK  status: ('A' for Active; 'I' for Inactive)
REMARK    1  A    between atoms: C_2  and  C_3
REMARK    2  A    between atoms: C_3  and  N_4
REMARK    3  A    between atoms: C_6  and  C_7
REMARK                            x       y       z     vdW  Elec       q    Type
REMARK                         _______ _______ _______ _____ _____    ______ ____
ROOT
ATOM      1  O   UNL     1       2.266   8.373  17.317  0.00  0.00    +0.000 OA
ATOM      2  C   UNL     1       2.194   8.129  18.529  0.00  0.00    +0.000 C 
ATOM      3  N   UNL     1       1.527   9.031  19.397  0.00  0.00    +0.000 N 
ATOM      4  C   UNL     1       0.941  10.150  18.676  0.00  0.00    +0.000 C 
ATOM      5  C   UNL     1       0.670  11.405  19.471  0.00  0.00    +0.000 C 
ATOM      6  C   UNL     1      -0.002  11.141  20.772  0.00  0.00    +0.000 A 
ATOM      7  C   UNL     1      -0.776  12.188  21.322  0.00  0.00    +0.000 A 
ATOM      8  C   UNL     1      -1.435  12.029  22.528  0.00  0.00    +0.000 A 
ATOM      9  C   UNL     1      -1.292  10.825  23.208  0.00  0.00    +0.000 A 
ATOM     10  C   UNL     1      -0.479   9.784  22.679  0.00  0.00    +0.000 A 
ATOM     11  C   UNL     1       0.175   9.920  21.434  0.00  0.00    +0.000 A 
ATOM     12  C   UNL     1       1.111   8.836  20.835  0.00  0.00    +0.000 C 
ENDROOT
BRANCH   2  13
ATOM     13  C   UNL     1       2.816   6.833  19.063  0.00  0.00    +0.000 C 
BRANCH  13  14
ATOM     14  N   UNL     1       3.242   5.707  18.159  0.00  0.00    +0.000 N 
ATOM     15  C   UNL     1       4.377   5.709  17.330  0.00  0.00    +0.000 A 
ATOM     16  C   UNL     1       4.736   4.626  16.596  0.00  0.00    +0.000 A 
ATOM     17  C   UNL     1       3.930   3.436  16.661  0.00  0.00    +0.000 A 
ATOM     18  C   UNL     1       2.856   3.376  17.460  0.00  0.00    +0.000 A 
ATOM     19  C   UNL     1       2.471   4.541  18.285  0.00  0.00    +0.000 A 
ATOM     20  O   UNL     1       1.507   4.431  19.037  0.00  0.00    +0.000 OA
BRANCH  16  21
ATOM     21  C   UNL     1       5.965   4.571  15.703  0.00  0.00    +0.000 C 
ATOM     22  F   UNL     1       6.137   3.348  15.121  0.00  0.00    +0.000 F 
ATOM     23  F   UNL     1       5.911   5.467  14.687  0.00  0.00    +0.000 F 
ATOM     24  F   UNL     1       7.108   4.820  16.394  0.00  0.00    +0.000 F 
ENDBRANCH  16  21
ENDBRANCH  13  14
ENDBRANCH   2  13
TORSDOF 3
ENDMDL
MODEL 6
REMARK VINA RESULT:      -7.6      4.383      6.368
REMARK  Name = 
REMARK  3 active torsions:
REMARK  status: ('A' for Active; 'I' for Inactive)
REMARK    1  A    between atoms: C_2  and  C_3
REMARK    2  A    between atoms: C_3  and  N_4
REMARK    3  A    between atoms: C_6  and  C_7
REMARK                            x       y       z     vdW  Elec       q    Type
REMARK                         _______ _______ _______ _____ _____    ______ ____
ROOT
ATOM      1  O   UNL     1       2.204   4.374  21.665  0.00  0.00    +0.000 OA
ATOM      2  C   UNL     1       2.275   4.746  20.485  0.00  0.00    +0.000 C 
ATOM      3  N   UNL     1       1.935   6.079  20.139  0.00  0.00    +0.000 N 
ATOM      4  C   UNL     1       1.586   6.874  21.306  0.00  0.00    +0.000 C 
ATOM      5  C   UNL     1       0.733   8.097  21.067  0.00  0.00    +0.000 C 
ATOM      6  C   UNL     1       1.203   8.925  19.924  0.00  0.00    +0.000 A 
ATOM      7  C   UNL     1       0.867  10.298  19.941  0.00  0.00    +0.000 A 
ATOM      8  C   UNL     1       1.264  11.141  18.918  0.00  0.00    +0.000 A 
ATOM      9  C   UNL     1       1.973  10.601  17.851  0.00  0.00    +0.000 A 
ATOM     10  C   UNL     1       2.276   9.212  17.809  0.00  0.00    +0.000 A 
ATOM     11  C   UNL     1       1.905   8.344  18.860  0.00  0.00    +0.000 A 
ATOM     12  C   UNL     1       2.167   6.815  18.842  0.00  0.00    +0.000 C 
ENDROOT
BRANCH   2  13
ATOM     13  C   UNL     1       2.756   3.753  19.422  0.00  0.00    +0.000 C 
BRANCH  13  14
ATOM     14  N   UNL     1       3.879   4.066  18.469  0.00  0.00    +0.000 N 
ATOM     15  C   UNL     1       5.158   4.521  18.834  0.00  0.00    +0.000 A 
ATOM     16  C   UNL     1       6.143   4.713  17.921  0.00  0.00    +0.000 A 
ATOM     17  C   UNL     1       5.873   4.449  16.532  0.00  0.00    +0.000 A 
ATOM     18  C   UNL     1       4.679   3.986  16.140  0.00  0.00    +0.000 A 
ATOM     19  C   UNL     1       3.607   3.746  17.130  0.00  0.00    +0.000 A 
ATOM     20  O   UNL     1       2.542   3.280  16.736  0.00  0.00    +0.000 OA
BRANCH  16  21
ATOM     21  C   UNL     1       7.547   5.181  18.268  0.00  0.00    +0.000 C 
ATOM     22  F   UNL     1       8.499   4.248  17.975  0.00  0.00    +0.000 F 
ATOM     23  F   UNL     1       7.902   6.304  17.595  0.00  0.00    +0.000 F 
ATOM     24  F   UNL     1       7.682   5.450  19.593  0.00  0.00    +0.000 F 
ENDBRANCH  16  21
ENDBRANCH  13  14
ENDBRANCH   2  13
TORSDOF 3
ENDMDL
MODEL 7
REMARK VINA RESULT:      -7.6      3.855      7.545
REMARK  Name = 
REMARK  3 active torsions:
REMARK  status: ('A' for Active; 'I' for Inactive)
REMARK    1  A    between atoms: C_2  and  C_3
REMARK    2  A    between atoms: C_3  and  N_4
REMARK    3  A    between atoms: C_6  and  C_7
REMARK                            x       y       z     vdW  Elec       q    Type
REMARK                         _______ _______ _______ _____ _____    ______ ____
ROOT
ATOM      1  O   UNL     1       6.707   4.660  19.186  0.00  0.00    +0.000 OA
ATOM      2  C   UNL     1       5.772   4.448  18.400  0.00  0.00    +0.000 C 
ATOM      3  N   UNL     1       5.996   4.499  17.001  0.00  0.00    +0.000 N 
ATOM      4  C   UNL     1       7.393   4.752  16.680  0.00  0.00    +0.000 C 
ATOM      5  C   UNL     1       7.684   5.333  15.317  0.00  0.00    +0.000 C 
ATOM      6  C   UNL     1       6.955   4.643  14.218  0.00  0.00    +0.000 A 
ATOM      7  C   UNL     1       7.528   4.703  12.927  0.00  0.00    +0.000 A 
ATOM      8  C   UNL     1       6.917   4.089  11.848  0.00  0.00    +0.000 A 
ATOM      9  C   UNL     1       5.706   3.439  12.053  0.00  0.00    +0.000 A 
ATOM     10  C   UNL     1       5.105   3.413  13.342  0.00  0.00    +0.000 A 
ATOM     11  C   UNL     1       5.730   4.008  14.460  0.00  0.00    +0.000 A 
ATOM     12  C   UNL     1       5.095   4.051  15.875  0.00  0.00    +0.000 C 
ENDROOT
BRANCH   2  13
ATOM     13  C   UNL     1       4.388   4.111  18.967  0.00  0.00    +0.000 C 
BRANCH  13  14
ATOM     14  N   UNL     1       3.414   5.171  19.408  0.00  0.00    +0.000 N 
ATOM     15  C   UNL     1       3.207   6.407  18.772  0.00  0.00    +0.000 A 
ATOM     16  C   UNL     1       2.257   7.282  19.187  0.00  0.00    +0.000 A 
ATOM     17  C   UNL     1       1.435   6.940  20.318  0.00  0.00    +0.000 A 
ATOM     18  C   UNL     1       1.574   5.760  20.937  0.00  0.00    +0.000 A 
ATOM     19  C   UNL     1       2.588   4.788  20.476  0.00  0.00    +0.000 A 
ATOM     20  O   UNL     1       2.654   3.701  21.042  0.00  0.00    +0.000 OA
BRANCH  16  21
ATOM     21  C   UNL     1       1.980   8.620  18.520  0.00  0.00    +0.000 C 
ATOM     22  F   UNL     1       1.033   8.533  17.542  0.00  0.00    +0.000 F 
ATOM     23  F   UNL     1       1.532   9.555  19.395  0.00  0.00    +0.000 F 
ATOM     24  F   UNL     1       3.088   9.130  17.923  0.00  0.00    +0.000 F 
ENDBRANCH  16  21
ENDBRANCH  13  14
ENDBRANCH   2  13
TORSDOF 3
ENDMDL
MODEL 8
REMARK VINA RESULT:      -7.6      0.997      1.147
REMARK  Name = 
REMARK  3 active torsions:
REMARK  status: ('A' for Active; 'I' for Inactive)
REMARK    1  A    between atoms: C_2  and  C_3
REMARK    2  A    between atoms: C_3  and  N_4
REMARK    3  A    between atoms: C_6  and  C_7
REMARK                            x       y       z     vdW  Elec       q    Type
REMARK                         _______ _______ _______ _____ _____    ______ ____
ROOT
ATOM      1  O   UNL     1       5.279   6.582  15.697  0.00  0.00    +0.000 OA
ATOM      2  C   UNL     1       5.432   5.499  16.280  0.00  0.00    +0.000 C 
ATOM      3  N   UNL     1       4.598   5.157  17.375  0.00  0.00    +0.000 N 
ATOM      4  C   UNL     1       3.586   6.172  17.628  0.00  0.00    +0.000 C 
ATOM      5  C   UNL     1       2.992   6.209  19.015  0.00  0.00    +0.000 C 
ATOM      6  C   UNL     1       2.602   4.866  19.523  0.00  0.00    +0.000 A 
ATOM      7  C   UNL     1       1.582   4.817  20.501  0.00  0.00    +0.000 A 
ATOM      8  C   UNL     1       1.158   3.610  21.027  0.00  0.00    +0.000 A 
ATOM      9  C   UNL     1       1.781   2.444  20.597  0.00  0.00    +0.000 A 
ATOM     10  C   UNL     1       2.836   2.492  19.645  0.00  0.00    +0.000 A 
ATOM     11  C   UNL     1       3.260   3.714  19.076  0.00  0.00    +0.000 A 
ATOM     12  C   UNL     1       4.437   3.828  18.071  0.00  0.00    +0.000 C 
ENDROOT
BRANCH   2  13
ATOM     13  C   UNL     1       6.516   4.536  15.783  0.00  0.00    +0.000 C 
BRANCH  13  14
ATOM     14  N   UNL     1       6.750   4.266  14.320  0.00  0.00    +0.000 N 
ATOM     15  C   UNL     1       6.095   3.287  13.553  0.00  0.00    +0.000 A 
ATOM     16  C   UNL     1       6.308   3.152  12.221  0.00  0.00    +0.000 A 
ATOM     17  C   UNL     1       7.238   4.034  11.566  0.00  0.00    +0.000 A 
ATOM     18  C   UNL     1       7.863   5.003  12.249  0.00  0.00    +0.000 A 
ATOM     19  C   UNL     1       7.617   5.176  13.696  0.00  0.00    +0.000 A 
ATOM     20  O   UNL     1       8.176   6.103  14.276  0.00  0.00    +0.000 OA
BRANCH  16  21
ATOM     21  C   UNL     1       5.609   2.125  11.345  0.00  0.00    +0.000 C 
ATOM     22  F   UNL     1       4.355   2.518  10.973  0.00  0.00    +0.000 F 
ATOM     23  F   UNL     1       6.282   1.877  10.194  0.00  0.00    +0.000 F 
ATOM     24  F   UNL     1       5.454   0.935  11.981  0.00  0.00    +0.000 F 
ENDBRANCH  16  21
ENDBRANCH  13  14
ENDBRANCH   2  13
TORSDOF 3
ENDMDL
MODEL 9
REMARK VINA RESULT:      -7.5      5.201      6.917
REMARK  Name = 
REMARK  3 active torsions:
REMARK  status: ('A' for Active; 'I' for Inactive)
REMARK    1  A    between atoms: C_2  and  C_3
REMARK    2  A    between atoms: C_3  and  N_4
REMARK    3  A    between atoms: C_6  and  C_7
REMARK                            x       y       z     vdW  Elec       q    Type
REMARK                         _______ _______ _______ _____ _____    ______ ____
ROOT
ATOM      1  O   UNL     1       4.183   7.036  16.317  0.00  0.00    +0.000 OA
ATOM      2  C   UNL     1       4.030   6.818  17.527  0.00  0.00    +0.000 C 
ATOM      3  N   UNL     1       3.136   7.617  18.285  0.00  0.00    +0.000 N 
ATOM      4  C   UNL     1       2.447   8.597  17.460  0.00  0.00    +0.000 C 
ATOM      5  C   UNL     1       1.889   9.810  18.166  0.00  0.00    +0.000 C 
ATOM      6  C   UNL     1       1.142   9.473  19.408  0.00  0.00    +0.000 A 
ATOM      7  C   UNL     1       0.151  10.387  19.833  0.00  0.00    +0.000 A 
ATOM      8  C   UNL     1      -0.591  10.152  20.977  0.00  0.00    +0.000 A 
ATOM      9  C   UNL     1      -0.317   9.011  21.722  0.00  0.00    +0.000 A 
ATOM     10  C   UNL     1       0.708   8.111  21.322  0.00  0.00    +0.000 A 
ATOM     11  C   UNL     1       1.454   8.320  20.140  0.00  0.00    +0.000 A 
ATOM     12  C   UNL     1       2.614   7.397  19.684  0.00  0.00    +0.000 C 
ENDROOT
BRANCH   2  13
ATOM     13  C   UNL     1       4.803   5.665  18.177  0.00  0.00    +0.000 C 
BRANCH  13  14
ATOM     14  N   UNL     1       4.134   4.390  18.620  0.00  0.00    +0.000 N 
ATOM     15  C   UNL     1       3.420   4.215  19.817  0.00  0.00    +0.000 A 
ATOM     16  C   UNL     1       2.782   3.055  20.114  0.00  0.00    +0.000 A 
ATOM     17  C   UNL     1       2.841   1.964  19.177  0.00  0.00    +0.000 A 
ATOM     18  C   UNL     1       3.483   2.094  18.010  0.00  0.00    +0.000 A 
ATOM     19  C   UNL     1       4.158   3.363  17.664  0.00  0.00    +0.000 A 
ATOM     20  O   UNL     1       4.699   3.457  16.566  0.00  0.00    +0.000 OA
BRANCH  16  21
ATOM     21  C   UNL     1       1.979   2.824  21.384  0.00  0.00    +0.000 C 
ATOM     22  F   UNL     1       2.200   3.786  22.327  0.00  0.00    +0.000 F 
ATOM     23  F   UNL     1       0.642   2.817  21.160  0.00  0.00    +0.000 F 
ATOM     24  F   UNL     1       2.291   1.642  21.976  0.00  0.00    +0.000 F 
ENDBRANCH  16  21
ENDBRANCH  13  14
ENDBRANCH   2  13
TORSDOF 3
ENDMDL
