MODEL 1
REMARK VINA RESULT:      -7.2      0.000      0.000
REMARK  Name = 
REMARK  4 active torsions:
REMARK  status: ('A' for Active; 'I' for Inactive)
REMARK    1  A    between atoms: C_3  and  O_4
REMARK    2  A    between atoms: C_5  and  C_6
REMARK    3  A    between atoms: C_9  and  O_10
REMARK    4  A    between atoms: C_16  and  O_17
REMARK                            x       y       z     vdW  Elec       q    Type
REMARK                         _______ _______ _______ _____ _____    ______ ____
ROOT
ATOM      1  O   UNL     1       8.047   5.859  17.813  0.00  0.00    +0.000 OA
ATOM      2  C   UNL     1       7.032   5.217  17.562  0.00  0.00    +0.000 A 
ATOM      3  C   UNL     1       6.106   4.842  18.657  0.00  0.00    +0.000 A 
ATOM      4  C   UNL     1       5.010   4.128  18.352  0.00  0.00    +0.000 A 
ATOM      5  O   UNL     1       4.671   3.705  17.076  0.00  0.00    +0.000 OA
ATOM      6  C   UNL     1       5.491   4.057  16.034  0.00  0.00    +0.000 A 
ATOM      7  C   UNL     1       5.106   3.649  14.756  0.00  0.00    +0.000 A 
ATOM      8  C   UNL     1       5.899   3.994  13.664  0.00  0.00    +0.000 A 
ATOM      9  C   UNL     1       7.071   4.729  13.831  0.00  0.00    +0.000 A 
ATOM     10  C   UNL     1       7.459   5.133  15.109  0.00  0.00    +0.000 A 
ATOM     11  C   UNL     1       6.662   4.795  16.207  0.00  0.00    +0.000 A 
ENDROOT
BRANCH   4  12
ATOM     12  C   UNL     1       4.037   3.724  19.375  0.00  0.00    +0.000 A 
ATOM     13  C   UNL     1       4.199   2.513  20.063  0.00  0.00    +0.000 A 
ATOM     14  C   UNL     1       3.281   2.131  21.045  0.00  0.00    +0.000 A 
ATOM     15  C   UNL     1       2.205   2.962  21.337  0.00  0.00    +0.000 A 
ATOM     16  C   UNL     1       2.029   4.164  20.660  0.00  0.00    +0.000 A 
ATOM     17  C   UNL     1       2.945   4.547  19.679  0.00  0.00    +0.000 A 
BRANCH  15  18
ATOM     18  O   UNL     1       1.288   2.630  22.290  0.00  0.00    +0.000 OA
ATOM     19  H   UNL     1       0.399   2.755  21.921  0.00  0.00    +0.000 HD
ENDBRANCH  15  18
ENDBRANCH   4  12
BRANCH   3  20
ATOM     20  O   UNL     1       6.428   5.259  19.935  0.00  0.00    +0.000 OA
ATOM     21  H   UNL     1       5.686   4.949  20.497  0.00  0.00    +0.000 HD
ENDBRANCH   3  20
BRANCH   8  22
ATOM     22  O   UNL     1       5.560   3.629  12.395  0.00  0.00    +0.000 OA
ATOM     23  H   UNL     1       6.200   2.974  12.070  0.00  0.00    +0.000 HD
ENDBRANCH   8  22
TORSDOF 4
ENDMDL
MODEL 2
REMARK VINA RESULT:      -7.2      3.450      4.521
REMARK  Name = 
REMARK  4 active torsions:
REMARK  status: ('A' for Active; 'I' for Inactive)
REMARK    1  A    between atoms: C_3  and  O_4
REMARK    2  A    between atoms: C_5  and  C_6
REMARK    3  A    between atoms: C_9  and  O_10
REMARK    4  A    between atoms: C_16  and  O_17
REMARK                            x       y       z     vdW  Elec       q    Type
REMARK                         _______ _______ _______ _____ _____    ______ ____
ROOT
ATOM      1  O   UNL     1       2.929   2.742  17.507  0.00  0.00    +0.000 OA
ATOM      2  C   UNL     1       3.299   3.909  17.426  0.00  0.00    +0.000 A 
ATOM      3  C   UNL     1       2.542   4.974  18.126  0.00  0.00    +0.000 A 
ATOM      4  C   UNL     1       2.966   6.243  18.008  0.00  0.00    +0.000 A 
ATOM      5  O   UNL     1       4.069   6.644  17.271  0.00  0.00    +0.000 OA
ATOM      6  C   UNL     1       4.810   5.682  16.632  0.00  0.00    +0.000 A 
ATOM      7  C   UNL     1       5.936   6.111  15.927  0.00  0.00    +0.000 A 
ATOM      8  C   UNL     1       6.727   5.169  15.273  0.00  0.00    +0.000 A 
ATOM      9  C   UNL     1       6.405   3.814  15.304  0.00  0.00    +0.000 A 
ATOM     10  C   UNL     1       5.277   3.386  16.004  0.00  0.00    +0.000 A 
ATOM     11  C   UNL     1       4.484   4.327  16.668  0.00  0.00    +0.000 A 
ENDROOT
BRANCH   4  12
ATOM     12  C   UNL     1       2.279   7.356  18.677  0.00  0.00    +0.000 A 
ATOM     13  C   UNL     1       2.053   7.316  20.059  0.00  0.00    +0.000 A 
ATOM     14  C   UNL     1       1.411   8.379  20.702  0.00  0.00    +0.000 A 
ATOM     15  C   UNL     1       0.999   9.479  19.958  0.00  0.00    +0.000 A 
ATOM     16  C   UNL     1       1.213   9.532  18.585  0.00  0.00    +0.000 A 
ATOM     17  C   UNL     1       1.854   8.471  17.943  0.00  0.00    +0.000 A 
BRANCH  15  18
ATOM     18  O   UNL     1       0.373  10.539  20.543  0.00  0.00    +0.000 OA
ATOM     19  H   UNL     1       1.014  11.261  20.643  0.00  0.00    +0.000 HD
ENDBRANCH  15  18
ENDBRANCH   4  12
BRANCH   3  20
ATOM     20  O   UNL     1       1.441   4.590  18.868  0.00  0.00    +0.000 OA
ATOM     21  H   UNL     1       1.813   4.178  19.677  0.00  0.00    +0.000 HD
ENDBRANCH   3  20
BRANCH   8  22
ATOM     22  O   UNL     1       7.844   5.536  14.582  0.00  0.00    +0.000 OA
ATOM     23  H   UNL     1       7.615   5.649  13.644  0.00  0.00    +0.000 HD
ENDBRANCH   8  22
TORSDOF 4
ENDMDL
MODEL 3
REMARK VINA RESULT:      -7.2      3.470      4.615
REMARK  Name = 
REMARK  4 active torsions:
REMARK  status: ('A' for Active; 'I' for Inactive)
REMARK    1  A    between atoms: C_3  and  O_4
REMARK    2  A    between atoms: C_5  and  C_6
REMARK    3  A    between atoms: C_9  and  O_10
REMARK    4  A    between atoms: C_16  and  O_17
REMARK                            x       y       z     vdW  Elec       q    Type
REMARK                         _______ _______ _______ _____ _____    ______ ____
ROOT
ATOM      1  O   UNL     1       2.926   2.773  17.555  0.00  0.00    +0.000 OA
ATOM      2  C   UNL     1       3.300   3.938  17.467  0.00  0.00    +0.000 A 
ATOM      3  C   UNL     1       2.543   5.010  18.156  0.00  0.00    +0.000 A 
ATOM      4  C   UNL     1       2.971   6.277  18.030  0.00  0.00    +0.000 A 
ATOM      5  O   UNL     1       4.080   6.669  17.296  0.00  0.00    +0.000 OA
ATOM      6  C   UNL     1       4.820   5.700  16.667  0.00  0.00    +0.000 A 
ATOM      7  C   UNL     1       5.951   6.120  15.965  0.00  0.00    +0.000 A 
ATOM      8  C   UNL     1       6.743   5.171  15.322  0.00  0.00    +0.000 A 
ATOM      9  C   UNL     1       6.416   3.817  15.361  0.00  0.00    +0.000 A 
ATOM     10  C   UNL     1       5.284   3.398  16.059  0.00  0.00    +0.000 A 
ATOM     11  C   UNL     1       4.490   4.346  16.712  0.00  0.00    +0.000 A 
ENDROOT
BRANCH   4  12
ATOM     12  C   UNL     1       2.285   7.398  18.687  0.00  0.00    +0.000 A 
ATOM     13  C   UNL     1       1.846   8.495  17.933  0.00  0.00    +0.000 A 
ATOM     14  C   UNL     1       1.182   9.558  18.552  0.00  0.00    +0.000 A 
ATOM     15  C   UNL     1       0.958   9.517  19.924  0.00  0.00    +0.000 A 
ATOM     16  C   UNL     1       1.391   8.438  20.686  0.00  0.00    +0.000 A 
ATOM     17  C   UNL     1       2.054   7.376  20.068  0.00  0.00    +0.000 A 
BRANCH  15  18
ATOM     18  O   UNL     1       0.312  10.530  20.568  0.00  0.00    +0.000 OA
ATOM     19  H   UNL     1      -0.425  10.154  21.077  0.00  0.00    +0.000 HD
ENDBRANCH  15  18
ENDBRANCH   4  12
BRANCH   3  20
ATOM     20  O   UNL     1       1.437   4.636  18.895  0.00  0.00    +0.000 OA
ATOM     21  H   UNL     1       1.522   5.124  19.741  0.00  0.00    +0.000 HD
ENDBRANCH   3  20
BRANCH   8  22
ATOM     22  O   UNL     1       7.864   5.529  14.633  0.00  0.00    +0.000 OA
ATOM     23  H   UNL     1       7.954   6.497  14.652  0.00  0.00    +0.000 HD
ENDBRANCH   8  22
TORSDOF 4
ENDMDL
MODEL 4
REMARK VINA RESULT:      -7.2      0.467      1.159
REMARK  Name = 
REMARK  4 active torsions:
REMARK  status: ('A' for Active; 'I' for Inactive)
REMARK    1  A    between atoms: C_3  and  O_4
REMARK    2  A    between atoms: C_5  and  C_6
REMARK    3  A    between atoms: C_9  and  O_10
REMARK    4  A    between atoms: C_16  and  O_17
REMARK                            x       y       z     vdW  Elec       q    Type
REMARK                         _______ _______ _______ _____ _____    ______ ____
ROOT
ATOM      1  O   UNL     1       7.871   6.042  17.650  0.00  0.00    +0.000 OA
ATOM      2  C   UNL     1       6.896   5.359  17.353  0.00  0.00    +0.000 A 
ATOM      3  C   UNL     1       5.895   5.010  18.389  0.00  0.00    +0.000 A 
ATOM      4  C   UNL     1       4.846   4.250  18.036  0.00  0.00    +0.000 A 
ATOM      5  O   UNL     1       4.621   3.756  16.760  0.00  0.00    +0.000 OA
ATOM      6  C   UNL     1       5.512   4.081  15.769  0.00  0.00    +0.000 A 
ATOM      7  C   UNL     1       5.241   3.599  14.487  0.00  0.00    +0.000 A 
ATOM      8  C   UNL     1       6.110   3.913  13.445  0.00  0.00    +0.000 A 
ATOM      9  C   UNL     1       7.246   4.690  13.666  0.00  0.00    +0.000 A 
ATOM     10  C   UNL     1       7.520   5.167  14.948  0.00  0.00    +0.000 A 
ATOM     11  C   UNL     1       6.646   4.860  15.996  0.00  0.00    +0.000 A 
ENDROOT
BRANCH   4  12
ATOM     12  C   UNL     1       3.804   3.868  18.998  0.00  0.00    +0.000 A 
ATOM     13  C   UNL     1       2.568   4.530  18.998  0.00  0.00    +0.000 A 
ATOM     14  C   UNL     1       1.570   4.161  19.904  0.00  0.00    +0.000 A 
ATOM     15  C   UNL     1       1.811   3.130  20.806  0.00  0.00    +0.000 A 
ATOM     16  C   UNL     1       3.034   2.468  20.821  0.00  0.00    +0.000 A 
ATOM     17  C   UNL     1       4.031   2.835  19.916  0.00  0.00    +0.000 A 
BRANCH  15  18
ATOM     18  O   UNL     1       0.865   2.736  21.705  0.00  0.00    +0.000 OA
ATOM     19  H   UNL     1       0.013   2.664  21.246  0.00  0.00    +0.000 HD
ENDBRANCH  15  18
ENDBRANCH   4  12
BRANCH   3  20
ATOM     20  O   UNL     1       6.104   5.499  19.666  0.00  0.00    +0.000 OA
ATOM     21  H   UNL     1       6.359   6.437  19.538  0.00  0.00    +0.000 HD
ENDBRANCH   3  20
BRANCH   8  22
ATOM     22  O   UNL     1       5.883   3.477  12.174  0.00  0.00    +0.000 OA
ATOM     23  H   UNL     1       5.454   2.606  12.208  0.00  0.00    +0.000 HD
ENDBRANCH   8  22
TORSDOF 4
ENDMDL
MODEL 5
REMARK VINA RESULT:      -7.0      4.528      7.269
REMARK  Name = 
REMARK  4 active torsions:
REMARK  status: ('A' for Active; 'I' for Inactive)
REMARK    1  A    between atoms: C_3  and  O_4
REMARK    2  A    between atoms: C_5  and  C_6
REMARK    3  A    between atoms: C_9  and  O_10
REMARK    4  A    between atoms: C_16  and  O_17
REMARK                            x       y       z     vdW  Elec       q    Type
REMARK                         _______ _______ _______ _____ _____    ______ ____
ROOT
ATOM      1  O   UNL     1       1.837   9.690  17.492  0.00  0.00    +0.000 OA
ATOM      2  C   UNL     1       1.818   8.970  18.485  0.00  0.00    +0.000 A 
ATOM      3  C   UNL     1       2.484   7.646  18.451  0.00  0.00    +0.000 A 
ATOM      4  C   UNL     1       2.434   6.876  19.550  0.00  0.00    +0.000 A 
ATOM      5  O   UNL     1       1.798   7.223  20.732  0.00  0.00    +0.000 OA
ATOM      6  C   UNL     1       1.193   8.452  20.809  0.00  0.00    +0.000 A 
ATOM      7  C   UNL     1       0.591   8.789  22.023  0.00  0.00    +0.000 A 
ATOM      8  C   UNL     1      -0.024  10.032  22.154  0.00  0.00    +0.000 A 
ATOM      9  C   UNL     1      -0.055  10.934  21.092  0.00  0.00    +0.000 A 
ATOM     10  C   UNL     1       0.542  10.595  19.878  0.00  0.00    +0.000 A 
ATOM     11  C   UNL     1       1.167   9.352  19.744  0.00  0.00    +0.000 A 
ENDROOT
BRANCH   4  12
ATOM     12  C   UNL     1       3.076   5.556  19.603  0.00  0.00    +0.000 A 
ATOM     13  C   UNL     1       2.331   4.423  19.960  0.00  0.00    +0.000 A 
ATOM     14  C   UNL     1       2.936   3.163  20.000  0.00  0.00    +0.000 A 
ATOM     15  C   UNL     1       4.284   3.042  19.681  0.00  0.00    +0.000 A 
ATOM     16  C   UNL     1       5.037   4.156  19.330  0.00  0.00    +0.000 A 
ATOM     17  C   UNL     1       4.434   5.415  19.289  0.00  0.00    +0.000 A 
BRANCH  15  18
ATOM     18  O   UNL     1       4.913   1.833  19.704  0.00  0.00    +0.000 OA
ATOM     19  H   UNL     1       5.764   1.934  20.160  0.00  0.00    +0.000 HD
ENDBRANCH  15  18
ENDBRANCH   4  12
BRANCH   3  20
ATOM     20  O   UNL     1       3.126   7.287  17.281  0.00  0.00    +0.000 OA
ATOM     21  H   UNL     1       3.046   6.310  17.239  0.00  0.00    +0.000 HD
ENDBRANCH   3  20
BRANCH   8  22
ATOM     22  O   UNL     1      -0.614  10.413  23.322  0.00  0.00    +0.000 OA
ATOM     23  H   UNL     1      -1.384   9.844  23.490  0.00  0.00    +0.000 HD
ENDBRANCH   8  22
TORSDOF 4
ENDMDL
MODEL 6
REMARK VINA RESULT:      -7.0      1.181      1.281
REMARK  Name = 
REMARK  4 active torsions:
REMARK  status: ('A' for Active; 'I' for Inactive)
REMARK    1  A    between atoms: C_3  and  O_4
REMARK    2  A    between atoms: C_5  and  C_6
REMARK    3  A    between atoms: C_9  and  O_10
REMARK    4  A    between atoms: C_16  and  O_17
REMARK                            x       y       z     vdW  Elec       q    Type
REMARK                         _______ _______ _______ _____ _____    ______ ____
ROOT
ATOM      1  O   UNL     1       7.604   6.569  16.706  0.00  0.00    +0.000 OA
ATOM      2  C   UNL     1       6.739   5.734  16.460  0.00  0.00    +0.000 A 
ATOM      3  C   UNL     1       5.733   5.386  17.491  0.00  0.00    +0.000 A 
ATOM      4  C   UNL     1       4.808   4.459  17.195  0.00  0.00    +0.000 A 
ATOM      5  O   UNL     1       4.717   3.789  15.984  0.00  0.00    +0.000 OA
ATOM      6  C   UNL     1       5.616   4.105  14.996  0.00  0.00    +0.000 A 
ATOM      7  C   UNL     1       5.479   3.442  13.776  0.00  0.00    +0.000 A 
ATOM      8  C   UNL     1       6.359   3.739  12.738  0.00  0.00    +0.000 A 
ATOM      9  C   UNL     1       7.375   4.678  12.904  0.00  0.00    +0.000 A 
ATOM     10  C   UNL     1       7.515   5.338  14.125  0.00  0.00    +0.000 A 
ATOM     11  C   UNL     1       6.629   5.047  15.168  0.00  0.00    +0.000 A 
ENDROOT
BRANCH   4  12
ATOM     12  C   UNL     1       3.770   4.063  18.155  0.00  0.00    +0.000 A 
ATOM     13  C   UNL     1       4.049   3.106  19.141  0.00  0.00    +0.000 A 
ATOM     14  C   UNL     1       3.068   2.735  20.065  0.00  0.00    +0.000 A 
ATOM     15  C   UNL     1       1.810   3.325  19.999  0.00  0.00    +0.000 A 
ATOM     16  C   UNL     1       1.516   4.272  19.025  0.00  0.00    +0.000 A 
ATOM     17  C   UNL     1       2.496   4.643  18.102  0.00  0.00    +0.000 A 
BRANCH  15  18
ATOM     18  O   UNL     1       0.825   2.996  20.882  0.00  0.00    +0.000 OA
ATOM     19  H   UNL     1       1.163   3.116  21.784  0.00  0.00    +0.000 HD
ENDBRANCH  15  18
ENDBRANCH   4  12
BRANCH   3  20
ATOM     20  O   UNL     1       5.807   6.047  18.703  0.00  0.00    +0.000 OA
ATOM     21  H   UNL     1       4.881   6.091  19.024  0.00  0.00    +0.000 HD
ENDBRANCH   3  20
BRANCH   8  22
ATOM     22  O   UNL     1       6.259   3.127  11.524  0.00  0.00    +0.000 OA
ATOM     23  H   UNL     1       6.026   2.193  11.656  0.00  0.00    +0.000 HD
ENDBRANCH   8  22
TORSDOF 4
ENDMDL
MODEL 7
REMARK VINA RESULT:      -7.0      4.534      7.269
REMARK  Name = 
REMARK  4 active torsions:
REMARK  status: ('A' for Active; 'I' for Inactive)
REMARK    1  A    between atoms: C_3  and  O_4
REMARK    2  A    between atoms: C_5  and  C_6
REMARK    3  A    between atoms: C_9  and  O_10
REMARK    4  A    between atoms: C_16  and  O_17
REMARK                            x       y       z     vdW  Elec       q    Type
REMARK                         _______ _______ _______ _____ _____    ______ ____
ROOT
ATOM      1  O   UNL     1       1.825   9.727  17.484  0.00  0.00    +0.000 OA
ATOM      2  C   UNL     1       1.815   8.999  18.472  0.00  0.00    +0.000 A 
ATOM      3  C   UNL     1       2.491   7.680  18.424  0.00  0.00    +0.000 A 
ATOM      4  C   UNL     1       2.452   6.901  19.517  0.00  0.00    +0.000 A 
ATOM      5  O   UNL     1       1.820   7.234  20.705  0.00  0.00    +0.000 OA
ATOM      6  C   UNL     1       1.206   8.458  20.795  0.00  0.00    +0.000 A 
ATOM      7  C   UNL     1       0.608   8.782  22.014  0.00  0.00    +0.000 A 
ATOM      8  C   UNL     1      -0.015  10.019  22.158  0.00  0.00    +0.000 A 
ATOM      9  C   UNL     1      -0.057  10.929  21.103  0.00  0.00    +0.000 A 
ATOM     10  C   UNL     1       0.536  10.604  19.883  0.00  0.00    +0.000 A 
ATOM     11  C   UNL     1       1.168   9.366  19.737  0.00  0.00    +0.000 A 
ENDROOT
BRANCH   4  12
ATOM     12  C   UNL     1       3.104   5.585  19.557  0.00  0.00    +0.000 A 
ATOM     13  C   UNL     1       4.472   5.468  19.272  0.00  0.00    +0.000 A 
ATOM     14  C   UNL     1       5.099   4.219  19.321  0.00  0.00    +0.000 A 
ATOM     15  C   UNL     1       4.355   3.093  19.656  0.00  0.00    +0.000 A 
ATOM     16  C   UNL     1       2.997   3.193  19.936  0.00  0.00    +0.000 A 
ATOM     17  C   UNL     1       2.370   4.439  19.888  0.00  0.00    +0.000 A 
BRANCH  15  18
ATOM     18  O   UNL     1       4.926   1.857  19.718  0.00  0.00    +0.000 OA
ATOM     19  H   UNL     1       5.529   1.832  20.479  0.00  0.00    +0.000 HD
ENDBRANCH  15  18
ENDBRANCH   4  12
BRANCH   3  20
ATOM     20  O   UNL     1       3.130   7.334  17.248  0.00  0.00    +0.000 OA
ATOM     21  H   UNL     1       2.851   6.410  17.071  0.00  0.00    +0.000 HD
ENDBRANCH   3  20
BRANCH   8  22
ATOM     22  O   UNL     1      -0.602  10.387  23.332  0.00  0.00    +0.000 OA
ATOM     23  H   UNL     1      -0.006  10.985  23.812  0.00  0.00    +0.000 HD
ENDBRANCH   8  22
TORSDOF 4
ENDMDL
MODEL 8
REMARK VINA RESULT:      -6.9      4.657      7.505
REMARK  Name = 
REMARK  4 active torsions:
REMARK  status: ('A' for Active; 'I' for Inactive)
REMARK    1  A    between atoms: C_3  and  O_4
REMARK    2  A    between atoms: C_5  and  C_6
REMARK    3  A    between atoms: C_9  and  O_10
REMARK    4  A    between atoms: C_16  and  O_17
REMARK                            x       y       z     vdW  Elec       q    Type
REMARK                         _______ _______ _______ _____ _____    ______ ____
ROOT
ATOM      1  O   UNL     1       1.757  10.486  17.829  0.00  0.00    +0.000 OA
ATOM      2  C   UNL     1       1.731   9.538  18.607  0.00  0.00    +0.000 A 
ATOM      3  C   UNL     1       2.315   8.236  18.205  0.00  0.00    +0.000 A 
ATOM      4  C   UNL     1       2.259   7.214  19.075  0.00  0.00    +0.000 A 
ATOM      5  O   UNL     1       1.690   7.278  20.337  0.00  0.00    +0.000 OA
ATOM      6  C   UNL     1       1.164   8.475  20.754  0.00  0.00    +0.000 A 
ATOM      7  C   UNL     1       0.630   8.521  22.043  0.00  0.00    +0.000 A 
ATOM      8  C   UNL     1       0.096   9.717  22.515  0.00  0.00    +0.000 A 
ATOM      9  C   UNL     1       0.080  10.861  21.719  0.00  0.00    +0.000 A 
ATOM     10  C   UNL     1       0.610  10.814  20.429  0.00  0.00    +0.000 A 
ATOM     11  C   UNL     1       1.152   9.617  19.954  0.00  0.00    +0.000 A 
ENDROOT
BRANCH   4  12
ATOM     12  C   UNL     1       2.822   5.894  18.760  0.00  0.00    +0.000 A 
ATOM     13  C   UNL     1       4.096   5.542  19.226  0.00  0.00    +0.000 A 
ATOM     14  C   UNL     1       4.631   4.282  18.939  0.00  0.00    +0.000 A 
ATOM     15  C   UNL     1       3.887   3.379  18.186  0.00  0.00    +0.000 A 
ATOM     16  C   UNL     1       2.624   3.716  17.713  0.00  0.00    +0.000 A 
ATOM     17  C   UNL     1       2.089   4.973  18.000  0.00  0.00    +0.000 A 
BRANCH  15  18
ATOM     18  O   UNL     1       4.368   2.140  17.885  0.00  0.00    +0.000 OA
ATOM     19  H   UNL     1       4.476   1.640  18.711  0.00  0.00    +0.000 HD
ENDBRANCH  15  18
ENDBRANCH   4  12
BRANCH   3  20
ATOM     20  O   UNL     1       2.890   8.156  16.951  0.00  0.00    +0.000 OA
ATOM     21  H   UNL     1       2.353   7.491  16.469  0.00  0.00    +0.000 HD
ENDBRANCH   3  20
BRANCH   8  22
ATOM     22  O   UNL     1      -0.426   9.816  23.771  0.00  0.00    +0.000 OA
ATOM     23  H   UNL     1       0.153  10.377  24.313  0.00  0.00    +0.000 HD
ENDBRANCH   8  22
TORSDOF 4
ENDMDL
MODEL 9
REMARK VINA RESULT:      -6.9      4.627      7.516
REMARK  Name = 
REMARK  4 active torsions:
REMARK  status: ('A' for Active; 'I' for Inactive)
REMARK    1  A    between atoms: C_3  and  O_4
REMARK    2  A    between atoms: C_5  and  C_6
REMARK    3  A    between atoms: C_9  and  O_10
REMARK    4  A    between atoms: C_16  and  O_17
REMARK                            x       y       z     vdW  Elec       q    Type
REMARK                         _______ _______ _______ _____ _____    ______ ____
ROOT
ATOM      1  O   UNL     1       1.773  10.453  17.838  0.00  0.00    +0.000 OA
ATOM      2  C   UNL     1       1.739   9.501  18.611  0.00  0.00    +0.000 A 
ATOM      3  C   UNL     1       2.312   8.197  18.201  0.00  0.00    +0.000 A 
ATOM      4  C   UNL     1       2.248   7.170  19.065  0.00  0.00    +0.000 A 
ATOM      5  O   UNL     1       1.678   7.232  20.327  0.00  0.00    +0.000 OA
ATOM      6  C   UNL     1       1.161   8.430  20.751  0.00  0.00    +0.000 A 
ATOM      7  C   UNL     1       0.626   8.472  22.039  0.00  0.00    +0.000 A 
ATOM      8  C   UNL     1       0.102   9.670  22.518  0.00  0.00    +0.000 A 
ATOM      9  C   UNL     1       0.095  10.819  21.729  0.00  0.00    +0.000 A 
ATOM     10  C   UNL     1       0.626  10.776  20.440  0.00  0.00    +0.000 A 
ATOM     11  C   UNL     1       1.159   9.577  19.957  0.00  0.00    +0.000 A 
ENDROOT
BRANCH   4  12
ATOM     12  C   UNL     1       2.800   5.848  18.743  0.00  0.00    +0.000 A 
ATOM     13  C   UNL     1       2.041   4.927  18.007  0.00  0.00    +0.000 A 
ATOM     14  C   UNL     1       2.568   3.672  17.687  0.00  0.00    +0.000 A 
ATOM     15  C   UNL     1       3.854   3.344  18.104  0.00  0.00    +0.000 A 
ATOM     16  C   UNL     1       4.617   4.245  18.838  0.00  0.00    +0.000 A 
ATOM     17  C   UNL     1       4.092   5.498  19.158  0.00  0.00    +0.000 A 
BRANCH  15  18
ATOM     18  O   UNL     1       4.408   2.134  17.812  0.00  0.00    +0.000 OA
ATOM     19  H   UNL     1       3.809   1.654  17.217  0.00  0.00    +0.000 HD
ENDBRANCH  15  18
ENDBRANCH   4  12
BRANCH   3  20
ATOM     20  O   UNL     1       2.888   8.119  16.947  0.00  0.00    +0.000 OA
ATOM     21  H   UNL     1       3.619   7.473  17.044  0.00  0.00    +0.000 HD
ENDBRANCH   3  20
BRANCH   8  22
ATOM     22  O   UNL     1      -0.421   9.766  23.774  0.00  0.00    +0.000 OA
ATOM     23  H   UNL     1      -0.455  10.702  24.034  0.00  0.00    +0.000 HD
ENDBRANCH   8  22
TORSDOF 4
ENDMDL
