MODEL 1
REMARK VINA RESULT:      -6.4      0.000      0.000
REMARK  Name = 
REMARK  16 active torsions:
REMARK  status: ('A' for Active; 'I' for Inactive)
REMARK    1  A    between atoms: C_1  and  C_2
REMARK    2  A    between atoms: C_2  and  C_3
REMARK    3  A    between atoms: C_3  and  C_4
REMARK    4  A    between atoms: C_4  and  C_5
REMARK    5  A    between atoms: C_5  and  C_6
REMARK    6  A    between atoms: C_6  and  C_7
REMARK    7  A    between atoms: C_7  and  C_8
REMARK    8  A    between atoms: C_8  and  C_9
REMARK    9  A    between atoms: C_9  and  C_10
REMARK   10  A    between atoms: C_10  and  C_11
REMARK   11  A    between atoms: C_11  and  C_12
REMARK   12  A    between atoms: C_12  and  S_13
REMARK   13  A    between atoms: S_13  and  C_16
REMARK   14  A    between atoms: C_17  and  O_18
REMARK   15  A    between atoms: C_19  and  O_20
REMARK   16  A    between atoms: C_21  and  O_22
REMARK                            x       y       z     vdW  Elec       q    Type
REMARK                         _______ _______ _______ _____ _____    ______ ____
ROOT
ATOM      1  C   UNL     1       4.060   3.323  18.523  0.00  0.00    +0.000 C 
ATOM      2  C   UNL     1       2.935   3.722  17.529  0.00  0.00    +0.000 C 
ATOM      3  C   UNL     1       1.642   4.259  18.175  0.00  0.00    +0.000 C 
ATOM      4  C   UNL     1       1.182   3.420  19.378  0.00  0.00    +0.000 C 
ATOM      5  C   UNL     1       2.317   3.411  20.383  0.00  0.00    +0.000 C 
ATOM      6  C   UNL     1       2.104   2.470  21.549  0.00  0.00    +0.000 C 
ATOM      7  O   UNL     1       3.435   2.056  21.889  0.00  0.00    +0.000 OA
ATOM      8  C   UNL     1       4.206   2.180  20.763  0.00  0.00    +0.000 C 
ATOM      9  O   UNL     1       5.308   1.681  20.624  0.00  0.00    +0.000 OA
ATOM     10  N   UNL     1       3.519   2.888  19.816  0.00  0.00    +0.000 N 
ENDROOT
BRANCH   1  11
ATOM     11  S   UNL     1       5.363   4.595  18.531  0.00  0.00    +0.000 S 
ATOM     12  O   UNL     1       6.630   4.002  18.158  0.00  0.00    +0.000 OA
ATOM     13  O   UNL     1       5.240   5.342  19.770  0.00  0.00    +0.000 OA
BRANCH  11  14
ATOM     14  C   UNL     1       4.836   5.647  17.182  0.00  0.00    +0.000 C 
BRANCH  14  15
ATOM     15  C   UNL     1       4.590   7.091  17.590  0.00  0.00    +0.000 C 
BRANCH  15  16
ATOM     16  C   UNL     1       3.118   7.483  17.408  0.00  0.00    +0.000 C 
BRANCH  16  17
ATOM     17  C   UNL     1       2.614   8.562  18.380  0.00  0.00    +0.000 C 
BRANCH  17  18
ATOM     18  C   UNL     1       1.334   9.268  17.930  0.00  0.00    +0.000 C 
BRANCH  18  19
ATOM     19  C   UNL     1       1.244  10.678  18.504  0.00  0.00    +0.000 C 
BRANCH  19  20
ATOM     20  C   UNL     1       0.018  10.854  19.387  0.00  0.00    +0.000 C 
BRANCH  20  21
ATOM     21  C   UNL     1      -1.160  10.096  18.784  0.00  0.00    +0.000 C 
BRANCH  21  22
ATOM     22  C   UNL     1      -1.865  10.938  17.729  0.00  0.00    +0.000 C 
BRANCH  22  23
ATOM     23  C   UNL     1      -2.139  10.112  16.477  0.00  0.00    +0.000 C 
BRANCH  23  25
ATOM     24  C   UNL     1      -3.604  10.166  14.440  0.00  0.00    +0.000 C 
ATOM     25  C   UNL     1      -3.539  10.391  15.940  0.00  0.00    +0.000 C 
ENDBRANCH  23  25
ENDBRANCH  22  23
ENDBRANCH  21  22
ENDBRANCH  20  21
ENDBRANCH  19  20
ENDBRANCH  18  19
ENDBRANCH  17  18
ENDBRANCH  16  17
ENDBRANCH  15  16
ENDBRANCH  14  15
ENDBRANCH  11  14
ENDBRANCH   1  11
BRANCH   2  26
ATOM     26  O   UNL     1       2.584   2.593  16.697  0.00  0.00    +0.000 OA
ATOM     27  H   UNL     1       1.619   2.586  16.553  0.00  0.00    +0.000 HD
ENDBRANCH   2  26
BRANCH   3  28
ATOM     28  O   UNL     1       0.590   4.275  17.190  0.00  0.00    +0.000 OA
ATOM     29  H   UNL     1      -0.233   4.508  17.670  0.00  0.00    +0.000 HD
ENDBRANCH   3  28
BRANCH   4  30
ATOM     30  O   UNL     1       0.007   3.929  20.008  0.00  0.00    +0.000 OA
ATOM     31  H   UNL     1       0.195   4.059  20.956  0.00  0.00    +0.000 HD
ENDBRANCH   4  30
TORSDOF 15
ENDMDL
MODEL 2
REMARK VINA RESULT:      -6.4      5.139      8.673
REMARK  Name = 
REMARK  16 active torsions:
REMARK  status: ('A' for Active; 'I' for Inactive)
REMARK    1  A    between atoms: C_1  and  C_2
REMARK    2  A    between atoms: C_2  and  C_3
REMARK    3  A    between atoms: C_3  and  C_4
REMARK    4  A    between atoms: C_4  and  C_5
REMARK    5  A    between atoms: C_5  and  C_6
REMARK    6  A    between atoms: C_6  and  C_7
REMARK    7  A    between atoms: C_7  and  C_8
REMARK    8  A    between atoms: C_8  and  C_9
REMARK    9  A    between atoms: C_9  and  C_10
REMARK   10  A    between atoms: C_10  and  C_11
REMARK   11  A    between atoms: C_11  and  C_12
REMARK   12  A    between atoms: C_12  and  S_13
REMARK   13  A    between atoms: S_13  and  C_16
REMARK   14  A    between atoms: C_17  and  O_18
REMARK   15  A    between atoms: C_19  and  O_20
REMARK   16  A    between atoms: C_21  and  O_22
REMARK                            x       y       z     vdW  Elec       q    Type
REMARK                         _______ _______ _______ _____ _____    ______ ____
ROOT
ATOM      1  C   UNL     1       1.171  11.160  20.723  0.00  0.00    +0.000 C 
ATOM      2  C   UNL     1       0.729   9.955  21.597  0.00  0.00    +0.000 C 
ATOM      3  C   UNL     1      -0.672  10.074  22.227  0.00  0.00    +0.000 C 
ATOM      4  C   UNL     1      -0.935  11.457  22.844  0.00  0.00    +0.000 C 
ATOM      5  C   UNL     1      -0.756  12.484  21.742  0.00  0.00    +0.000 C 
ATOM      6  C   UNL     1      -0.792  13.918  22.223  0.00  0.00    +0.000 C 
ATOM      7  O   UNL     1       0.085  14.595  21.311  0.00  0.00    +0.000 OA
ATOM      8  C   UNL     1       0.970  13.670  20.825  0.00  0.00    +0.000 C 
ATOM      9  O   UNL     1       2.000  13.943  20.235  0.00  0.00    +0.000 OA
ATOM     10  N   UNL     1       0.547  12.413  21.164  0.00  0.00    +0.000 N 
ENDROOT
BRANCH   1  11
ATOM     11  S   UNL     1       1.052  10.726  18.959  0.00  0.00    +0.000 S 
ATOM     12  O   UNL     1       2.131  11.354  18.225  0.00  0.00    +0.000 OA
ATOM     13  O   UNL     1      -0.326  10.928  18.549  0.00  0.00    +0.000 OA
BRANCH  11  14
ATOM     14  C   UNL     1       1.377   8.966  19.007  0.00  0.00    +0.000 C 
BRANCH  14  15
ATOM     15  C   UNL     1       2.245   8.471  17.861  0.00  0.00    +0.000 C 
BRANCH  15  16
ATOM     16  C   UNL     1       3.254   7.418  18.338  0.00  0.00    +0.000 C 
BRANCH  16  17
ATOM     17  C   UNL     1       3.341   6.164  17.452  0.00  0.00    +0.000 C 
BRANCH  17  18
ATOM     18  C   UNL     1       4.662   5.400  17.569  0.00  0.00    +0.000 C 
BRANCH  18  19
ATOM     19  C   UNL     1       4.425   3.913  17.810  0.00  0.00    +0.000 C 
BRANCH  19  20
ATOM     20  C   UNL     1       3.070   3.462  17.284  0.00  0.00    +0.000 C 
BRANCH  20  21
ATOM     21  C   UNL     1       2.739   2.081  17.839  0.00  0.00    +0.000 C 
BRANCH  21  22
ATOM     22  C   UNL     1       1.540   2.146  18.776  0.00  0.00    +0.000 C 
BRANCH  22  23
ATOM     23  C   UNL     1       1.070   3.586  18.950  0.00  0.00    +0.000 C 
BRANCH  23  25
ATOM     24  C   UNL     1       2.248   4.793  20.809  0.00  0.00    +0.000 C 
ATOM     25  C   UNL     1       1.032   3.968  20.426  0.00  0.00    +0.000 C 
ENDBRANCH  23  25
ENDBRANCH  22  23
ENDBRANCH  21  22
ENDBRANCH  20  21
ENDBRANCH  19  20
ENDBRANCH  18  19
ENDBRANCH  17  18
ENDBRANCH  16  17
ENDBRANCH  15  16
ENDBRANCH  14  15
ENDBRANCH  11  14
ENDBRANCH   1  11
BRANCH   2  26
ATOM     26  O   UNL     1       1.682   9.738  22.663  0.00  0.00    +0.000 OA
ATOM     27  H   UNL     1       1.313   9.097  23.299  0.00  0.00    +0.000 HD
ENDBRANCH   2  26
BRANCH   3  28
ATOM     28  O   UNL     1      -0.819   9.072  23.253  0.00  0.00    +0.000 OA
ATOM     29  H   UNL     1       0.086   8.859  23.562  0.00  0.00    +0.000 HD
ENDBRANCH   3  28
BRANCH   4  30
ATOM     30  O   UNL     1      -2.244  11.592  23.397  0.00  0.00    +0.000 OA
ATOM     31  H   UNL     1      -2.260  12.380  23.969  0.00  0.00    +0.000 HD
ENDBRANCH   4  30
TORSDOF 15
ENDMDL
MODEL 3
REMARK VINA RESULT:      -6.3      1.640      2.656
REMARK  Name = 
REMARK  16 active torsions:
REMARK  status: ('A' for Active; 'I' for Inactive)
REMARK    1  A    between atoms: C_1  and  C_2
REMARK    2  A    between atoms: C_2  and  C_3
REMARK    3  A    between atoms: C_3  and  C_4
REMARK    4  A    between atoms: C_4  and  C_5
REMARK    5  A    between atoms: C_5  and  C_6
REMARK    6  A    between atoms: C_6  and  C_7
REMARK    7  A    between atoms: C_7  and  C_8
REMARK    8  A    between atoms: C_8  and  C_9
REMARK    9  A    between atoms: C_9  and  C_10
REMARK   10  A    between atoms: C_10  and  C_11
REMARK   11  A    between atoms: C_11  and  C_12
REMARK   12  A    between atoms: C_12  and  S_13
REMARK   13  A    between atoms: S_13  and  C_16
REMARK   14  A    between atoms: C_17  and  O_18
REMARK   15  A    between atoms: C_19  and  O_20
REMARK   16  A    between atoms: C_21  and  O_22
REMARK                            x       y       z     vdW  Elec       q    Type
REMARK                         _______ _______ _______ _____ _____    ______ ____
ROOT
ATOM      1  C   UNL     1       4.102   3.278  18.585  0.00  0.00    +0.000 C 
ATOM      2  C   UNL     1       2.989   3.675  17.576  0.00  0.00    +0.000 C 
ATOM      3  C   UNL     1       1.688   4.211  18.204  0.00  0.00    +0.000 C 
ATOM      4  C   UNL     1       1.212   3.374  19.402  0.00  0.00    +0.000 C 
ATOM      5  C   UNL     1       2.334   3.367  20.422  0.00  0.00    +0.000 C 
ATOM      6  C   UNL     1       2.106   2.427  21.586  0.00  0.00    +0.000 C 
ATOM      7  O   UNL     1       3.433   2.015  21.944  0.00  0.00    +0.000 OA
ATOM      8  C   UNL     1       4.218   2.138  20.829  0.00  0.00    +0.000 C 
ATOM      9  O   UNL     1       5.323   1.639  20.705  0.00  0.00    +0.000 OA
ATOM     10  N   UNL     1       3.543   2.844  19.872  0.00  0.00    +0.000 N 
ENDROOT
BRANCH   1  11
ATOM     11  S   UNL     1       5.403   4.551  18.609  0.00  0.00    +0.000 S 
ATOM     12  O   UNL     1       6.702   3.927  18.467  0.00  0.00    +0.000 OA
ATOM     13  O   UNL     1       5.134   5.434  19.729  0.00  0.00    +0.000 OA
BRANCH  11  14
ATOM     14  C   UNL     1       5.056   5.438  17.093  0.00  0.00    +0.000 C 
BRANCH  14  15
ATOM     15  C   UNL     1       5.350   6.927  17.173  0.00  0.00    +0.000 C 
BRANCH  15  16
ATOM     16  C   UNL     1       4.066   7.759  17.058  0.00  0.00    +0.000 C 
BRANCH  16  17
ATOM     17  C   UNL     1       3.014   7.472  18.142  0.00  0.00    +0.000 C 
BRANCH  17  18
ATOM     18  C   UNL     1       1.672   8.173  17.920  0.00  0.00    +0.000 C 
BRANCH  18  19
ATOM     19  C   UNL     1       1.830   9.690  17.916  0.00  0.00    +0.000 C 
BRANCH  19  20
ATOM     20  C   UNL     1       0.503  10.398  18.144  0.00  0.00    +0.000 C 
BRANCH  20  21
ATOM     21  C   UNL     1       0.448  10.933  19.571  0.00  0.00    +0.000 C 
BRANCH  21  22
ATOM     22  C   UNL     1      -0.394  10.027  20.460  0.00  0.00    +0.000 C 
BRANCH  22  23
ATOM     23  C   UNL     1      -0.170  10.359  21.931  0.00  0.00    +0.000 C 
BRANCH  23  25
ATOM     24  C   UNL     1       1.133   8.240  21.601  0.00  0.00    +0.000 C 
ATOM     25  C   UNL     1       0.698   9.297  22.599  0.00  0.00    +0.000 C 
ENDBRANCH  23  25
ENDBRANCH  22  23
ENDBRANCH  21  22
ENDBRANCH  20  21
ENDBRANCH  19  20
ENDBRANCH  18  19
ENDBRANCH  17  18
ENDBRANCH  16  17
ENDBRANCH  15  16
ENDBRANCH  14  15
ENDBRANCH  11  14
ENDBRANCH   1  11
BRANCH   2  26
ATOM     26  O   UNL     1       2.650   2.545  16.741  0.00  0.00    +0.000 OA
ATOM     27  H   UNL     1       1.691   2.554  16.560  0.00  0.00    +0.000 HD
ENDBRANCH   2  26
BRANCH   3  28
ATOM     28  O   UNL     1       0.649   4.226  17.206  0.00  0.00    +0.000 OA
ATOM     29  H   UNL     1       1.072   3.959  16.363  0.00  0.00    +0.000 HD
ENDBRANCH   3  28
BRANCH   4  30
ATOM     30  O   UNL     1       0.029   3.883  20.015  0.00  0.00    +0.000 OA
ATOM     31  H   UNL     1      -0.507   3.131  20.328  0.00  0.00    +0.000 HD
ENDBRANCH   4  30
TORSDOF 15
ENDMDL
MODEL 4
REMARK VINA RESULT:      -6.3      5.161      8.787
REMARK  Name = 
REMARK  16 active torsions:
REMARK  status: ('A' for Active; 'I' for Inactive)
REMARK    1  A    between atoms: C_1  and  C_2
REMARK    2  A    between atoms: C_2  and  C_3
REMARK    3  A    between atoms: C_3  and  C_4
REMARK    4  A    between atoms: C_4  and  C_5
REMARK    5  A    between atoms: C_5  and  C_6
REMARK    6  A    between atoms: C_6  and  C_7
REMARK    7  A    between atoms: C_7  and  C_8
REMARK    8  A    between atoms: C_8  and  C_9
REMARK    9  A    between atoms: C_9  and  C_10
REMARK   10  A    between atoms: C_10  and  C_11
REMARK   11  A    between atoms: C_11  and  C_12
REMARK   12  A    between atoms: C_12  and  S_13
REMARK   13  A    between atoms: S_13  and  C_16
REMARK   14  A    between atoms: C_17  and  O_18
REMARK   15  A    between atoms: C_19  and  O_20
REMARK   16  A    between atoms: C_21  and  O_22
REMARK                            x       y       z     vdW  Elec       q    Type
REMARK                         _______ _______ _______ _____ _____    ______ ____
ROOT
ATOM      1  C   UNL     1       1.148  11.470  20.735  0.00  0.00    +0.000 C 
ATOM      2  C   UNL     1       0.711  10.152  21.430  0.00  0.00    +0.000 C 
ATOM      3  C   UNL     1      -0.682  10.182  22.088  0.00  0.00    +0.000 C 
ATOM      4  C   UNL     1      -0.932  11.461  22.903  0.00  0.00    +0.000 C 
ATOM      5  C   UNL     1      -0.761  12.637  21.960  0.00  0.00    +0.000 C 
ATOM      6  C   UNL     1      -0.785  13.986  22.645  0.00  0.00    +0.000 C 
ATOM      7  O   UNL     1       0.084  14.786  21.830  0.00  0.00    +0.000 OA
ATOM      8  C   UNL     1       0.959  13.939  21.204  0.00  0.00    +0.000 C 
ATOM      9  O   UNL     1       1.983  14.292  20.647  0.00  0.00    +0.000 OA
ATOM     10  N   UNL     1       0.535  12.648  21.362  0.00  0.00    +0.000 N 
ENDROOT
BRANCH   1  11
ATOM     11  S   UNL     1       1.006  11.298  18.928  0.00  0.00    +0.000 S 
ATOM     12  O   UNL     1       2.246  11.700  18.297  0.00  0.00    +0.000 OA
ATOM     13  O   UNL     1      -0.251  11.905  18.526  0.00  0.00    +0.000 OA
BRANCH  11  14
ATOM     14  C   UNL     1       0.857   9.522  18.755  0.00  0.00    +0.000 C 
BRANCH  14  15
ATOM     15  C   UNL     1       1.959   8.894  17.915  0.00  0.00    +0.000 C 
BRANCH  15  16
ATOM     16  C   UNL     1       2.258   7.459  18.368  0.00  0.00    +0.000 C 
BRANCH  16  17
ATOM     17  C   UNL     1       2.437   7.286  19.885  0.00  0.00    +0.000 C 
BRANCH  17  18
ATOM     18  C   UNL     1       1.561   6.195  20.503  0.00  0.00    +0.000 C 
BRANCH  18  19
ATOM     19  C   UNL     1       2.231   4.827  20.415  0.00  0.00    +0.000 C 
BRANCH  19  20
ATOM     20  C   UNL     1       1.266   3.701  20.757  0.00  0.00    +0.000 C 
BRANCH  20  21
ATOM     21  C   UNL     1       0.828   2.996  19.477  0.00  0.00    +0.000 C 
BRANCH  21  22
ATOM     22  C   UNL     1       1.847   1.944  19.061  0.00  0.00    +0.000 C 
BRANCH  22  23
ATOM     23  C   UNL     1       2.443   2.283  17.698  0.00  0.00    +0.000 C 
BRANCH  23  25
ATOM     24  C   UNL     1       4.000   4.148  17.072  0.00  0.00    +0.000 C 
ATOM     25  C   UNL     1       3.849   2.854  17.851  0.00  0.00    +0.000 C 
ENDBRANCH  23  25
ENDBRANCH  22  23
ENDBRANCH  21  22
ENDBRANCH  20  21
ENDBRANCH  19  20
ENDBRANCH  18  19
ENDBRANCH  17  18
ENDBRANCH  16  17
ENDBRANCH  15  16
ENDBRANCH  14  15
ENDBRANCH  11  14
ENDBRANCH   1  11
BRANCH   2  26
ATOM     26  O   UNL     1       1.675   9.780  22.441  0.00  0.00    +0.000 OA
ATOM     27  H   UNL     1       2.165   8.990  22.144  0.00  0.00    +0.000 HD
ENDBRANCH   2  26
BRANCH   3  28
ATOM     28  O   UNL     1      -0.822   9.042  22.959  0.00  0.00    +0.000 OA
ATOM     29  H   UNL     1      -1.598   9.224  23.529  0.00  0.00    +0.000 HD
ENDBRANCH   3  28
BRANCH   4  30
ATOM     30  O   UNL     1      -2.233  11.517  23.485  0.00  0.00    +0.000 OA
ATOM     31  H   UNL     1      -2.583  10.610  23.551  0.00  0.00    +0.000 HD
ENDBRANCH   4  30
TORSDOF 15
ENDMDL
MODEL 5
REMARK VINA RESULT:      -6.2      4.953      7.230
REMARK  Name = 
REMARK  16 active torsions:
REMARK  status: ('A' for Active; 'I' for Inactive)
REMARK    1  A    between atoms: C_1  and  C_2
REMARK    2  A    between atoms: C_2  and  C_3
REMARK    3  A    between atoms: C_3  and  C_4
REMARK    4  A    between atoms: C_4  and  C_5
REMARK    5  A    between atoms: C_5  and  C_6
REMARK    6  A    between atoms: C_6  and  C_7
REMARK    7  A    between atoms: C_7  and  C_8
REMARK    8  A    between atoms: C_8  and  C_9
REMARK    9  A    between atoms: C_9  and  C_10
REMARK   10  A    between atoms: C_10  and  C_11
REMARK   11  A    between atoms: C_11  and  C_12
REMARK   12  A    between atoms: C_12  and  S_13
REMARK   13  A    between atoms: S_13  and  C_16
REMARK   14  A    between atoms: C_17  and  O_18
REMARK   15  A    between atoms: C_19  and  O_20
REMARK   16  A    between atoms: C_21  and  O_22
REMARK                            x       y       z     vdW  Elec       q    Type
REMARK                         _______ _______ _______ _____ _____    ______ ____
ROOT
ATOM      1  C   UNL     1       4.194   5.165  18.144  0.00  0.00    +0.000 C 
ATOM      2  C   UNL     1       3.442   6.222  18.999  0.00  0.00    +0.000 C 
ATOM      3  C   UNL     1       2.824   5.694  20.308  0.00  0.00    +0.000 C 
ATOM      4  C   UNL     1       2.084   4.359  20.125  0.00  0.00    +0.000 C 
ATOM      5  C   UNL     1       3.082   3.363  19.566  0.00  0.00    +0.000 C 
ATOM      6  C   UNL     1       2.470   2.045  19.146  0.00  0.00    +0.000 C 
ATOM      7  O   UNL     1       3.303   1.627  18.054  0.00  0.00    +0.000 OA
ATOM      8  C   UNL     1       3.860   2.751  17.505  0.00  0.00    +0.000 C 
ATOM      9  O   UNL     1       4.408   2.790  16.418  0.00  0.00    +0.000 OA
ATOM     10  N   UNL     1       3.646   3.817  18.336  0.00  0.00    +0.000 N 
ENDROOT
BRANCH   1  11
ATOM     11  S   UNL     1       5.993   5.386  18.322  0.00  0.00    +0.000 S 
ATOM     12  O   UNL     1       6.689   4.398  17.525  0.00  0.00    +0.000 OA
ATOM     13  O   UNL     1       6.281   5.520  19.738  0.00  0.00    +0.000 OA
BRANCH  11  14
ATOM     14  C   UNL     1       6.230   6.980  17.542  0.00  0.00    +0.000 C 
BRANCH  14  15
ATOM     15  C   UNL     1       7.686   7.314  17.262  0.00  0.00    +0.000 C 
BRANCH  15  16
ATOM     16  C   UNL     1       8.242   8.306  18.292  0.00  0.00    +0.000 C 
BRANCH  16  17
ATOM     17  C   UNL     1       8.100   9.787  17.902  0.00  0.00    +0.000 C 
BRANCH  17  18
ATOM     18  C   UNL     1       9.265  10.672  18.351  0.00  0.00    +0.000 C 
BRANCH  18  19
ATOM     19  C   UNL     1       9.617  10.427  19.815  0.00  0.00    +0.000 C 
BRANCH  19  20
ATOM     20  C   UNL     1       9.881  11.727  20.559  0.00  0.00    +0.000 C 
BRANCH  20  21
ATOM     21  C   UNL     1      10.275  12.815  19.566  0.00  0.00    +0.000 C 
BRANCH  21  22
ATOM     22  C   UNL     1      11.789  12.910  19.436  0.00  0.00    +0.000 C 
BRANCH  22  23
ATOM     23  C   UNL     1      12.197  13.026  17.971  0.00  0.00    +0.000 C 
BRANCH  23  25
ATOM     24  C   UNL     1      11.303  15.152  16.980  0.00  0.00    +0.000 C 
ATOM     25  C   UNL     1      11.080  13.660  17.148  0.00  0.00    +0.000 C 
ENDBRANCH  23  25
ENDBRANCH  22  23
ENDBRANCH  21  22
ENDBRANCH  20  21
ENDBRANCH  19  20
ENDBRANCH  18  19
ENDBRANCH  17  18
ENDBRANCH  16  17
ENDBRANCH  15  16
ENDBRANCH  14  15
ENDBRANCH  11  14
ENDBRANCH   1  11
BRANCH   2  26
ATOM     26  O   UNL     1       2.388   6.833  18.221  0.00  0.00    +0.000 OA
ATOM     27  H   UNL     1       1.634   6.217  18.161  0.00  0.00    +0.000 HD
ENDBRANCH   2  26
BRANCH   3  28
ATOM     28  O   UNL     1       1.898   6.671  20.825  0.00  0.00    +0.000 OA
ATOM     29  H   UNL     1       1.004   6.282  20.725  0.00  0.00    +0.000 HD
ENDBRANCH   3  28
BRANCH   4  30
ATOM     30  O   UNL     1       1.540   3.841  21.338  0.00  0.00    +0.000 OA
ATOM     31  H   UNL     1       1.910   4.347  22.085  0.00  0.00    +0.000 HD
ENDBRANCH   4  30
TORSDOF 15
ENDMDL
MODEL 6
REMARK VINA RESULT:      -6.2      1.507      2.147
REMARK  Name = 
REMARK  16 active torsions:
REMARK  status: ('A' for Active; 'I' for Inactive)
REMARK    1  A    between atoms: C_1  and  C_2
REMARK    2  A    between atoms: C_2  and  C_3
REMARK    3  A    between atoms: C_3  and  C_4
REMARK    4  A    between atoms: C_4  and  C_5
REMARK    5  A    between atoms: C_5  and  C_6
REMARK    6  A    between atoms: C_6  and  C_7
REMARK    7  A    between atoms: C_7  and  C_8
REMARK    8  A    between atoms: C_8  and  C_9
REMARK    9  A    between atoms: C_9  and  C_10
REMARK   10  A    between atoms: C_10  and  C_11
REMARK   11  A    between atoms: C_11  and  C_12
REMARK   12  A    between atoms: C_12  and  S_13
REMARK   13  A    between atoms: S_13  and  C_16
REMARK   14  A    between atoms: C_17  and  O_18
REMARK   15  A    between atoms: C_19  and  O_20
REMARK   16  A    between atoms: C_21  and  O_22
REMARK                            x       y       z     vdW  Elec       q    Type
REMARK                         _______ _______ _______ _____ _____    ______ ____
ROOT
ATOM      1  C   UNL     1       4.037   3.381  18.492  0.00  0.00    +0.000 C 
ATOM      2  C   UNL     1       2.894   3.757  17.511  0.00  0.00    +0.000 C 
ATOM      3  C   UNL     1       1.600   4.273  18.170  0.00  0.00    +0.000 C 
ATOM      4  C   UNL     1       1.169   3.429  19.381  0.00  0.00    +0.000 C 
ATOM      5  C   UNL     1       2.316   3.444  20.373  0.00  0.00    +0.000 C 
ATOM      6  C   UNL     1       2.132   2.502  21.543  0.00  0.00    +0.000 C 
ATOM      7  O   UNL     1       3.474   2.113  21.869  0.00  0.00    +0.000 OA
ATOM      8  C   UNL     1       4.230   2.247  20.734  0.00  0.00    +0.000 C 
ATOM      9  O   UNL     1       5.339   1.767  20.583  0.00  0.00    +0.000 OA
ATOM     10  N   UNL     1       3.519   2.940  19.793  0.00  0.00    +0.000 N 
ENDROOT
BRANCH   1  11
ATOM     11  S   UNL     1       5.318   4.675  18.482  0.00  0.00    +0.000 S 
ATOM     12  O   UNL     1       6.571   4.122  18.013  0.00  0.00    +0.000 OA
ATOM     13  O   UNL     1       5.253   5.367  19.757  0.00  0.00    +0.000 OA
BRANCH  11  14
ATOM     14  C   UNL     1       4.698   5.773  17.210  0.00  0.00    +0.000 C 
BRANCH  14  15
ATOM     15  C   UNL     1       4.481   7.201  17.686  0.00  0.00    +0.000 C 
BRANCH  15  16
ATOM     16  C   UNL     1       3.001   7.476  17.979  0.00  0.00    +0.000 C 
BRANCH  16  17
ATOM     17  C   UNL     1       2.513   8.875  17.570  0.00  0.00    +0.000 C 
BRANCH  17  18
ATOM     18  C   UNL     1       1.115   9.230  18.082  0.00  0.00    +0.000 C 
BRANCH  18  19
ATOM     19  C   UNL     1       1.119   9.475  19.587  0.00  0.00    +0.000 C 
BRANCH  19  20
ATOM     20  C   UNL     1      -0.278   9.757  20.119  0.00  0.00    +0.000 C 
BRANCH  20  21
ATOM     21  C   UNL     1      -1.001  10.713  19.176  0.00  0.00    +0.000 C 
BRANCH  21  22
ATOM     22  C   UNL     1      -0.745  12.161  19.568  0.00  0.00    +0.000 C 
BRANCH  22  23
ATOM     23  C   UNL     1      -0.271  12.969  18.364  0.00  0.00    +0.000 C 
BRANCH  23  25
ATOM     24  C   UNL     1       2.170  13.006  18.946  0.00  0.00    +0.000 C 
ATOM     25  C   UNL     1       0.922  13.844  18.736  0.00  0.00    +0.000 C 
ENDBRANCH  23  25
ENDBRANCH  22  23
ENDBRANCH  21  22
ENDBRANCH  20  21
ENDBRANCH  19  20
ENDBRANCH  18  19
ENDBRANCH  17  18
ENDBRANCH  16  17
ENDBRANCH  15  16
ENDBRANCH  14  15
ENDBRANCH  11  14
ENDBRANCH   1  11
BRANCH   2  26
ATOM     26  O   UNL     1       2.553   2.620  16.686  0.00  0.00    +0.000 OA
ATOM     27  H   UNL     1       2.911   1.808  17.092  0.00  0.00    +0.000 HD
ENDBRANCH   2  26
BRANCH   3  28
ATOM     28  O   UNL     1       0.536   4.268  17.199  0.00  0.00    +0.000 OA
ATOM     29  H   UNL     1       0.315   3.327  17.037  0.00  0.00    +0.000 HD
ENDBRANCH   3  28
BRANCH   4  30
ATOM     30  O   UNL     1      -0.008   3.920  20.023  0.00  0.00    +0.000 OA
ATOM     31  H   UNL     1       0.057   3.729  20.977  0.00  0.00    +0.000 HD
ENDBRANCH   4  30
TORSDOF 15
ENDMDL
MODEL 7
REMARK VINA RESULT:      -6.1      4.991      7.444
REMARK  Name = 
REMARK  16 active torsions:
REMARK  status: ('A' for Active; 'I' for Inactive)
REMARK    1  A    between atoms: C_1  and  C_2
REMARK    2  A    between atoms: C_2  and  C_3
REMARK    3  A    between atoms: C_3  and  C_4
REMARK    4  A    between atoms: C_4  and  C_5
REMARK    5  A    between atoms: C_5  and  C_6
REMARK    6  A    between atoms: C_6  and  C_7
REMARK    7  A    between atoms: C_7  and  C_8
REMARK    8  A    between atoms: C_8  and  C_9
REMARK    9  A    between atoms: C_9  and  C_10
REMARK   10  A    between atoms: C_10  and  C_11
REMARK   11  A    between atoms: C_11  and  C_12
REMARK   12  A    between atoms: C_12  and  S_13
REMARK   13  A    between atoms: S_13  and  C_16
REMARK   14  A    between atoms: C_17  and  O_18
REMARK   15  A    between atoms: C_19  and  O_20
REMARK   16  A    between atoms: C_21  and  O_22
REMARK                            x       y       z     vdW  Elec       q    Type
REMARK                         _______ _______ _______ _____ _____    ______ ____
ROOT
ATOM      1  C   UNL     1       6.013   5.720  17.979  0.00  0.00    +0.000 C 
ATOM      2  C   UNL     1       4.780   5.637  18.920  0.00  0.00    +0.000 C 
ATOM      3  C   UNL     1       3.997   4.310  18.868  0.00  0.00    +0.000 C 
ATOM      4  C   UNL     1       3.756   3.814  17.433  0.00  0.00    +0.000 C 
ATOM      5  C   UNL     1       5.114   3.659  16.775  0.00  0.00    +0.000 C 
ATOM      6  C   UNL     1       5.052   3.359  15.294  0.00  0.00    +0.000 C 
ATOM      7  O   UNL     1       6.241   3.977  14.780  0.00  0.00    +0.000 OA
ATOM      8  C   UNL     1       6.582   4.991  15.636  0.00  0.00    +0.000 C 
ATOM      9  O   UNL     1       7.378   5.875  15.375  0.00  0.00    +0.000 OA
ATOM     10  N   UNL     1       5.845   4.885  16.784  0.00  0.00    +0.000 N 
ENDROOT
BRANCH   1  11
ATOM     11  S   UNL     1       7.545   5.530  18.943  0.00  0.00    +0.000 S 
ATOM     12  O   UNL     1       8.408   4.556  18.306  0.00  0.00    +0.000 OA
ATOM     13  O   UNL     1       7.171   5.377  20.337  0.00  0.00    +0.000 OA
BRANCH  11  14
ATOM     14  C   UNL     1       8.296   7.142  18.732  0.00  0.00    +0.000 C 
BRANCH  14  15
ATOM     15  C   UNL     1       7.723   7.937  17.570  0.00  0.00    +0.000 C 
BRANCH  15  16
ATOM     16  C   UNL     1       7.822   9.448  17.822  0.00  0.00    +0.000 C 
BRANCH  16  17
ATOM     17  C   UNL     1       8.950   9.867  18.780  0.00  0.00    +0.000 C 
BRANCH  17  18
ATOM     18  C   UNL     1       9.952  10.855  18.179  0.00  0.00    +0.000 C 
BRANCH  18  19
ATOM     19  C   UNL     1       9.346  12.248  18.040  0.00  0.00    +0.000 C 
BRANCH  19  20
ATOM     20  C   UNL     1      10.394  13.339  18.195  0.00  0.00    +0.000 C 
BRANCH  20  21
ATOM     21  C   UNL     1       9.816  14.493  19.008  0.00  0.00    +0.000 C 
BRANCH  21  22
ATOM     22  C   UNL     1       8.671  14.015  19.891  0.00  0.00    +0.000 C 
BRANCH  22  23
ATOM     23  C   UNL     1       9.074  14.052  21.361  0.00  0.00    +0.000 C 
BRANCH  23  25
ATOM     24  C   UNL     1       8.600  11.757  22.258  0.00  0.00    +0.000 C 
ATOM     25  C   UNL     1       9.678  12.719  21.791  0.00  0.00    +0.000 C 
ENDBRANCH  23  25
ENDBRANCH  22  23
ENDBRANCH  21  22
ENDBRANCH  20  21
ENDBRANCH  19  20
ENDBRANCH  18  19
ENDBRANCH  17  18
ENDBRANCH  16  17
ENDBRANCH  15  16
ENDBRANCH  14  15
ENDBRANCH  11  14
ENDBRANCH   1  11
BRANCH   2  26
ATOM     26  O   UNL     1       3.858   6.712  18.628  0.00  0.00    +0.000 OA
ATOM     27  H   UNL     1       3.005   6.533  19.066  0.00  0.00    +0.000 HD
ENDBRANCH   2  26
BRANCH   3  28
ATOM     28  O   UNL     1       2.723   4.483  19.520  0.00  0.00    +0.000 OA
ATOM     29  H   UNL     1       2.534   3.640  19.982  0.00  0.00    +0.000 HD
ENDBRANCH   3  28
BRANCH   4  30
ATOM     30  O   UNL     1       3.066   2.567  17.374  0.00  0.00    +0.000 OA
ATOM     31  H   UNL     1       2.931   2.331  16.437  0.00  0.00    +0.000 HD
ENDBRANCH   4  30
TORSDOF 15
ENDMDL
MODEL 8
REMARK VINA RESULT:      -6.0      4.524      7.067
REMARK  Name = 
REMARK  16 active torsions:
REMARK  status: ('A' for Active; 'I' for Inactive)
REMARK    1  A    between atoms: C_1  and  C_2
REMARK    2  A    between atoms: C_2  and  C_3
REMARK    3  A    between atoms: C_3  and  C_4
REMARK    4  A    between atoms: C_4  and  C_5
REMARK    5  A    between atoms: C_5  and  C_6
REMARK    6  A    between atoms: C_6  and  C_7
REMARK    7  A    between atoms: C_7  and  C_8
REMARK    8  A    between atoms: C_8  and  C_9
REMARK    9  A    between atoms: C_9  and  C_10
REMARK   10  A    between atoms: C_10  and  C_11
REMARK   11  A    between atoms: C_11  and  C_12
REMARK   12  A    between atoms: C_12  and  S_13
REMARK   13  A    between atoms: S_13  and  C_16
REMARK   14  A    between atoms: C_17  and  O_18
REMARK   15  A    between atoms: C_19  and  O_20
REMARK   16  A    between atoms: C_21  and  O_22
REMARK                            x       y       z     vdW  Elec       q    Type
REMARK                         _______ _______ _______ _____ _____    ______ ____
ROOT
ATOM      1  C   UNL     1       4.276   4.266  19.052  0.00  0.00    +0.000 C 
ATOM      2  C   UNL     1       4.662   2.780  18.816  0.00  0.00    +0.000 C 
ATOM      3  C   UNL     1       3.505   1.858  18.385  0.00  0.00    +0.000 C 
ATOM      4  C   UNL     1       2.226   2.077  19.210  0.00  0.00    +0.000 C 
ATOM      5  C   UNL     1       1.834   3.533  19.058  0.00  0.00    +0.000 C 
ATOM      6  C   UNL     1       0.700   3.965  19.962  0.00  0.00    +0.000 C 
ATOM      7  O   UNL     1       0.991   5.346  20.222  0.00  0.00    +0.000 OA
ATOM      8  C   UNL     1       2.342   5.518  20.072  0.00  0.00    +0.000 C 
ATOM      9  O   UNL     1       2.961   6.492  20.462  0.00  0.00    +0.000 OA
ATOM     10  N   UNL     1       2.880   4.408  19.481  0.00  0.00    +0.000 N 
ENDROOT
BRANCH   1  11
ATOM     11  S   UNL     1       4.845   5.287  17.656  0.00  0.00    +0.000 S 
ATOM     12  O   UNL     1       4.436   6.662  17.854  0.00  0.00    +0.000 OA
ATOM     13  O   UNL     1       4.498   4.588  16.431  0.00  0.00    +0.000 OA
BRANCH  11  14
ATOM     14  C   UNL     1       6.621   5.212  17.866  0.00  0.00    +0.000 C 
BRANCH  14  15
ATOM     15  C   UNL     1       7.147   6.116  18.969  0.00  0.00    +0.000 C 
BRANCH  15  16
ATOM     16  C   UNL     1       8.196   7.100  18.435  0.00  0.00    +0.000 C 
BRANCH  16  17
ATOM     17  C   UNL     1       7.638   8.197  17.513  0.00  0.00    +0.000 C 
BRANCH  17  18
ATOM     18  C   UNL     1       7.931   9.624  17.983  0.00  0.00    +0.000 C 
BRANCH  18  19
ATOM     19  C   UNL     1       9.284   9.714  18.681  0.00  0.00    +0.000 C 
BRANCH  19  20
ATOM     20  C   UNL     1       9.181  10.414  20.028  0.00  0.00    +0.000 C 
BRANCH  20  21
ATOM     21  C   UNL     1      10.118  11.617  20.053  0.00  0.00    +0.000 C 
BRANCH  21  22
ATOM     22  C   UNL     1       9.913  12.491  18.823  0.00  0.00    +0.000 C 
BRANCH  22  23
ATOM     23  C   UNL     1      10.991  13.566  18.742  0.00  0.00    +0.000 C 
BRANCH  23  25
ATOM     24  C   UNL     1      12.333  13.357  16.632  0.00  0.00    +0.000 C 
ATOM     25  C   UNL     1      11.164  14.052  17.307  0.00  0.00    +0.000 C 
ENDBRANCH  23  25
ENDBRANCH  22  23
ENDBRANCH  21  22
ENDBRANCH  20  21
ENDBRANCH  19  20
ENDBRANCH  18  19
ENDBRANCH  17  18
ENDBRANCH  16  17
ENDBRANCH  15  16
ENDBRANCH  14  15
ENDBRANCH  11  14
ENDBRANCH   1  11
BRANCH   2  26
ATOM     26  O   UNL     1       5.255   2.224  20.011  0.00  0.00    +0.000 OA
ATOM     27  H   UNL     1       5.810   1.459  19.770  0.00  0.00    +0.000 HD
ENDBRANCH   2  26
BRANCH   3  28
ATOM     28  O   UNL     1       3.916   0.484  18.520  0.00  0.00    +0.000 OA
ATOM     29  H   UNL     1       4.370   0.416  19.386  0.00  0.00    +0.000 HD
ENDBRANCH   3  28
BRANCH   4  30
ATOM     30  O   UNL     1       1.136   1.255  18.795  0.00  0.00    +0.000 OA
ATOM     31  H   UNL     1       0.444   1.827  18.415  0.00  0.00    +0.000 HD
ENDBRANCH   4  30
TORSDOF 15
ENDMDL
MODEL 9
REMARK VINA RESULT:      -6.0      4.763      8.606
REMARK  Name = 
REMARK  16 active torsions:
REMARK  status: ('A' for Active; 'I' for Inactive)
REMARK    1  A    between atoms: C_1  and  C_2
REMARK    2  A    between atoms: C_2  and  C_3
REMARK    3  A    between atoms: C_3  and  C_4
REMARK    4  A    between atoms: C_4  and  C_5
REMARK    5  A    between atoms: C_5  and  C_6
REMARK    6  A    between atoms: C_6  and  C_7
REMARK    7  A    between atoms: C_7  and  C_8
REMARK    8  A    between atoms: C_8  and  C_9
REMARK    9  A    between atoms: C_9  and  C_10
REMARK   10  A    between atoms: C_10  and  C_11
REMARK   11  A    between atoms: C_11  and  C_12
REMARK   12  A    between atoms: C_12  and  S_13
REMARK   13  A    between atoms: S_13  and  C_16
REMARK   14  A    between atoms: C_17  and  O_18
REMARK   15  A    between atoms: C_19  and  O_20
REMARK   16  A    between atoms: C_21  and  O_22
REMARK                            x       y       z     vdW  Elec       q    Type
REMARK                         _______ _______ _______ _____ _____    ______ ____
ROOT
ATOM      1  C   UNL     1      -0.503  10.158  20.396  0.00  0.00    +0.000 C 
ATOM      2  C   UNL     1      -0.861  10.587  18.947  0.00  0.00    +0.000 C 
ATOM      3  C   UNL     1      -0.860  12.107  18.689  0.00  0.00    +0.000 C 
ATOM      4  C   UNL     1      -1.569  12.902  19.797  0.00  0.00    +0.000 C 
ATOM      5  C   UNL     1      -0.866  12.582  21.102  0.00  0.00    +0.000 C 
ATOM      6  C   UNL     1      -1.559  13.135  22.329  0.00  0.00    +0.000 C 
ATOM      7  O   UNL     1      -1.245  12.174  23.348  0.00  0.00    +0.000 OA
ATOM      8  C   UNL     1      -1.001  10.978  22.726  0.00  0.00    +0.000 C 
ATOM      9  O   UNL     1      -0.959   9.901  23.294  0.00  0.00    +0.000 OA
ATOM     10  N   UNL     1      -0.881  11.181  21.378  0.00  0.00    +0.000 N 
ENDROOT
BRANCH   1  11
ATOM     11  S   UNL     1       1.198   9.512  20.453  0.00  0.00    +0.000 S 
ATOM     12  O   UNL     1       1.927  10.142  21.533  0.00  0.00    +0.000 OA
ATOM     13  O   UNL     1       1.724   9.540  19.100  0.00  0.00    +0.000 OA
BRANCH  11  14
ATOM     14  C   UNL     1       0.911   7.805  20.912  0.00  0.00    +0.000 C 
BRANCH  14  15
ATOM     15  C   UNL     1       1.743   6.809  20.121  0.00  0.00    +0.000 C 
BRANCH  15  16
ATOM     16  C   UNL     1       1.876   5.474  20.865  0.00  0.00    +0.000 C 
BRANCH  16  17
ATOM     17  C   UNL     1       1.051   4.321  20.271  0.00  0.00    +0.000 C 
BRANCH  17  18
ATOM     18  C   UNL     1       1.402   3.976  18.822  0.00  0.00    +0.000 C 
BRANCH  18  19
ATOM     19  C   UNL     1       1.503   2.468  18.617  0.00  0.00    +0.000 C 
BRANCH  19  20
ATOM     20  C   UNL     1       2.896   2.050  18.170  0.00  0.00    +0.000 C 
BRANCH  20  21
ATOM     21  C   UNL     1       3.714   3.288  17.818  0.00  0.00    +0.000 C 
BRANCH  21  22
ATOM     22  C   UNL     1       4.688   3.632  18.936  0.00  0.00    +0.000 C 
BRANCH  22  23
ATOM     23  C   UNL     1       5.075   5.106  18.877  0.00  0.00    +0.000 C 
BRANCH  23  25
ATOM     24  C   UNL     1       4.183   6.957  17.436  0.00  0.00    +0.000 C 
ATOM     25  C   UNL     1       4.944   5.643  17.456  0.00  0.00    +0.000 C 
ENDBRANCH  23  25
ENDBRANCH  22  23
ENDBRANCH  21  22
ENDBRANCH  20  21
ENDBRANCH  19  20
ENDBRANCH  18  19
ENDBRANCH  17  18
ENDBRANCH  16  17
ENDBRANCH  15  16
ENDBRANCH  14  15
ENDBRANCH  11  14
ENDBRANCH   1  11
BRANCH   2  26
ATOM     26  O   UNL     1      -2.161  10.072  18.582  0.00  0.00    +0.000 OA
ATOM     27  H   UNL     1      -2.116   9.099  18.519  0.00  0.00    +0.000 HD
ENDBRANCH   2  26
BRANCH   3  28
ATOM     28  O   UNL     1      -1.515  12.376  17.433  0.00  0.00    +0.000 OA
ATOM     29  H   UNL     1      -2.450  12.107  17.547  0.00  0.00    +0.000 HD
ENDBRANCH   3  28
BRANCH   4  30
ATOM     30  O   UNL     1      -1.542  14.313  19.589  0.00  0.00    +0.000 OA
ATOM     31  H   UNL     1      -0.679  14.554  19.205  0.00  0.00    +0.000 HD
ENDBRANCH   4  30
TORSDOF 15
ENDMDL
