MODEL 1
REMARK VINA RESULT:      -6.6      0.000      0.000
REMARK  Name = 
REMARK  6 active torsions:
REMARK  status: ('A' for Active; 'I' for Inactive)
REMARK    1  A    between atoms: C_1  and  C_2
REMARK    2  A    between atoms: C_2  and  N_3
REMARK    3  A    between atoms: C_10  and  C_11
REMARK    4  A    between atoms: C_14  and  C_15
REMARK    5  A    between atoms: N_23  and  C_24
REMARK    6  A    between atoms: C_24  and  C_25
REMARK                            x       y       z     vdW  Elec       q    Type
REMARK                         _______ _______ _______ _____ _____    ______ ____
ROOT
ATOM      1  N   UNL     1       1.387  17.275  19.399  0.00  0.00    +0.000 N 
ATOM      2  C   UNL     1       2.621  17.244  19.969  0.00  0.00    +0.000 C 
ATOM      3  O   UNL     1       3.509  18.076  19.851  0.00  0.00    +0.000 OA
ATOM      4  C   UNL     1       2.716  16.040  20.829  0.00  0.00    +0.000 C 
ATOM      5  C   UNL     1       1.286  15.492  20.898  0.00  0.00    +0.000 C 
ATOM      6  C   UNL     1       0.518  16.383  19.955  0.00  0.00    +0.000 C 
ATOM      7  O   UNL     1      -0.690  16.363  19.780  0.00  0.00    +0.000 OA
ATOM      8  C   UNL     1       1.399  14.023  20.511  0.00  0.00    +0.000 C 
ATOM      9  N   UNL     1       2.655  13.913  19.711  0.00  0.00    +0.000 NA
ATOM     10  C   UNL     1       3.631  14.933  20.265  0.00  0.00    +0.000 C 
ATOM     11  C   UNL     1       4.369  14.312  21.456  0.00  0.00    +0.000 C 
ATOM     12  C   UNL     1       5.454  15.295  21.882  0.00  0.00    +0.000 C 
ATOM     13  C   UNL     1       6.551  15.174  20.859  0.00  0.00    +0.000 C 
ATOM     14  N   UNL     1       6.082  15.584  19.545  0.00  0.00    +0.000 N 
ATOM     15  C   UNL     1       4.738  15.357  19.133  0.00  0.00    +0.000 C 
ATOM     16  O   UNL     1       4.387  15.492  17.955  0.00  0.00    +0.000 OA
ATOM     17  H   UNL     1       2.468  14.159  18.735  0.00  0.00    +0.000 HD
ENDROOT
BRANCH   8  18
ATOM     18  C   UNL     1       0.105  13.432  19.947  0.00  0.00    +0.000 A 
ATOM     19  C   UNL     1      -0.949  13.018  20.770  0.00  0.00    +0.000 A 
ATOM     20  C   UNL     1      -2.036  12.301  20.247  0.00  0.00    +0.000 A 
ATOM     21  C   UNL     1      -2.110  11.982  18.887  0.00  0.00    +0.000 A 
ATOM     22  C   UNL     1      -3.261  11.177  18.354  0.00  0.00    +0.000 C 
ATOM     23  C   UNL     1      -1.089  12.423  18.041  0.00  0.00    +0.000 A 
ATOM     24  C   UNL     1       0.010  13.127  18.573  0.00  0.00    +0.000 A 
ENDBRANCH   8  18
BRANCH   1  26
ATOM     25  C   UNL     1       1.690  17.695  17.052  0.00  0.00    +0.000 C 
ATOM     26  C   UNL     1       1.038  18.185  18.334  0.00  0.00    +0.000 C 
ENDBRANCH   1  26
BRANCH  14  27
ATOM     27  C   UNL     1       7.183  15.953  18.609  0.00  0.00    +0.000 C 
BRANCH  27  28
ATOM     28  C   UNL     1       8.132  14.802  18.253  0.00  0.00    +0.000 A 
ATOM     29  C   UNL     1       7.632  13.607  17.718  0.00  0.00    +0.000 A 
ATOM     30  C   UNL     1       8.469  12.519  17.428  0.00  0.00    +0.000 A 
ATOM     31  C   UNL     1       9.835  12.628  17.692  0.00  0.00    +0.000 A 
ATOM     32  F   UNL     1      10.634  11.578  17.442  0.00  0.00    +0.000 F 
ATOM     33  C   UNL     1      10.365  13.794  18.223  0.00  0.00    +0.000 A 
ATOM     34  C   UNL     1       9.522  14.881  18.503  0.00  0.00    +0.000 A 
ENDBRANCH  27  28
ENDBRANCH  14  27
TORSDOF 4
ENDMDL
MODEL 2
REMARK VINA RESULT:      -6.6      5.017      6.669
REMARK  Name = 
REMARK  6 active torsions:
REMARK  status: ('A' for Active; 'I' for Inactive)
REMARK    1  A    between atoms: C_1  and  C_2
REMARK    2  A    between atoms: C_2  and  N_3
REMARK    3  A    between atoms: C_10  and  C_11
REMARK    4  A    between atoms: C_14  and  C_15
REMARK    5  A    between atoms: N_23  and  C_24
REMARK    6  A    between atoms: C_24  and  C_25
REMARK                            x       y       z     vdW  Elec       q    Type
REMARK                         _______ _______ _______ _____ _____    ______ ____
ROOT
ATOM      1  N   UNL     1       0.377  13.974  20.832  0.00  0.00    +0.000 N 
ATOM      2  C   UNL     1       1.103  12.824  20.866  0.00  0.00    +0.000 C 
ATOM      3  O   UNL     1       2.182  12.618  20.331  0.00  0.00    +0.000 OA
ATOM      4  C   UNL     1       0.395  11.842  21.723  0.00  0.00    +0.000 C 
ATOM      5  C   UNL     1      -0.719  12.644  22.403  0.00  0.00    +0.000 C 
ATOM      6  C   UNL     1      -0.617  14.007  21.766  0.00  0.00    +0.000 C 
ATOM      7  O   UNL     1      -1.258  14.995  22.087  0.00  0.00    +0.000 OA
ATOM      8  C   UNL     1      -1.999  11.860  22.138  0.00  0.00    +0.000 C 
ATOM      9  N   UNL     1      -1.724  11.043  20.918  0.00  0.00    +0.000 NA
ATOM     10  C   UNL     1      -0.252  10.678  20.945  0.00  0.00    +0.000 C 
ATOM     11  C   UNL     1      -0.073   9.416  21.796  0.00  0.00    +0.000 C 
ATOM     12  C   UNL     1       1.382   8.981  21.666  0.00  0.00    +0.000 C 
ATOM     13  C   UNL     1       1.508   8.347  20.308  0.00  0.00    +0.000 C 
ATOM     14  N   UNL     1       1.247   9.317  19.256  0.00  0.00    +0.000 N 
ATOM     15  C   UNL     1       0.300  10.365  19.433  0.00  0.00    +0.000 C 
ATOM     16  O   UNL     1      -0.095  11.054  18.484  0.00  0.00    +0.000 OA
ATOM     17  H   UNL     1      -1.890  11.605  20.079  0.00  0.00    +0.000 HD
ENDROOT
BRANCH   8  18
ATOM     18  C   UNL     1      -3.268  12.714  22.189  0.00  0.00    +0.000 A 
ATOM     19  C   UNL     1      -3.869  13.088  23.396  0.00  0.00    +0.000 A 
ATOM     20  C   UNL     1      -5.132  13.698  23.416  0.00  0.00    +0.000 A 
ATOM     21  C   UNL     1      -5.832  13.962  22.234  0.00  0.00    +0.000 A 
ATOM     22  C   UNL     1      -7.202  14.576  22.279  0.00  0.00    +0.000 C 
ATOM     23  C   UNL     1      -5.230  13.635  21.016  0.00  0.00    +0.000 A 
ATOM     24  C   UNL     1      -3.969  13.005  21.000  0.00  0.00    +0.000 A 
ENDBRANCH   8  18
BRANCH   1  26
ATOM     25  C   UNL     1      -0.189  14.859  18.671  0.00  0.00    +0.000 C 
ATOM     26  C   UNL     1       0.661  15.053  19.916  0.00  0.00    +0.000 C 
ENDBRANCH   1  26
BRANCH  14  27
ATOM     27  C   UNL     1       1.806   8.924  17.931  0.00  0.00    +0.000 C 
BRANCH  27  28
ATOM     28  C   UNL     1       2.478   7.545  17.904  0.00  0.00    +0.000 A 
ATOM     29  C   UNL     1       3.850   7.428  17.639  0.00  0.00    +0.000 A 
ATOM     30  C   UNL     1       4.484   6.179  17.559  0.00  0.00    +0.000 A 
ATOM     31  C   UNL     1       3.724   5.022  17.736  0.00  0.00    +0.000 A 
ATOM     32  F   UNL     1       4.322   3.825  17.632  0.00  0.00    +0.000 F 
ATOM     33  C   UNL     1       2.364   5.100  17.998  0.00  0.00    +0.000 A 
ATOM     34  C   UNL     1       1.739   6.354  18.083  0.00  0.00    +0.000 A 
ENDBRANCH  27  28
ENDBRANCH  14  27
TORSDOF 4
ENDMDL
MODEL 3
REMARK VINA RESULT:      -6.5      5.303      7.118
REMARK  Name = 
REMARK  6 active torsions:
REMARK  status: ('A' for Active; 'I' for Inactive)
REMARK    1  A    between atoms: C_1  and  C_2
REMARK    2  A    between atoms: C_2  and  N_3
REMARK    3  A    between atoms: C_10  and  C_11
REMARK    4  A    between atoms: C_14  and  C_15
REMARK    5  A    between atoms: N_23  and  C_24
REMARK    6  A    between atoms: C_24  and  C_25
REMARK                            x       y       z     vdW  Elec       q    Type
REMARK                         _______ _______ _______ _____ _____    ______ ____
ROOT
ATOM      1  N   UNL     1       0.457  13.174  19.160  0.00  0.00    +0.000 N 
ATOM      2  C   UNL     1       1.134  12.148  19.743  0.00  0.00    +0.000 C 
ATOM      3  O   UNL     1       2.340  11.954  19.722  0.00  0.00    +0.000 OA
ATOM      4  C   UNL     1       0.165  11.300  20.480  0.00  0.00    +0.000 C 
ATOM      5  C   UNL     1      -1.142  12.099  20.472  0.00  0.00    +0.000 C 
ATOM      6  C   UNL     1      -0.824  13.295  19.611  0.00  0.00    +0.000 C 
ATOM      7  O   UNL     1      -1.560  14.250  19.416  0.00  0.00    +0.000 OA
ATOM      8  C   UNL     1      -2.199  11.137  19.942  0.00  0.00    +0.000 C 
ATOM      9  N   UNL     1      -1.449  10.112  19.153  0.00  0.00    +0.000 NA
ATOM     10  C   UNL     1      -0.101   9.931  19.822  0.00  0.00    +0.000 C 
ATOM     11  C   UNL     1      -0.247   8.910  20.956  0.00  0.00    +0.000 C 
ATOM     12  C   UNL     1       1.151   8.624  21.494  0.00  0.00    +0.000 C 
ATOM     13  C   UNL     1       1.814   7.731  20.482  0.00  0.00    +0.000 C 
ATOM     14  N   UNL     1       1.968   8.416  19.209  0.00  0.00    +0.000 N 
ATOM     15  C   UNL     1       1.008   9.364  18.755  0.00  0.00    +0.000 C 
ATOM     16  O   UNL     1       1.005   9.782  17.591  0.00  0.00    +0.000 OA
ATOM     17  H   UNL     1      -1.283  10.458  18.204  0.00  0.00    +0.000 HD
ENDROOT
BRANCH   8  18
ATOM     18  C   UNL     1      -3.402  11.832  19.301  0.00  0.00    +0.000 A 
ATOM     19  C   UNL     1      -4.311  12.591  20.048  0.00  0.00    +0.000 A 
ATOM     20  C   UNL     1      -5.508  13.051  19.477  0.00  0.00    +0.000 A 
ATOM     21  C   UNL     1      -5.831  12.777  18.144  0.00  0.00    +0.000 A 
ATOM     22  C   UNL     1      -7.136  13.242  17.564  0.00  0.00    +0.000 C 
ATOM     23  C   UNL     1      -4.917  12.058  17.370  0.00  0.00    +0.000 A 
ATOM     24  C   UNL     1      -3.724  11.581  17.951  0.00  0.00    +0.000 A 
ENDBRANCH   8  18
BRANCH   1  26
ATOM     25  C   UNL     1       1.631  15.257  18.918  0.00  0.00    +0.000 C 
ATOM     26  C   UNL     1       1.058  14.055  18.186  0.00  0.00    +0.000 C 
ENDBRANCH   1  26
BRANCH  14  27
ATOM     27  C   UNL     1       3.012   7.812  18.331  0.00  0.00    +0.000 C 
BRANCH  27  28
ATOM     28  C   UNL     1       2.971   6.281  18.248  0.00  0.00    +0.000 A 
ATOM     29  C   UNL     1       4.124   5.524  18.497  0.00  0.00    +0.000 A 
ATOM     30  C   UNL     1       4.130   4.126  18.382  0.00  0.00    +0.000 A 
ATOM     31  C   UNL     1       2.958   3.474  17.996  0.00  0.00    +0.000 A 
ATOM     32  F   UNL     1       2.969   2.139  17.857  0.00  0.00    +0.000 F 
ATOM     33  C   UNL     1       1.799   4.190  17.739  0.00  0.00    +0.000 A 
ATOM     34  C   UNL     1       1.799   5.588  17.865  0.00  0.00    +0.000 A 
ENDBRANCH  27  28
ENDBRANCH  14  27
TORSDOF 4
ENDMDL
MODEL 4
REMARK VINA RESULT:      -6.5      4.836      8.723
REMARK  Name = 
REMARK  6 active torsions:
REMARK  status: ('A' for Active; 'I' for Inactive)
REMARK    1  A    between atoms: C_1  and  C_2
REMARK    2  A    between atoms: C_2  and  N_3
REMARK    3  A    between atoms: C_10  and  C_11
REMARK    4  A    between atoms: C_14  and  C_15
REMARK    5  A    between atoms: N_23  and  C_24
REMARK    6  A    between atoms: C_24  and  C_25
REMARK                            x       y       z     vdW  Elec       q    Type
REMARK                         _______ _______ _______ _____ _____    ______ ____
ROOT
ATOM      1  N   UNL     1       0.961  13.863  20.325  0.00  0.00    +0.000 N 
ATOM      2  C   UNL     1      -0.322  14.270  20.525  0.00  0.00    +0.000 C 
ATOM      3  O   UNL     1      -0.693  15.275  21.113  0.00  0.00    +0.000 OA
ATOM      4  C   UNL     1      -1.232  13.310  19.856  0.00  0.00    +0.000 C 
ATOM      5  C   UNL     1      -0.314  12.419  19.013  0.00  0.00    +0.000 C 
ATOM      6  C   UNL     1       1.072  12.885  19.382  0.00  0.00    +0.000 C 
ATOM      7  O   UNL     1       2.112  12.508  18.865  0.00  0.00    +0.000 OA
ATOM      8  C   UNL     1      -0.679  10.989  19.396  0.00  0.00    +0.000 C 
ATOM      9  N   UNL     1      -1.294  11.081  20.754  0.00  0.00    +0.000 NA
ATOM     10  C   UNL     1      -2.022  12.409  20.828  0.00  0.00    +0.000 C 
ATOM     11  C   UNL     1      -3.426  12.234  20.236  0.00  0.00    +0.000 C 
ATOM     12  C   UNL     1      -4.186  13.533  20.477  0.00  0.00    +0.000 C 
ATOM     13  C   UNL     1      -4.563  13.532  21.933  0.00  0.00    +0.000 C 
ATOM     14  N   UNL     1      -3.378  13.558  22.776  0.00  0.00    +0.000 N 
ATOM     15  C   UNL     1      -2.175  12.906  22.383  0.00  0.00    +0.000 C 
ATOM     16  O   UNL     1      -1.242  12.728  23.175  0.00  0.00    +0.000 OA
ATOM     17  H   UNL     1      -0.560  11.089  21.468  0.00  0.00    +0.000 HD
ENDROOT
BRANCH   8  18
ATOM     18  C   UNL     1       0.446   9.980  19.157  0.00  0.00    +0.000 A 
ATOM     19  C   UNL     1       0.889   9.645  17.872  0.00  0.00    +0.000 A 
ATOM     20  C   UNL     1       1.778   8.578  17.669  0.00  0.00    +0.000 A 
ATOM     21  C   UNL     1       2.259   7.819  18.740  0.00  0.00    +0.000 A 
ATOM     22  C   UNL     1       3.176   6.654  18.499  0.00  0.00    +0.000 C 
ATOM     23  C   UNL     1       1.862   8.164  20.035  0.00  0.00    +0.000 A 
ATOM     24  C   UNL     1       0.954   9.224  20.234  0.00  0.00    +0.000 A 
ENDBRANCH   8  18
BRANCH   1  26
ATOM     25  C   UNL     1       2.641  15.576  20.184  0.00  0.00    +0.000 C 
ATOM     26  C   UNL     1       2.084  14.440  21.026  0.00  0.00    +0.000 C 
ENDBRANCH   1  26
BRANCH  14  27
ATOM     27  C   UNL     1      -3.644  14.036  24.163  0.00  0.00    +0.000 C 
BRANCH  27  28
ATOM     28  C   UNL     1      -2.832  15.269  24.581  0.00  0.00    +0.000 A 
ATOM     29  C   UNL     1      -1.997  15.222  25.706  0.00  0.00    +0.000 A 
ATOM     30  C   UNL     1      -1.280  16.346  26.143  0.00  0.00    +0.000 A 
ATOM     31  C   UNL     1      -1.413  17.546  25.443  0.00  0.00    +0.000 A 
ATOM     32  F   UNL     1      -0.751  18.631  25.875  0.00  0.00    +0.000 F 
ATOM     33  C   UNL     1      -2.232  17.630  24.327  0.00  0.00    +0.000 A 
ATOM     34  C   UNL     1      -2.940  16.499  23.893  0.00  0.00    +0.000 A 
ENDBRANCH  27  28
ENDBRANCH  14  27
TORSDOF 4
ENDMDL
MODEL 5
REMARK VINA RESULT:      -6.5      0.497      1.326
REMARK  Name = 
REMARK  6 active torsions:
REMARK  status: ('A' for Active; 'I' for Inactive)
REMARK    1  A    between atoms: C_1  and  C_2
REMARK    2  A    between atoms: C_2  and  N_3
REMARK    3  A    between atoms: C_10  and  C_11
REMARK    4  A    between atoms: C_14  and  C_15
REMARK    5  A    between atoms: N_23  and  C_24
REMARK    6  A    between atoms: C_24  and  C_25
REMARK                            x       y       z     vdW  Elec       q    Type
REMARK                         _______ _______ _______ _____ _____    ______ ____
ROOT
ATOM      1  N   UNL     1       1.174  16.732  18.946  0.00  0.00    +0.000 N 
ATOM      2  C   UNL     1       2.392  16.844  19.543  0.00  0.00    +0.000 C 
ATOM      3  O   UNL     1       3.235  17.705  19.342  0.00  0.00    +0.000 OA
ATOM      4  C   UNL     1       2.527  15.762  20.548  0.00  0.00    +0.000 C 
ATOM      5  C   UNL     1       1.128  15.145  20.652  0.00  0.00    +0.000 C 
ATOM      6  C   UNL     1       0.340  15.867  19.589  0.00  0.00    +0.000 C 
ATOM      7  O   UNL     1      -0.860  15.754  19.391  0.00  0.00    +0.000 OA
ATOM      8  C   UNL     1       1.333  13.648  20.454  0.00  0.00    +0.000 C 
ATOM      9  N   UNL     1       2.617  13.514  19.702  0.00  0.00    +0.000 NA
ATOM     10  C   UNL     1       3.517  14.650  20.146  0.00  0.00    +0.000 C 
ATOM     11  C   UNL     1       4.254  14.224  21.422  0.00  0.00    +0.000 C 
ATOM     12  C   UNL     1       5.270  15.313  21.746  0.00  0.00    +0.000 C 
ATOM     13  C   UNL     1       6.401  15.132  20.772  0.00  0.00    +0.000 C 
ATOM     14  N   UNL     1       5.950  15.349  19.407  0.00  0.00    +0.000 N 
ATOM     15  C   UNL     1       4.633  14.995  18.996  0.00  0.00    +0.000 C 
ATOM     16  O   UNL     1       4.309  14.964  17.803  0.00  0.00    +0.000 OA
ATOM     17  H   UNL     1       2.445  13.627  18.699  0.00  0.00    +0.000 HD
ENDROOT
BRANCH   8  18
ATOM     18  C   UNL     1       0.091  12.918  19.939  0.00  0.00    +0.000 A 
ATOM     19  C   UNL     1      -0.042  12.521  18.603  0.00  0.00    +0.000 A 
ATOM     20  C   UNL     1      -1.264  12.034  18.112  0.00  0.00    +0.000 A 
ATOM     21  C   UNL     1      -2.386  11.919  18.938  0.00  0.00    +0.000 A 
ATOM     22  C   UNL     1      -3.696  11.436  18.384  0.00  0.00    +0.000 C 
ATOM     23  C   UNL     1      -2.262  12.270  20.285  0.00  0.00    +0.000 A 
ATOM     24  C   UNL     1      -1.039  12.776  20.771  0.00  0.00    +0.000 A 
ENDBRANCH   8  18
BRANCH   1  26
ATOM     25  C   UNL     1      -0.094  18.630  18.194  0.00  0.00    +0.000 C 
ATOM     26  C   UNL     1       0.808  17.483  17.768  0.00  0.00    +0.000 C 
ENDBRANCH   1  26
BRANCH  14  27
ATOM     27  C   UNL     1       7.055  15.664  18.456  0.00  0.00    +0.000 C 
BRANCH  27  28
ATOM     28  C   UNL     1       8.076  14.535  18.266  0.00  0.00    +0.000 A 
ATOM     29  C   UNL     1       9.425  14.733  18.591  0.00  0.00    +0.000 A 
ATOM     30  C   UNL     1      10.390  13.737  18.383  0.00  0.00    +0.000 A 
ATOM     31  C   UNL     1       9.997  12.520  17.825  0.00  0.00    +0.000 A 
ATOM     32  F   UNL     1      10.923  11.576  17.598  0.00  0.00    +0.000 F 
ATOM     33  C   UNL     1       8.671  12.289  17.489  0.00  0.00    +0.000 A 
ATOM     34  C   UNL     1       7.710  13.289  17.708  0.00  0.00    +0.000 A 
ENDBRANCH  27  28
ENDBRANCH  14  27
TORSDOF 4
ENDMDL
MODEL 6
REMARK VINA RESULT:      -6.4      3.908      8.852
REMARK  Name = 
REMARK  6 active torsions:
REMARK  status: ('A' for Active; 'I' for Inactive)
REMARK    1  A    between atoms: C_1  and  C_2
REMARK    2  A    between atoms: C_2  and  N_3
REMARK    3  A    between atoms: C_10  and  C_11
REMARK    4  A    between atoms: C_14  and  C_15
REMARK    5  A    between atoms: N_23  and  C_24
REMARK    6  A    between atoms: C_24  and  C_25
REMARK                            x       y       z     vdW  Elec       q    Type
REMARK                         _______ _______ _______ _____ _____    ______ ____
ROOT
ATOM      1  N   UNL     1       0.787  16.365  19.388  0.00  0.00    +0.000 N 
ATOM      2  C   UNL     1      -0.000  15.258  19.465  0.00  0.00    +0.000 C 
ATOM      3  O   UNL     1      -1.162  15.205  19.839  0.00  0.00    +0.000 OA
ATOM      4  C   UNL     1       0.767  14.095  18.958  0.00  0.00    +0.000 C 
ATOM      5  C   UNL     1       2.028  14.698  18.330  0.00  0.00    +0.000 C 
ATOM      6  C   UNL     1       1.917  16.168  18.651  0.00  0.00    +0.000 C 
ATOM      7  O   UNL     1       2.667  17.044  18.250  0.00  0.00    +0.000 OA
ATOM      8  C   UNL     1       3.193  13.946  18.963  0.00  0.00    +0.000 C 
ATOM      9  N   UNL     1       2.671  13.415  20.258  0.00  0.00    +0.000 NA
ATOM     10  C   UNL     1       1.202  13.101  20.055  0.00  0.00    +0.000 C 
ATOM     11  C   UNL     1       1.076  11.694  19.460  0.00  0.00    +0.000 C 
ATOM     12  C   UNL     1      -0.407  11.345  19.426  0.00  0.00    +0.000 C 
ATOM     13  C   UNL     1      -0.791  11.016  20.843  0.00  0.00    +0.000 C 
ATOM     14  N   UNL     1      -0.636  12.177  21.704  0.00  0.00    +0.000 N 
ATOM     15  C   UNL     1       0.396  13.133  21.482  0.00  0.00    +0.000 C 
ATOM     16  O   UNL     1       0.679  13.992  22.325  0.00  0.00    +0.000 OA
ATOM     17  H   UNL     1       2.739  14.136  20.982  0.00  0.00    +0.000 HD
ENDROOT
BRANCH   8  18
ATOM     18  C   UNL     1       4.508  14.727  18.957  0.00  0.00    +0.000 A 
ATOM     19  C   UNL     1       5.329  14.801  17.825  0.00  0.00    +0.000 A 
ATOM     20  C   UNL     1       6.617  15.352  17.901  0.00  0.00    +0.000 A 
ATOM     21  C   UNL     1       7.124  15.855  19.103  0.00  0.00    +0.000 A 
ATOM     22  C   UNL     1       8.521  16.402  19.174  0.00  0.00    +0.000 C 
ATOM     23  C   UNL     1       6.304  15.830  20.235  0.00  0.00    +0.000 A 
ATOM     24  C   UNL     1       5.018  15.258  20.160  0.00  0.00    +0.000 A 
ENDBRANCH   8  18
BRANCH   1  26
ATOM     25  C   UNL     1       1.020  17.648  21.407  0.00  0.00    +0.000 C 
ATOM     26  C   UNL     1       0.434  17.621  20.005  0.00  0.00    +0.000 C 
ENDBRANCH   1  26
BRANCH  14  27
ATOM     27  C   UNL     1      -1.426  12.091  22.967  0.00  0.00    +0.000 C 
BRANCH  27  28
ATOM     28  C   UNL     1      -2.884  12.549  22.842  0.00  0.00    +0.000 A 
ATOM     29  C   UNL     1      -3.368  13.059  21.629  0.00  0.00    +0.000 A 
ATOM     30  C   UNL     1      -4.682  13.531  21.497  0.00  0.00    +0.000 A 
ATOM     31  C   UNL     1      -5.526  13.502  22.608  0.00  0.00    +0.000 A 
ATOM     32  F   UNL     1      -6.775  13.980  22.493  0.00  0.00    +0.000 F 
ATOM     33  C   UNL     1      -5.081  13.006  23.825  0.00  0.00    +0.000 A 
ATOM     34  C   UNL     1      -3.766  12.529  23.946  0.00  0.00    +0.000 A 
ENDBRANCH  27  28
ENDBRANCH  14  27
TORSDOF 4
ENDMDL
MODEL 7
REMARK VINA RESULT:      -6.3      5.037      6.683
REMARK  Name = 
REMARK  6 active torsions:
REMARK  status: ('A' for Active; 'I' for Inactive)
REMARK    1  A    between atoms: C_1  and  C_2
REMARK    2  A    between atoms: C_2  and  N_3
REMARK    3  A    between atoms: C_10  and  C_11
REMARK    4  A    between atoms: C_14  and  C_15
REMARK    5  A    between atoms: N_23  and  C_24
REMARK    6  A    between atoms: C_24  and  C_25
REMARK                            x       y       z     vdW  Elec       q    Type
REMARK                         _______ _______ _______ _____ _____    ______ ____
ROOT
ATOM      1  N   UNL     1       0.309  14.005  20.886  0.00  0.00    +0.000 N 
ATOM      2  C   UNL     1       1.050  12.864  20.899  0.00  0.00    +0.000 C 
ATOM      3  O   UNL     1       2.124  12.677  20.347  0.00  0.00    +0.000 OA
ATOM      4  C   UNL     1       0.367  11.865  21.755  0.00  0.00    +0.000 C 
ATOM      5  C   UNL     1      -0.749  12.646  22.458  0.00  0.00    +0.000 C 
ATOM      6  C   UNL     1      -0.672  14.016  21.833  0.00  0.00    +0.000 C 
ATOM      7  O   UNL     1      -1.322  14.993  22.173  0.00  0.00    +0.000 OA
ATOM      8  C   UNL     1      -2.021  11.848  22.203  0.00  0.00    +0.000 C 
ATOM      9  N   UNL     1      -1.753  11.047  20.971  0.00  0.00    +0.000 NA
ATOM     10  C   UNL     1      -0.277  10.701  20.974  0.00  0.00    +0.000 C 
ATOM     11  C   UNL     1      -0.070   9.432  21.810  0.00  0.00    +0.000 C 
ATOM     12  C   UNL     1       1.389   9.018  21.655  0.00  0.00    +0.000 C 
ATOM     13  C   UNL     1       1.505   8.399  20.290  0.00  0.00    +0.000 C 
ATOM     14  N   UNL     1       1.217   9.376  19.252  0.00  0.00    +0.000 N 
ATOM     15  C   UNL     1       0.258  10.410  19.452  0.00  0.00    +0.000 C 
ATOM     16  O   UNL     1      -0.158  11.102  18.516  0.00  0.00    +0.000 OA
ATOM     17  H   UNL     1      -1.938  11.615  20.140  0.00  0.00    +0.000 HD
ENDROOT
BRANCH   8  18
ATOM     18  C   UNL     1      -3.300  12.684  22.279  0.00  0.00    +0.000 A 
ATOM     19  C   UNL     1      -3.961  13.148  21.135  0.00  0.00    +0.000 A 
ATOM     20  C   UNL     1      -5.011  14.073  21.232  0.00  0.00    +0.000 A 
ATOM     21  C   UNL     1      -5.443  14.557  22.471  0.00  0.00    +0.000 A 
ATOM     22  C   UNL     1      -6.541  15.579  22.551  0.00  0.00    +0.000 C 
ATOM     23  C   UNL     1      -4.825  14.074  23.628  0.00  0.00    +0.000 A 
ATOM     24  C   UNL     1      -3.758  13.160  23.527  0.00  0.00    +0.000 A 
ENDBRANCH   8  18
BRANCH   1  26
ATOM     25  C   UNL     1      -0.131  14.796  18.660  0.00  0.00    +0.000 C 
ATOM     26  C   UNL     1       0.566  15.096  19.977  0.00  0.00    +0.000 C 
ENDBRANCH   1  26
BRANCH  14  27
ATOM     27  C   UNL     1       1.763   9.003  17.915  0.00  0.00    +0.000 C 
BRANCH  27  28
ATOM     28  C   UNL     1       2.439   7.627  17.861  0.00  0.00    +0.000 A 
ATOM     29  C   UNL     1       1.688   6.458  18.043  0.00  0.00    +0.000 A 
ATOM     30  C   UNL     1       2.284   5.188  18.049  0.00  0.00    +0.000 A 
ATOM     31  C   UNL     1       3.666   5.090  17.880  0.00  0.00    +0.000 A 
ATOM     32  F   UNL     1       4.244   3.879  17.913  0.00  0.00    +0.000 F 
ATOM     33  C   UNL     1       4.442   6.226  17.699  0.00  0.00    +0.000 A 
ATOM     34  C   UNL     1       3.835   7.492  17.687  0.00  0.00    +0.000 A 
ENDBRANCH  27  28
ENDBRANCH  14  27
TORSDOF 4
ENDMDL
MODEL 8
REMARK VINA RESULT:      -6.3      3.055      8.115
REMARK  Name = 
REMARK  6 active torsions:
REMARK  status: ('A' for Active; 'I' for Inactive)
REMARK    1  A    between atoms: C_1  and  C_2
REMARK    2  A    between atoms: C_2  and  N_3
REMARK    3  A    between atoms: C_10  and  C_11
REMARK    4  A    between atoms: C_14  and  C_15
REMARK    5  A    between atoms: N_23  and  C_24
REMARK    6  A    between atoms: C_24  and  C_25
REMARK                            x       y       z     vdW  Elec       q    Type
REMARK                         _______ _______ _______ _____ _____    ______ ____
ROOT
ATOM      1  N   UNL     1       4.766  14.586  21.776  0.00  0.00    +0.000 N 
ATOM      2  C   UNL     1       3.453  14.870  21.558  0.00  0.00    +0.000 C 
ATOM      3  O   UNL     1       2.489  14.385  22.132  0.00  0.00    +0.000 OA
ATOM      4  C   UNL     1       3.363  15.931  20.526  0.00  0.00    +0.000 C 
ATOM      5  C   UNL     1       4.802  16.424  20.342  0.00  0.00    +0.000 C 
ATOM      6  C   UNL     1       5.611  15.497  21.215  0.00  0.00    +0.000 C 
ATOM      7  O   UNL     1       6.806  15.595  21.444  0.00  0.00    +0.000 OA
ATOM      8  C   UNL     1       5.063  16.352  18.842  0.00  0.00    +0.000 C 
ATOM      9  N   UNL     1       4.096  15.343  18.314  0.00  0.00    +0.000 NA
ATOM     10  C   UNL     1       2.842  15.438  19.161  0.00  0.00    +0.000 C 
ATOM     11  C   UNL     1       1.949  16.549  18.595  0.00  0.00    +0.000 C 
ATOM     12  C   UNL     1       0.630  16.506  19.359  0.00  0.00    +0.000 C 
ATOM     13  C   UNL     1      -0.126  15.323  18.820  0.00  0.00    +0.000 C 
ATOM     14  N   UNL     1       0.581  14.084  19.100  0.00  0.00    +0.000 N 
ATOM     15  C   UNL     1       2.004  14.030  19.122  0.00  0.00    +0.000 C 
ATOM     16  O   UNL     1       2.615  12.955  19.135  0.00  0.00    +0.000 OA
ATOM     17  H   UNL     1       4.480  14.401  18.430  0.00  0.00    +0.000 HD
ENDROOT
BRANCH   8  18
ATOM     18  C   UNL     1       6.544  16.222  18.479  0.00  0.00    +0.000 A 
ATOM     19  C   UNL     1       7.122  14.997  18.123  0.00  0.00    +0.000 A 
ATOM     20  C   UNL     1       8.512  14.867  17.989  0.00  0.00    +0.000 A 
ATOM     21  C   UNL     1       9.369  15.953  18.194  0.00  0.00    +0.000 A 
ATOM     22  C   UNL     1      10.857  15.783  18.087  0.00  0.00    +0.000 C 
ATOM     23  C   UNL     1       8.809  17.194  18.508  0.00  0.00    +0.000 A 
ATOM     24  C   UNL     1       7.413  17.318  18.661  0.00  0.00    +0.000 A 
ENDBRANCH   8  18
BRANCH   1  26
ATOM     25  C   UNL     1       5.512  13.922  23.962  0.00  0.00    +0.000 C 
ATOM     26  C   UNL     1       5.203  13.449  22.551  0.00  0.00    +0.000 C 
ENDBRANCH   1  26
BRANCH  14  27
ATOM     27  C   UNL     1      -0.291  12.875  19.044  0.00  0.00    +0.000 C 
BRANCH  27  28
ATOM     28  C   UNL     1      -0.315  12.042  20.332  0.00  0.00    +0.000 A 
ATOM     29  C   UNL     1       0.137  10.716  20.329  0.00  0.00    +0.000 A 
ATOM     30  C   UNL     1       0.083   9.913  21.478  0.00  0.00    +0.000 A 
ATOM     31  C   UNL     1      -0.447  10.449  22.653  0.00  0.00    +0.000 A 
ATOM     32  F   UNL     1      -0.527   9.675  23.747  0.00  0.00    +0.000 F 
ATOM     33  C   UNL     1      -0.906  11.758  22.692  0.00  0.00    +0.000 A 
ATOM     34  C   UNL     1      -0.841  12.556  21.539  0.00  0.00    +0.000 A 
ENDBRANCH  27  28
ENDBRANCH  14  27
TORSDOF 4
ENDMDL
MODEL 9
REMARK VINA RESULT:      -6.3      0.755      1.171
REMARK  Name = 
REMARK  6 active torsions:
REMARK  status: ('A' for Active; 'I' for Inactive)
REMARK    1  A    between atoms: C_1  and  C_2
REMARK    2  A    between atoms: C_2  and  N_3
REMARK    3  A    between atoms: C_10  and  C_11
REMARK    4  A    between atoms: C_14  and  C_15
REMARK    5  A    between atoms: N_23  and  C_24
REMARK    6  A    between atoms: C_24  and  C_25
REMARK                            x       y       z     vdW  Elec       q    Type
REMARK                         _______ _______ _______ _____ _____    ______ ____
ROOT
ATOM      1  N   UNL     1       1.759  16.697  18.615  0.00  0.00    +0.000 N 
ATOM      2  C   UNL     1       2.961  16.832  19.237  0.00  0.00    +0.000 C 
ATOM      3  O   UNL     1       3.842  17.638  18.973  0.00  0.00    +0.000 OA
ATOM      4  C   UNL     1       3.027  15.862  20.357  0.00  0.00    +0.000 C 
ATOM      5  C   UNL     1       1.603  15.307  20.480  0.00  0.00    +0.000 C 
ATOM      6  C   UNL     1       0.874  15.935  19.319  0.00  0.00    +0.000 C 
ATOM      7  O   UNL     1      -0.322  15.843  19.094  0.00  0.00    +0.000 OA
ATOM      8  C   UNL     1       1.758  13.791  20.451  0.00  0.00    +0.000 C 
ATOM      9  N   UNL     1       3.058  13.534  19.760  0.00  0.00    +0.000 NA
ATOM     10  C   UNL     1       3.986  14.680  20.110  0.00  0.00    +0.000 C 
ATOM     11  C   UNL     1       4.668  14.371  21.448  0.00  0.00    +0.000 C 
ATOM     12  C   UNL     1       5.714  15.454  21.688  0.00  0.00    +0.000 C 
ATOM     13  C   UNL     1       6.867  15.130  20.777  0.00  0.00    +0.000 C 
ATOM     14  N   UNL     1       6.464  15.213  19.382  0.00  0.00    +0.000 N 
ATOM     15  C   UNL     1       5.148  14.860  18.968  0.00  0.00    +0.000 C 
ATOM     16  O   UNL     1       4.859  14.710  17.774  0.00  0.00    +0.000 OA
ATOM     17  H   UNL     1       2.920  13.543  18.746  0.00  0.00    +0.000 HD
ENDROOT
BRANCH   8  18
ATOM     18  C   UNL     1       0.506  13.052  19.975  0.00  0.00    +0.000 A 
ATOM     19  C   UNL     1       0.361  12.595  18.660  0.00  0.00    +0.000 A 
ATOM     20  C   UNL     1      -0.867  12.100  18.198  0.00  0.00    +0.000 A 
ATOM     21  C   UNL     1      -1.987  12.036  19.034  0.00  0.00    +0.000 A 
ATOM     22  C   UNL     1      -3.305  11.542  18.508  0.00  0.00    +0.000 C 
ATOM     23  C   UNL     1      -1.852  12.446  20.362  0.00  0.00    +0.000 A 
ATOM     24  C   UNL     1      -0.622  12.961  20.819  0.00  0.00    +0.000 A 
ENDBRANCH   8  18
BRANCH   1  26
ATOM     25  C   UNL     1       0.723  18.630  17.631  0.00  0.00    +0.000 C 
ATOM     26  C   UNL     1       1.456  17.328  17.352  0.00  0.00    +0.000 C 
ENDBRANCH   1  26
BRANCH  14  27
ATOM     27  C   UNL     1       7.608  15.385  18.441  0.00  0.00    +0.000 C 
BRANCH  27  28
ATOM     28  C   UNL     1       8.644  14.254  18.480  0.00  0.00    +0.000 A 
ATOM     29  C   UNL     1       8.376  13.022  17.868  0.00  0.00    +0.000 A 
ATOM     30  C   UNL     1       9.282  11.953  17.928  0.00  0.00    +0.000 A 
ATOM     31  C   UNL     1      10.477  12.118  18.628  0.00  0.00    +0.000 A 
ATOM     32  F   UNL     1      11.334  11.088  18.712  0.00  0.00    +0.000 F 
ATOM     33  C   UNL     1      10.776  13.323  19.249  0.00  0.00    +0.000 A 
ATOM     34  C   UNL     1       9.867  14.390  19.177  0.00  0.00    +0.000 A 
ENDBRANCH  27  28
ENDBRANCH  14  27
TORSDOF 4
ENDMDL
