MODEL 1
REMARK VINA RESULT:      -5.7      0.000      0.000
REMARK  Name = 
REMARK  1 active torsions:
REMARK  status: ('A' for Active; 'I' for Inactive)
REMARK    1  A    between atoms: O_1  and  C_2
REMARK                            x       y       z     vdW  Elec       q    Type
REMARK                         _______ _______ _______ _____ _____    ______ ____
ROOT
ATOM      1  C   UNL     1       6.626   4.468  14.155  0.00  0.00    +0.000 A 
ATOM      2  C   UNL     1       5.658   3.918  14.999  0.00  0.00    +0.000 A 
ATOM      3  C   UNL     1       5.628   4.293  16.345  0.00  0.00    +0.000 A 
ATOM      4  C   UNL     1       6.561   5.244  16.802  0.00  0.00    +0.000 A 
ATOM      5  N   UNL     1       7.494   5.728  15.939  0.00  0.00    +0.000 NA
ATOM      6  N   UNL     1       7.524   5.354  14.658  0.00  0.00    +0.000 NA
ATOM      7  C   UNL     1       6.545   5.754  18.219  0.00  0.00    +0.000 C 
ATOM      8  C   UNL     1       5.208   5.467  18.920  0.00  0.00    +0.000 C 
ATOM      9  C   UNL     1       4.847   3.998  18.748  0.00  0.00    +0.000 C 
ATOM     10  C   UNL     1       4.589   3.690  17.262  0.00  0.00    +0.000 C 
ENDROOT
BRANCH   1  11
ATOM     11  O   UNL     1       6.687   4.127  12.853  0.00  0.00    +0.000 OA
ATOM     12  H   UNL     1       6.954   3.242  12.566  0.00  0.00    +0.000 HD
ENDBRANCH   1  11
TORSDOF 1
ENDMDL
MODEL 2
REMARK VINA RESULT:      -5.7      2.409      3.227
REMARK  Name = 
REMARK  1 active torsions:
REMARK  status: ('A' for Active; 'I' for Inactive)
REMARK    1  A    between atoms: O_1  and  C_2
REMARK                            x       y       z     vdW  Elec       q    Type
REMARK                         _______ _______ _______ _____ _____    ______ ____
ROOT
ATOM      1  C   UNL     1       6.462   4.439  17.103  0.00  0.00    +0.000 A 
ATOM      2  C   UNL     1       5.189   4.112  16.629  0.00  0.00    +0.000 A 
ATOM      3  C   UNL     1       4.156   3.880  17.542  0.00  0.00    +0.000 A 
ATOM      4  C   UNL     1       4.428   4.013  18.917  0.00  0.00    +0.000 A 
ATOM      5  N   UNL     1       5.693   4.310  19.320  0.00  0.00    +0.000 NA
ATOM      6  N   UNL     1       6.676   4.519  18.441  0.00  0.00    +0.000 NA
ATOM      7  C   UNL     1       3.351   3.851  19.958  0.00  0.00    +0.000 C 
ATOM      8  C   UNL     1       1.943   3.962  19.354  0.00  0.00    +0.000 C 
ATOM      9  C   UNL     1       1.833   3.039  18.147  0.00  0.00    +0.000 C 
ATOM     10  C   UNL     1       2.781   3.515  17.032  0.00  0.00    +0.000 C 
ENDROOT
BRANCH   1  11
ATOM     11  O   UNL     1       7.482   4.666  16.253  0.00  0.00    +0.000 OA
ATOM     12  H   UNL     1       7.342   4.780  15.301  0.00  0.00    +0.000 HD
ENDBRANCH   1  11
TORSDOF 1
ENDMDL
MODEL 3
REMARK VINA RESULT:      -5.6      3.381      4.006
REMARK  Name = 
REMARK  1 active torsions:
REMARK  status: ('A' for Active; 'I' for Inactive)
REMARK    1  A    between atoms: O_1  and  C_2
REMARK                            x       y       z     vdW  Elec       q    Type
REMARK                         _______ _______ _______ _____ _____    ______ ____
ROOT
ATOM      1  C   UNL     1       3.454   2.650  17.998  0.00  0.00    +0.000 A 
ATOM      2  C   UNL     1       3.724   3.686  17.100  0.00  0.00    +0.000 A 
ATOM      3  C   UNL     1       4.708   4.628  17.414  0.00  0.00    +0.000 A 
ATOM      4  C   UNL     1       5.421   4.482  18.620  0.00  0.00    +0.000 A 
ATOM      5  N   UNL     1       5.098   3.467  19.466  0.00  0.00    +0.000 NA
ATOM      6  N   UNL     1       4.148   2.579  19.163  0.00  0.00    +0.000 NA
ATOM      7  C   UNL     1       6.545   5.413  18.994  0.00  0.00    +0.000 C 
ATOM      8  C   UNL     1       7.072   6.198  17.783  0.00  0.00    +0.000 C 
ATOM      9  C   UNL     1       5.904   6.843  17.048  0.00  0.00    +0.000 C 
ATOM     10  C   UNL     1       4.994   5.756  16.450  0.00  0.00    +0.000 C 
ENDROOT
BRANCH   1  11
ATOM     11  O   UNL     1       2.510   1.727  17.730  0.00  0.00    +0.000 OA
ATOM     12  H   UNL     1       2.271   1.485  16.823  0.00  0.00    +0.000 HD
ENDBRANCH   1  11
TORSDOF 1
ENDMDL
MODEL 4
REMARK VINA RESULT:      -5.6      3.173      4.127
REMARK  Name = 
REMARK  1 active torsions:
REMARK  status: ('A' for Active; 'I' for Inactive)
REMARK    1  A    between atoms: O_1  and  C_2
REMARK                            x       y       z     vdW  Elec       q    Type
REMARK                         _______ _______ _______ _____ _____    ______ ____
ROOT
ATOM      1  C   UNL     1       5.413   4.889  17.672  0.00  0.00    +0.000 A 
ATOM      2  C   UNL     1       4.053   4.826  17.358  0.00  0.00    +0.000 A 
ATOM      3  C   UNL     1       3.197   4.072  18.167  0.00  0.00    +0.000 A 
ATOM      4  C   UNL     1       3.733   3.423  19.296  0.00  0.00    +0.000 A 
ATOM      5  N   UNL     1       5.069   3.502  19.538  0.00  0.00    +0.000 NA
ATOM      6  N   UNL     1       5.881   4.214  18.753  0.00  0.00    +0.000 NA
ATOM      7  C   UNL     1       2.862   2.654  20.256  0.00  0.00    +0.000 C 
ATOM      8  C   UNL     1       1.377   3.019  20.107  0.00  0.00    +0.000 C 
ATOM      9  C   UNL     1       0.975   2.929  18.641  0.00  0.00    +0.000 C 
ATOM     10  C   UNL     1       1.727   3.992  17.822  0.00  0.00    +0.000 C 
ENDROOT
BRANCH   1  11
ATOM     11  O   UNL     1       6.268   5.602  16.914  0.00  0.00    +0.000 OA
ATOM     12  H   UNL     1       6.818   5.189  16.232  0.00  0.00    +0.000 HD
ENDBRANCH   1  11
TORSDOF 1
ENDMDL
MODEL 5
REMARK VINA RESULT:      -5.6      2.097      2.564
REMARK  Name = 
REMARK  1 active torsions:
REMARK  status: ('A' for Active; 'I' for Inactive)
REMARK    1  A    between atoms: O_1  and  C_2
REMARK                            x       y       z     vdW  Elec       q    Type
REMARK                         _______ _______ _______ _____ _____    ______ ____
ROOT
ATOM      1  C   UNL     1       6.415   5.481  15.899  0.00  0.00    +0.000 A 
ATOM      2  C   UNL     1       5.679   4.330  16.192  0.00  0.00    +0.000 A 
ATOM      3  C   UNL     1       4.497   4.442  16.929  0.00  0.00    +0.000 A 
ATOM      4  C   UNL     1       4.068   5.723  17.328  0.00  0.00    +0.000 A 
ATOM      5  N   UNL     1       4.838   6.804  17.033  0.00  0.00    +0.000 NA
ATOM      6  N   UNL     1       5.972   6.687  16.339  0.00  0.00    +0.000 NA
ATOM      7  C   UNL     1       2.767   5.932  18.059  0.00  0.00    +0.000 C 
ATOM      8  C   UNL     1       1.829   4.722  17.926  0.00  0.00    +0.000 C 
ATOM      9  C   UNL     1       2.585   3.449  18.283  0.00  0.00    +0.000 C 
ATOM     10  C   UNL     1       3.705   3.197  17.258  0.00  0.00    +0.000 C 
ENDROOT
BRANCH   1  11
ATOM     11  O   UNL     1       7.561   5.411  15.194  0.00  0.00    +0.000 OA
ATOM     12  H   UNL     1       8.413   5.223  15.616  0.00  0.00    +0.000 HD
ENDBRANCH   1  11
TORSDOF 1
ENDMDL
MODEL 6
REMARK VINA RESULT:      -5.5      5.160      6.238
REMARK  Name = 
REMARK  1 active torsions:
REMARK  status: ('A' for Active; 'I' for Inactive)
REMARK    1  A    between atoms: O_1  and  C_2
REMARK                            x       y       z     vdW  Elec       q    Type
REMARK                         _______ _______ _______ _____ _____    ______ ____
ROOT
ATOM      1  C   UNL     1       2.024   6.836  20.305  0.00  0.00    +0.000 A 
ATOM      2  C   UNL     1       1.538   5.570  20.642  0.00  0.00    +0.000 A 
ATOM      3  C   UNL     1       1.599   4.539  19.700  0.00  0.00    +0.000 A 
ATOM      4  C   UNL     1       2.179   4.804  18.445  0.00  0.00    +0.000 A 
ATOM      5  N   UNL     1       2.614   6.062  18.165  0.00  0.00    +0.000 NA
ATOM      6  N   UNL     1       2.541   7.044  19.066  0.00  0.00    +0.000 NA
ATOM      7  C   UNL     1       2.348   3.727  17.405  0.00  0.00    +0.000 C 
ATOM      8  C   UNL     1       2.230   2.319  18.009  0.00  0.00    +0.000 C 
ATOM      9  C   UNL     1       0.961   2.229  18.847  0.00  0.00    +0.000 C 
ATOM     10  C   UNL     1       1.063   3.172  20.059  0.00  0.00    +0.000 C 
ENDROOT
BRANCH   1  11
ATOM     11  O   UNL     1       1.978   7.855  21.185  0.00  0.00    +0.000 OA
ATOM     12  H   UNL     1       1.445   7.813  21.993  0.00  0.00    +0.000 HD
ENDBRANCH   1  11
TORSDOF 1
ENDMDL
MODEL 7
REMARK VINA RESULT:      -5.5      3.188      4.400
REMARK  Name = 
REMARK  1 active torsions:
REMARK  status: ('A' for Active; 'I' for Inactive)
REMARK    1  A    between atoms: O_1  and  C_2
REMARK                            x       y       z     vdW  Elec       q    Type
REMARK                         _______ _______ _______ _____ _____    ______ ____
ROOT
ATOM      1  C   UNL     1       7.253   5.266  19.490  0.00  0.00    +0.000 A 
ATOM      2  C   UNL     1       7.739   5.260  18.180  0.00  0.00    +0.000 A 
ATOM      3  C   UNL     1       6.896   4.863  17.138  0.00  0.00    +0.000 A 
ATOM      4  C   UNL     1       5.567   4.508  17.442  0.00  0.00    +0.000 A 
ATOM      5  N   UNL     1       5.157   4.511  18.739  0.00  0.00    +0.000 NA
ATOM      6  N   UNL     1       5.973   4.880  19.729  0.00  0.00    +0.000 NA
ATOM      7  C   UNL     1       4.578   4.141  16.367  0.00  0.00    +0.000 C 
ATOM      8  C   UNL     1       5.039   4.603  14.976  0.00  0.00    +0.000 C 
ATOM      9  C   UNL     1       6.471   4.143  14.735  0.00  0.00    +0.000 C 
ATOM     10  C   UNL     1       7.422   4.844  15.721  0.00  0.00    +0.000 C 
ENDROOT
BRANCH   1  11
ATOM     11  O   UNL     1       8.038   5.639  20.519  0.00  0.00    +0.000 OA
ATOM     12  H   UNL     1       7.837   5.393  21.435  0.00  0.00    +0.000 HD
ENDBRANCH   1  11
TORSDOF 1
ENDMDL
MODEL 8
REMARK VINA RESULT:      -5.5      3.492      4.733
REMARK  Name = 
REMARK  1 active torsions:
REMARK  status: ('A' for Active; 'I' for Inactive)
REMARK    1  A    between atoms: O_1  and  C_2
REMARK                            x       y       z     vdW  Elec       q    Type
REMARK                         _______ _______ _______ _____ _____    ______ ____
ROOT
ATOM      1  C   UNL     1       5.322   5.427  18.586  0.00  0.00    +0.000 A 
ATOM      2  C   UNL     1       4.023   5.761  18.978  0.00  0.00    +0.000 A 
ATOM      3  C   UNL     1       3.245   4.813  19.649  0.00  0.00    +0.000 A 
ATOM      4  C   UNL     1       3.811   3.556  19.938  0.00  0.00    +0.000 A 
ATOM      5  N   UNL     1       5.073   3.281  19.511  0.00  0.00    +0.000 NA
ATOM      6  N   UNL     1       5.805   4.188  18.859  0.00  0.00    +0.000 NA
ATOM      7  C   UNL     1       3.063   2.510  20.722  0.00  0.00    +0.000 C 
ATOM      8  C   UNL     1       1.876   3.107  21.494  0.00  0.00    +0.000 C 
ATOM      9  C   UNL     1       1.028   3.952  20.551  0.00  0.00    +0.000 C 
ATOM     10  C   UNL     1       1.835   5.167  20.063  0.00  0.00    +0.000 C 
ENDROOT
BRANCH   1  11
ATOM     11  O   UNL     1       6.100   6.313  17.934  0.00  0.00    +0.000 OA
ATOM     12  H   UNL     1       5.917   7.264  17.946  0.00  0.00    +0.000 HD
ENDBRANCH   1  11
TORSDOF 1
ENDMDL
MODEL 9
REMARK VINA RESULT:      -5.4      2.288      2.987
REMARK  Name = 
REMARK  1 active torsions:
REMARK  status: ('A' for Active; 'I' for Inactive)
REMARK    1  A    between atoms: O_1  and  C_2
REMARK                            x       y       z     vdW  Elec       q    Type
REMARK                         _______ _______ _______ _____ _____    ______ ____
ROOT
ATOM      1  C   UNL     1       7.056   4.914  17.227  0.00  0.00    +0.000 A 
ATOM      2  C   UNL     1       6.090   4.624  18.194  0.00  0.00    +0.000 A 
ATOM      3  C   UNL     1       4.973   5.455  18.319  0.00  0.00    +0.000 A 
ATOM      4  C   UNL     1       4.843   6.549  17.440  0.00  0.00    +0.000 A 
ATOM      5  N   UNL     1       5.827   6.795  16.534  0.00  0.00    +0.000 NA
ATOM      6  N   UNL     1       6.896   6.002  16.430  0.00  0.00    +0.000 NA
ATOM      7  C   UNL     1       3.633   7.446  17.464  0.00  0.00    +0.000 C 
ATOM      8  C   UNL     1       2.450   6.800  18.201  0.00  0.00    +0.000 C 
ATOM      9  C   UNL     1       2.913   6.287  19.558  0.00  0.00    +0.000 C 
ATOM     10  C   UNL     1       3.933   5.150  19.372  0.00  0.00    +0.000 C 
ENDROOT
BRANCH   1  11
ATOM     11  O   UNL     1       8.146   4.138  17.080  0.00  0.00    +0.000 OA
ATOM     12  H   UNL     1       8.286   3.592  16.292  0.00  0.00    +0.000 HD
ENDBRANCH   1  11
TORSDOF 1
ENDMDL
