MODEL 1
REMARK VINA RESULT:      -6.9      0.000      0.000
REMARK  Name = 
REMARK  11 active torsions:
REMARK  status: ('A' for Active; 'I' for Inactive)
REMARK    1  A    between atoms: C_1  and  C_2
REMARK    2  A    between atoms: C_5  and  C_6
REMARK    3  A    between atoms: C_6  and  C_7
REMARK    4  A    between atoms: C_6  and  N_14
REMARK    5  A    between atoms: N_9  and  C_10
REMARK    6  A    between atoms: C_10  and  C_11
REMARK    7  A    between atoms: C_10  and  C_12
REMARK    8  A    between atoms: C_10  and  C_13
REMARK    9  A    between atoms: N_14  and  C_15
REMARK   10  A    between atoms: C_15  and  C_16
REMARK   11  A    between atoms: C_21  and  C_23
REMARK                            x       y       z     vdW  Elec       q    Type
REMARK                         _______ _______ _______ _____ _____    ______ ____
ROOT
ATOM      1  C   UNL     1       0.403  10.898  18.733  0.00  0.00    +0.000 C 
ENDROOT
BRANCH   1   6
ATOM      2  C   UNL     1       3.164   5.751  19.128  0.00  0.00    +0.000 C 
ATOM      3  C   UNL     1       2.624   7.151  19.092  0.00  0.00    +0.000 A 
ATOM      4  C   UNL     1       2.739   7.942  17.944  0.00  0.00    +0.000 A 
ATOM      5  C   UNL     1       2.071   9.172  17.853  0.00  0.00    +0.000 A 
ATOM      6  C   UNL     1       1.251   9.624  18.901  0.00  0.00    +0.000 A 
ATOM      7  C   UNL     1       1.219   8.861  20.081  0.00  0.00    +0.000 A 
ATOM      8  C   UNL     1       1.894   7.641  20.176  0.00  0.00    +0.000 A 
ENDBRANCH   1   6
BRANCH   1   9
ATOM      9  C   UNL     1      -1.114  10.600  18.488  0.00  0.00    +0.000 C 
ATOM     10  O   UNL     1      -1.817  10.037  19.324  0.00  0.00    +0.000 OA
ATOM     11  N   UNL     1      -1.604  10.996  17.246  0.00  0.00    +0.000 N 
ATOM     12  H   UNL     1      -1.010  11.576  16.666  0.00  0.00    +0.000 HD
BRANCH  11  13
ATOM     13  C   UNL     1      -2.988  10.763  16.778  0.00  0.00    +0.000 C 
ATOM     14  C   UNL     1      -3.079  10.882  15.248  0.00  0.00    +0.000 C 
ATOM     15  C   UNL     1      -3.417   9.335  17.169  0.00  0.00    +0.000 C 
ATOM     16  C   UNL     1      -3.973  11.740  17.444  0.00  0.00    +0.000 C 
ENDBRANCH  11  13
ENDBRANCH   1   9
BRANCH   1  17
ATOM     17  N   UNL     1       0.611  11.929  19.789  0.00  0.00    +0.000 N 
ATOM     18  C   UNL     1       1.485  13.006  19.477  0.00  0.00    +0.000 C 
ATOM     19  O   UNL     1       1.774  13.311  18.324  0.00  0.00    +0.000 OA
BRANCH  18  20
ATOM     20  C   UNL     1       2.040  13.851  20.561  0.00  0.00    +0.000 A 
ATOM     21  C   UNL     1       1.543  15.111  20.853  0.00  0.00    +0.000 A 
ATOM     22  S   UNL     1       2.446  15.749  22.160  0.00  0.00    +0.000 S 
ATOM     23  N   UNL     1       3.435  14.406  22.249  0.00  0.00    +0.000 NA
ATOM     24  N   UNL     1       3.144  13.495  21.342  0.00  0.00    +0.000 NA
ENDBRANCH  18  20
BRANCH  17  25
ATOM     25  C   UNL     1       0.405  11.576  21.189  0.00  0.00    +0.000 C 
BRANCH  25  26
ATOM     26  C   UNL     1      -0.822  12.069  21.899  0.00  0.00    +0.000 A 
ATOM     27  C   UNL     1      -1.406  11.597  23.062  0.00  0.00    +0.000 A 
ATOM     28  C   UNL     1      -2.746  12.063  23.219  0.00  0.00    +0.000 A 
ATOM     29  C   UNL     1      -3.121  12.916  22.205  0.00  0.00    +0.000 A 
ATOM     30  S   UNL     1      -1.843  13.206  21.112  0.00  0.00    +0.000 S 
ENDBRANCH  25  26
ENDBRANCH  17  25
ENDBRANCH   1  17
TORSDOF 7
ENDMDL
MODEL 2
REMARK VINA RESULT:      -6.7      3.023      4.875
REMARK  Name = 
REMARK  11 active torsions:
REMARK  status: ('A' for Active; 'I' for Inactive)
REMARK    1  A    between atoms: C_1  and  C_2
REMARK    2  A    between atoms: C_5  and  C_6
REMARK    3  A    between atoms: C_6  and  C_7
REMARK    4  A    between atoms: C_6  and  N_14
REMARK    5  A    between atoms: N_9  and  C_10
REMARK    6  A    between atoms: C_10  and  C_11
REMARK    7  A    between atoms: C_10  and  C_12
REMARK    8  A    between atoms: C_10  and  C_13
REMARK    9  A    between atoms: N_14  and  C_15
REMARK   10  A    between atoms: C_15  and  C_16
REMARK   11  A    between atoms: C_21  and  C_23
REMARK                            x       y       z     vdW  Elec       q    Type
REMARK                         _______ _______ _______ _____ _____    ______ ____
ROOT
ATOM      1  C   UNL     1      -1.246  13.319  19.265  0.00  0.00    +0.000 C 
ENDROOT
BRANCH   1   6
ATOM      2  C   UNL     1       4.009  15.346  17.670  0.00  0.00    +0.000 C 
ATOM      3  C   UNL     1       2.737  14.812  18.260  0.00  0.00    +0.000 A 
ATOM      4  C   UNL     1       1.762  15.672  18.777  0.00  0.00    +0.000 A 
ATOM      5  C   UNL     1       0.503  15.181  19.152  0.00  0.00    +0.000 A 
ATOM      6  C   UNL     1       0.184  13.822  18.994  0.00  0.00    +0.000 A 
ATOM      7  C   UNL     1       1.205  12.958  18.560  0.00  0.00    +0.000 A 
ATOM      8  C   UNL     1       2.463  13.445  18.196  0.00  0.00    +0.000 A 
ENDBRANCH   1   6
BRANCH   1   9
ATOM      9  C   UNL     1      -1.632  12.069  18.407  0.00  0.00    +0.000 C 
ATOM     10  O   UNL     1      -0.842  11.154  18.184  0.00  0.00    +0.000 OA
ATOM     11  N   UNL     1      -2.926  12.080  17.891  0.00  0.00    +0.000 N 
ATOM     12  H   UNL     1      -3.564  12.791  18.228  0.00  0.00    +0.000 HD
BRANCH  11  13
ATOM     13  C   UNL     1      -3.485  11.033  17.008  0.00  0.00    +0.000 C 
ATOM     14  C   UNL     1      -3.389   9.647  17.667  0.00  0.00    +0.000 C 
ATOM     15  C   UNL     1      -4.975  11.335  16.752  0.00  0.00    +0.000 C 
ATOM     16  C   UNL     1      -2.776  11.019  15.642  0.00  0.00    +0.000 C 
ENDBRANCH  11  13
ENDBRANCH   1   9
BRANCH   1  17
ATOM     17  N   UNL     1      -1.581  13.138  20.706  0.00  0.00    +0.000 N 
ATOM     18  C   UNL     1      -2.730  13.818  21.193  0.00  0.00    +0.000 C 
ATOM     19  O   UNL     1      -3.619  14.228  20.453  0.00  0.00    +0.000 OA
BRANCH  18  20
ATOM     20  C   UNL     1      -2.922  14.005  22.650  0.00  0.00    +0.000 A 
ATOM     21  C   UNL     1      -2.454  15.120  23.327  0.00  0.00    +0.000 A 
ATOM     22  S   UNL     1      -2.877  14.958  24.977  0.00  0.00    +0.000 S 
ATOM     23  N   UNL     1      -3.591  13.467  24.739  0.00  0.00    +0.000 NA
ATOM     24  N   UNL     1      -3.526  13.062  23.487  0.00  0.00    +0.000 NA
ENDBRANCH  18  20
BRANCH  17  25
ATOM     25  C   UNL     1      -0.527  12.778  21.649  0.00  0.00    +0.000 C 
BRANCH  25  26
ATOM     26  C   UNL     1      -0.336  11.336  22.022  0.00  0.00    +0.000 A 
ATOM     27  C   UNL     1      -0.855  10.637  23.098  0.00  0.00    +0.000 A 
ATOM     28  C   UNL     1      -0.162   9.411  23.329  0.00  0.00    +0.000 A 
ATOM     29  C   UNL     1       0.823   9.188  22.394  0.00  0.00    +0.000 A 
ATOM     30  S   UNL     1       0.864  10.413  21.206  0.00  0.00    +0.000 S 
ENDBRANCH  25  26
ENDBRANCH  17  25
ENDBRANCH   1  17
TORSDOF 7
ENDMDL
MODEL 3
REMARK VINA RESULT:      -6.6      0.717      1.077
REMARK  Name = 
REMARK  11 active torsions:
REMARK  status: ('A' for Active; 'I' for Inactive)
REMARK    1  A    between atoms: C_1  and  C_2
REMARK    2  A    between atoms: C_5  and  C_6
REMARK    3  A    between atoms: C_6  and  C_7
REMARK    4  A    between atoms: C_6  and  N_14
REMARK    5  A    between atoms: N_9  and  C_10
REMARK    6  A    between atoms: C_10  and  C_11
REMARK    7  A    between atoms: C_10  and  C_12
REMARK    8  A    between atoms: C_10  and  C_13
REMARK    9  A    between atoms: N_14  and  C_15
REMARK   10  A    between atoms: C_15  and  C_16
REMARK   11  A    between atoms: C_21  and  C_23
REMARK                            x       y       z     vdW  Elec       q    Type
REMARK                         _______ _______ _______ _____ _____    ______ ____
ROOT
ATOM      1  C   UNL     1       0.363  11.282  18.773  0.00  0.00    +0.000 C 
ENDROOT
BRANCH   1   6
ATOM      2  C   UNL     1       2.920   6.029  19.161  0.00  0.00    +0.000 C 
ATOM      3  C   UNL     1       2.434   7.449  19.128  0.00  0.00    +0.000 A 
ATOM      4  C   UNL     1       2.588   8.240  17.985  0.00  0.00    +0.000 A 
ATOM      5  C   UNL     1       1.968   9.495  17.895  0.00  0.00    +0.000 A 
ATOM      6  C   UNL     1       1.160   9.975  18.940  0.00  0.00    +0.000 A 
ATOM      7  C   UNL     1       1.091   9.208  20.116  0.00  0.00    +0.000 A 
ATOM      8  C   UNL     1       1.717   7.962  20.210  0.00  0.00    +0.000 A 
ENDBRANCH   1   6
BRANCH   1   9
ATOM      9  C   UNL     1      -1.174  11.047  18.602  0.00  0.00    +0.000 C 
ATOM     10  O   UNL     1      -1.923  10.866  19.560  0.00  0.00    +0.000 OA
ATOM     11  N   UNL     1      -1.631  11.033  17.286  0.00  0.00    +0.000 N 
ATOM     12  H   UNL     1      -0.989  11.328  16.560  0.00  0.00    +0.000 HD
BRANCH  11  13
ATOM     13  C   UNL     1      -3.031  10.773  16.887  0.00  0.00    +0.000 C 
ATOM     14  C   UNL     1      -3.981  11.817  17.496  0.00  0.00    +0.000 C 
ATOM     15  C   UNL     1      -3.142  10.868  15.353  0.00  0.00    +0.000 C 
ATOM     16  C   UNL     1      -3.473   9.356  17.295  0.00  0.00    +0.000 C 
ENDBRANCH  11  13
ENDBRANCH   1   9
BRANCH   1  17
ATOM     17  N   UNL     1       0.664  12.329  19.789  0.00  0.00    +0.000 N 
ATOM     18  C   UNL     1       1.768  13.186  19.526  0.00  0.00    +0.000 C 
ATOM     19  O   UNL     1       2.235  13.338  18.402  0.00  0.00    +0.000 OA
BRANCH  18  20
ATOM     20  C   UNL     1       2.366  13.985  20.622  0.00  0.00    +0.000 A 
ATOM     21  C   UNL     1       2.084  15.330  20.803  0.00  0.00    +0.000 A 
ATOM     22  S   UNL     1       2.962  15.878  22.166  0.00  0.00    +0.000 S 
ATOM     23  N   UNL     1       3.675  14.389  22.418  0.00  0.00    +0.000 NA
ATOM     24  N   UNL     1       3.307  13.488  21.529  0.00  0.00    +0.000 NA
ENDBRANCH  18  20
BRANCH  17  25
ATOM     25  C   UNL     1       0.242  12.132  21.172  0.00  0.00    +0.000 C 
BRANCH  25  26
ATOM     26  C   UNL     1      -0.717  13.106  21.793  0.00  0.00    +0.000 A 
ATOM     27  C   UNL     1      -1.184  13.160  23.095  0.00  0.00    +0.000 A 
ATOM     28  C   UNL     1      -2.350  13.974  23.216  0.00  0.00    +0.000 A 
ATOM     29  C   UNL     1      -2.702  14.556  22.019  0.00  0.00    +0.000 A 
ATOM     30  S   UNL     1      -1.594  14.180  20.777  0.00  0.00    +0.000 S 
ENDBRANCH  25  26
ENDBRANCH  17  25
ENDBRANCH   1  17
TORSDOF 7
ENDMDL
MODEL 4
REMARK VINA RESULT:      -6.6      0.843      1.296
REMARK  Name = 
REMARK  11 active torsions:
REMARK  status: ('A' for Active; 'I' for Inactive)
REMARK    1  A    between atoms: C_1  and  C_2
REMARK    2  A    between atoms: C_5  and  C_6
REMARK    3  A    between atoms: C_6  and  C_7
REMARK    4  A    between atoms: C_6  and  N_14
REMARK    5  A    between atoms: N_9  and  C_10
REMARK    6  A    between atoms: C_10  and  C_11
REMARK    7  A    between atoms: C_10  and  C_12
REMARK    8  A    between atoms: C_10  and  C_13
REMARK    9  A    between atoms: N_14  and  C_15
REMARK   10  A    between atoms: C_15  and  C_16
REMARK   11  A    between atoms: C_21  and  C_23
REMARK                            x       y       z     vdW  Elec       q    Type
REMARK                         _______ _______ _______ _____ _____    ______ ____
ROOT
ATOM      1  C   UNL     1       0.364  11.309  18.765  0.00  0.00    +0.000 C 
ENDROOT
BRANCH   1   6
ATOM      2  C   UNL     1       2.786   5.997  19.204  0.00  0.00    +0.000 C 
ATOM      3  C   UNL     1       2.335   7.428  19.161  0.00  0.00    +0.000 A 
ATOM      4  C   UNL     1       2.532   8.216  18.022  0.00  0.00    +0.000 A 
ATOM      5  C   UNL     1       1.944   9.485  17.920  0.00  0.00    +0.000 A 
ATOM      6  C   UNL     1       1.126   9.983  18.948  0.00  0.00    +0.000 A 
ATOM      7  C   UNL     1       1.014   9.219  20.122  0.00  0.00    +0.000 A 
ATOM      8  C   UNL     1       1.608   7.959  20.228  0.00  0.00    +0.000 A 
ENDBRANCH   1   6
BRANCH   1   9
ATOM      9  C   UNL     1      -1.166  11.109  18.503  0.00  0.00    +0.000 C 
ATOM     10  O   UNL     1      -2.015  11.335  19.361  0.00  0.00    +0.000 OA
ATOM     11  N   UNL     1      -1.494  10.631  17.236  0.00  0.00    +0.000 N 
ATOM     12  H   UNL     1      -0.761  10.601  16.538  0.00  0.00    +0.000 HD
BRANCH  11  13
ATOM     13  C   UNL     1      -2.868  10.314  16.790  0.00  0.00    +0.000 C 
ATOM     14  C   UNL     1      -3.522   9.275  17.714  0.00  0.00    +0.000 C 
ATOM     15  C   UNL     1      -3.721  11.598  16.842  0.00  0.00    +0.000 C 
ATOM     16  C   UNL     1      -2.880   9.811  15.335  0.00  0.00    +0.000 C 
ENDBRANCH  11  13
ENDBRANCH   1   9
BRANCH   1  17
ATOM     17  N   UNL     1       0.626  12.329  19.819  0.00  0.00    +0.000 N 
ATOM     18  C   UNL     1       1.623  13.304  19.541  0.00  0.00    +0.000 C 
ATOM     19  O   UNL     1       2.000  13.559  18.402  0.00  0.00    +0.000 OA
BRANCH  18  20
ATOM     20  C   UNL     1       2.209  14.103  20.643  0.00  0.00    +0.000 A 
ATOM     21  C   UNL     1       1.855  15.423  20.877  0.00  0.00    +0.000 A 
ATOM     22  S   UNL     1       2.745  15.980  22.229  0.00  0.00    +0.000 S 
ATOM     23  N   UNL     1       3.550  14.529  22.410  0.00  0.00    +0.000 NA
ATOM     24  N   UNL     1       3.207  13.636  21.503  0.00  0.00    +0.000 NA
ENDBRANCH  18  20
BRANCH  17  25
ATOM     25  C   UNL     1       0.315  12.021  21.211  0.00  0.00    +0.000 C 
BRANCH  25  26
ATOM     26  C   UNL     1      -0.905  12.627  21.842  0.00  0.00    +0.000 A 
ATOM     27  C   UNL     1      -1.366  13.931  21.774  0.00  0.00    +0.000 A 
ATOM     28  C   UNL     1      -2.326  14.217  22.791  0.00  0.00    +0.000 A 
ATOM     29  C   UNL     1      -2.607  13.112  23.564  0.00  0.00    +0.000 A 
ATOM     30  S   UNL     1      -1.771  11.726  23.023  0.00  0.00    +0.000 S 
ENDBRANCH  25  26
ENDBRANCH  17  25
ENDBRANCH   1  17
TORSDOF 7
ENDMDL
MODEL 5
REMARK VINA RESULT:      -6.5      0.723      1.147
REMARK  Name = 
REMARK  11 active torsions:
REMARK  status: ('A' for Active; 'I' for Inactive)
REMARK    1  A    between atoms: C_1  and  C_2
REMARK    2  A    between atoms: C_5  and  C_6
REMARK    3  A    between atoms: C_6  and  C_7
REMARK    4  A    between atoms: C_6  and  N_14
REMARK    5  A    between atoms: N_9  and  C_10
REMARK    6  A    between atoms: C_10  and  C_11
REMARK    7  A    between atoms: C_10  and  C_12
REMARK    8  A    between atoms: C_10  and  C_13
REMARK    9  A    between atoms: N_14  and  C_15
REMARK   10  A    between atoms: C_15  and  C_16
REMARK   11  A    between atoms: C_21  and  C_23
REMARK                            x       y       z     vdW  Elec       q    Type
REMARK                         _______ _______ _______ _____ _____    ______ ____
ROOT
ATOM      1  C   UNL     1       0.413  10.973  18.659  0.00  0.00    +0.000 C 
ENDROOT
BRANCH   1   6
ATOM      2  C   UNL     1       3.078   5.795  19.256  0.00  0.00    +0.000 C 
ATOM      3  C   UNL     1       2.562   7.201  19.171  0.00  0.00    +0.000 A 
ATOM      4  C   UNL     1       2.724   7.963  18.009  0.00  0.00    +0.000 A 
ATOM      5  C   UNL     1       2.078   9.200  17.870  0.00  0.00    +0.000 A 
ATOM      6  C   UNL     1       1.236   9.690  18.882  0.00  0.00    +0.000 A 
ATOM      7  C   UNL     1       1.157   8.957  20.078  0.00  0.00    +0.000 A 
ATOM      8  C   UNL     1       1.809   7.729  20.222  0.00  0.00    +0.000 A 
ENDBRANCH   1   6
BRANCH   1   9
ATOM      9  C   UNL     1      -1.109  10.696  18.430  0.00  0.00    +0.000 C 
ATOM     10  O   UNL     1      -1.858  10.342  19.338  0.00  0.00    +0.000 OA
ATOM     11  N   UNL     1      -1.550  10.853  17.118  0.00  0.00    +0.000 N 
ATOM     12  H   UNL     1      -0.916  11.279  16.454  0.00  0.00    +0.000 HD
BRANCH  11  13
ATOM     13  C   UNL     1      -2.933  10.589  16.661  0.00  0.00    +0.000 C 
ATOM     14  C   UNL     1      -3.465   9.272  17.247  0.00  0.00    +0.000 C 
ATOM     15  C   UNL     1      -3.848  11.730  17.150  0.00  0.00    +0.000 C 
ATOM     16  C   UNL     1      -3.016  10.557  15.125  0.00  0.00    +0.000 C 
ENDBRANCH  11  13
ENDBRANCH   1   9
BRANCH   1  17
ATOM     17  N   UNL     1       0.645  12.045  19.668  0.00  0.00    +0.000 N 
ATOM     18  C   UNL     1       1.423  13.162  19.257  0.00  0.00    +0.000 C 
ATOM     19  O   UNL     1       1.596  13.450  18.077  0.00  0.00    +0.000 OA
BRANCH  18  20
ATOM     20  C   UNL     1       2.014  14.069  20.269  0.00  0.00    +0.000 A 
ATOM     21  C   UNL     1       3.244  13.826  20.860  0.00  0.00    +0.000 A 
ATOM     22  S   UNL     1       3.566  15.097  21.960  0.00  0.00    +0.000 S 
ATOM     23  N   UNL     1       2.111  15.855  21.648  0.00  0.00    +0.000 NA
ATOM     24  N   UNL     1       1.374  15.207  20.769  0.00  0.00    +0.000 NA
ENDBRANCH  18  20
BRANCH  17  25
ATOM     25  C   UNL     1       0.579  11.721  21.090  0.00  0.00    +0.000 C 
BRANCH  25  26
ATOM     26  C   UNL     1      -0.639  12.109  21.875  0.00  0.00    +0.000 A 
ATOM     27  C   UNL     1      -1.196  11.492  22.983  0.00  0.00    +0.000 A 
ATOM     28  C   UNL     1      -2.538  11.919  23.220  0.00  0.00    +0.000 A 
ATOM     29  C   UNL     1      -2.941  12.882  22.323  0.00  0.00    +0.000 A 
ATOM     30  S   UNL     1      -1.688  13.319  21.250  0.00  0.00    +0.000 S 
ENDBRANCH  25  26
ENDBRANCH  17  25
ENDBRANCH   1  17
TORSDOF 7
ENDMDL
MODEL 6
REMARK VINA RESULT:      -6.4      2.040      3.615
REMARK  Name = 
REMARK  11 active torsions:
REMARK  status: ('A' for Active; 'I' for Inactive)
REMARK    1  A    between atoms: C_1  and  C_2
REMARK    2  A    between atoms: C_5  and  C_6
REMARK    3  A    between atoms: C_6  and  C_7
REMARK    4  A    between atoms: C_6  and  N_14
REMARK    5  A    between atoms: N_9  and  C_10
REMARK    6  A    between atoms: C_10  and  C_11
REMARK    7  A    between atoms: C_10  and  C_12
REMARK    8  A    between atoms: C_10  and  C_13
REMARK    9  A    between atoms: N_14  and  C_15
REMARK   10  A    between atoms: C_15  and  C_16
REMARK   11  A    between atoms: C_21  and  C_23
REMARK                            x       y       z     vdW  Elec       q    Type
REMARK                         _______ _______ _______ _____ _____    ______ ____
ROOT
ATOM      1  C   UNL     1       0.660  11.655  18.993  0.00  0.00    +0.000 C 
ENDROOT
BRANCH   1   6
ATOM      2  C   UNL     1       2.796   6.244  19.647  0.00  0.00    +0.000 C 
ATOM      3  C   UNL     1       2.077   7.544  19.436  0.00  0.00    +0.000 A 
ATOM      4  C   UNL     1       1.430   8.194  20.492  0.00  0.00    +0.000 A 
ATOM      5  C   UNL     1       0.925   9.493  20.331  0.00  0.00    +0.000 A 
ATOM      6  C   UNL     1       1.080  10.179  19.115  0.00  0.00    +0.000 A 
ATOM      7  C   UNL     1       1.651   9.479  18.038  0.00  0.00    +0.000 A 
ATOM      8  C   UNL     1       2.144   8.180  18.194  0.00  0.00    +0.000 A 
ENDBRANCH   1   6
BRANCH   1   9
ATOM      9  C   UNL     1      -0.667  11.853  18.187  0.00  0.00    +0.000 C 
ATOM     10  O   UNL     1      -0.964  12.925  17.663  0.00  0.00    +0.000 OA
ATOM     11  N   UNL     1      -1.498  10.738  18.128  0.00  0.00    +0.000 N 
ATOM     12  H   UNL     1      -1.129   9.855  18.459  0.00  0.00    +0.000 HD
BRANCH  11  13
ATOM     13  C   UNL     1      -2.823  10.714  17.471  0.00  0.00    +0.000 C 
ATOM     14  C   UNL     1      -2.692  10.942  15.957  0.00  0.00    +0.000 C 
ATOM     15  C   UNL     1      -3.466   9.329  17.688  0.00  0.00    +0.000 C 
ATOM     16  C   UNL     1      -3.769  11.762  18.084  0.00  0.00    +0.000 C 
ENDBRANCH  11  13
ENDBRANCH   1   9
BRANCH   1  17
ATOM     17  N   UNL     1       0.656  12.410  20.278  0.00  0.00    +0.000 N 
ATOM     18  C   UNL     1      -0.586  12.516  20.962  0.00  0.00    +0.000 C 
ATOM     19  O   UNL     1      -1.524  11.754  20.752  0.00  0.00    +0.000 OA
BRANCH  18  20
ATOM     20  C   UNL     1      -0.767  13.540  22.018  0.00  0.00    +0.000 A 
ATOM     21  C   UNL     1      -1.126  14.848  21.734  0.00  0.00    +0.000 A 
ATOM     22  S   UNL     1      -1.235  15.703  23.213  0.00  0.00    +0.000 S 
ATOM     23  N   UNL     1      -0.784  14.373  24.117  0.00  0.00    +0.000 NA
ATOM     24  N   UNL     1      -0.538  13.311  23.378  0.00  0.00    +0.000 NA
ENDBRANCH  18  20
BRANCH  17  25
ATOM     25  C   UNL     1       1.678  13.424  20.519  0.00  0.00    +0.000 C 
BRANCH  25  26
ATOM     26  C   UNL     1       2.139  14.287  19.381  0.00  0.00    +0.000 A 
ATOM     27  C   UNL     1       3.186  14.083  18.499  0.00  0.00    +0.000 A 
ATOM     28  C   UNL     1       3.550  15.278  17.808  0.00  0.00    +0.000 A 
ATOM     29  C   UNL     1       2.737  16.338  18.142  0.00  0.00    +0.000 A 
ATOM     30  S   UNL     1       1.503  15.877  19.227  0.00  0.00    +0.000 S 
ENDBRANCH  25  26
ENDBRANCH  17  25
ENDBRANCH   1  17
TORSDOF 7
ENDMDL
MODEL 7
REMARK VINA RESULT:      -6.4      0.889      1.303
REMARK  Name = 
REMARK  11 active torsions:
REMARK  status: ('A' for Active; 'I' for Inactive)
REMARK    1  A    between atoms: C_1  and  C_2
REMARK    2  A    between atoms: C_5  and  C_6
REMARK    3  A    between atoms: C_6  and  C_7
REMARK    4  A    between atoms: C_6  and  N_14
REMARK    5  A    between atoms: N_9  and  C_10
REMARK    6  A    between atoms: C_10  and  C_11
REMARK    7  A    between atoms: C_10  and  C_12
REMARK    8  A    between atoms: C_10  and  C_13
REMARK    9  A    between atoms: N_14  and  C_15
REMARK   10  A    between atoms: C_15  and  C_16
REMARK   11  A    between atoms: C_21  and  C_23
REMARK                            x       y       z     vdW  Elec       q    Type
REMARK                         _______ _______ _______ _____ _____    ______ ____
ROOT
ATOM      1  C   UNL     1       0.344  11.210  18.745  0.00  0.00    +0.000 C 
ENDROOT
BRANCH   1   6
ATOM      2  C   UNL     1       3.287   6.210  19.523  0.00  0.00    +0.000 C 
ATOM      3  C   UNL     1       2.378   7.378  19.277  0.00  0.00    +0.000 A 
ATOM      4  C   UNL     1       1.610   7.928  20.309  0.00  0.00    +0.000 A 
ATOM      5  C   UNL     1       0.912   9.130  20.118  0.00  0.00    +0.000 A 
ATOM      6  C   UNL     1       0.988   9.820  18.897  0.00  0.00    +0.000 A 
ATOM      7  C   UNL     1       1.689   9.208  17.843  0.00  0.00    +0.000 A 
ATOM      8  C   UNL     1       2.376   8.005  18.029  0.00  0.00    +0.000 A 
ENDBRANCH   1   6
BRANCH   1   9
ATOM      9  C   UNL     1      -1.197  11.150  18.478  0.00  0.00    +0.000 C 
ATOM     10  O   UNL     1      -2.021  11.579  19.282  0.00  0.00    +0.000 OA
ATOM     11  N   UNL     1      -1.568  10.552  17.276  0.00  0.00    +0.000 N 
ATOM     12  H   UNL     1      -0.839  10.350  16.603  0.00  0.00    +0.000 HD
BRANCH  11  13
ATOM     13  C   UNL     1      -2.967  10.336  16.844  0.00  0.00    +0.000 C 
ATOM     14  C   UNL     1      -3.021   9.786  15.410  0.00  0.00    +0.000 C 
ATOM     15  C   UNL     1      -3.625   9.298  17.776  0.00  0.00    +0.000 C 
ATOM     16  C   UNL     1      -3.788  11.633  16.945  0.00  0.00    +0.000 C 
ENDBRANCH  11  13
ENDBRANCH   1   9
BRANCH   1  17
ATOM     17  N   UNL     1       0.691  12.179  19.823  0.00  0.00    +0.000 N 
ATOM     18  C   UNL     1       1.459  13.316  19.447  0.00  0.00    +0.000 C 
ATOM     19  O   UNL     1       1.535  13.709  18.288  0.00  0.00    +0.000 OA
BRANCH  18  20
ATOM     20  C   UNL     1       2.159  14.113  20.481  0.00  0.00    +0.000 A 
ATOM     21  C   UNL     1       3.443  13.814  20.910  0.00  0.00    +0.000 A 
ATOM     22  S   UNL     1       3.889  14.964  22.097  0.00  0.00    +0.000 S 
ATOM     23  N   UNL     1       2.414  15.745  22.022  0.00  0.00    +0.000 NA
ATOM     24  N   UNL     1       1.584  15.190  21.163  0.00  0.00    +0.000 NA
ENDBRANCH  18  20
BRANCH  17  25
ATOM     25  C   UNL     1       0.741  11.725  21.209  0.00  0.00    +0.000 C 
BRANCH  25  26
ATOM     26  C   UNL     1      -0.430  11.988  22.110  0.00  0.00    +0.000 A 
ATOM     27  C   UNL     1      -1.148  11.097  22.889  0.00  0.00    +0.000 A 
ATOM     28  C   UNL     1      -2.403  11.636  23.306  0.00  0.00    +0.000 A 
ATOM     29  C   UNL     1      -2.577  12.933  22.879  0.00  0.00    +0.000 A 
ATOM     30  S   UNL     1      -1.209  13.519  22.045  0.00  0.00    +0.000 S 
ENDBRANCH  25  26
ENDBRANCH  17  25
ENDBRANCH   1  17
TORSDOF 7
ENDMDL
MODEL 8
REMARK VINA RESULT:      -6.3      2.674      6.403
REMARK  Name = 
REMARK  11 active torsions:
REMARK  status: ('A' for Active; 'I' for Inactive)
REMARK    1  A    between atoms: C_1  and  C_2
REMARK    2  A    between atoms: C_5  and  C_6
REMARK    3  A    between atoms: C_6  and  C_7
REMARK    4  A    between atoms: C_6  and  N_14
REMARK    5  A    between atoms: N_9  and  C_10
REMARK    6  A    between atoms: C_10  and  C_11
REMARK    7  A    between atoms: C_10  and  C_12
REMARK    8  A    between atoms: C_10  and  C_13
REMARK    9  A    between atoms: N_14  and  C_15
REMARK   10  A    between atoms: C_15  and  C_16
REMARK   11  A    between atoms: C_21  and  C_23
REMARK                            x       y       z     vdW  Elec       q    Type
REMARK                         _______ _______ _______ _____ _____    ______ ____
ROOT
ATOM      1  C   UNL     1      -1.659  12.124  19.454  0.00  0.00    +0.000 C 
ENDROOT
BRANCH   1   6
ATOM      2  C   UNL     1      -4.255  12.483  24.689  0.00  0.00    +0.000 C 
ATOM      3  C   UNL     1      -3.491  12.553  23.399  0.00  0.00    +0.000 A 
ATOM      4  C   UNL     1      -2.260  11.906  23.250  0.00  0.00    +0.000 A 
ATOM      5  C   UNL     1      -1.646  11.818  21.992  0.00  0.00    +0.000 A 
ATOM      6  C   UNL     1      -2.264  12.356  20.851  0.00  0.00    +0.000 A 
ATOM      7  C   UNL     1      -3.454  13.082  21.033  0.00  0.00    +0.000 A 
ATOM      8  C   UNL     1      -4.061  13.179  22.288  0.00  0.00    +0.000 A 
ENDBRANCH   1   6
BRANCH   1   9
ATOM      9  C   UNL     1      -0.795  13.327  18.949  0.00  0.00    +0.000 C 
ATOM     10  O   UNL     1      -0.460  13.449  17.773  0.00  0.00    +0.000 OA
ATOM     11  N   UNL     1      -0.411  14.236  19.932  0.00  0.00    +0.000 N 
ATOM     12  H   UNL     1      -0.837  14.151  20.847  0.00  0.00    +0.000 HD
BRANCH  11  13
ATOM     13  C   UNL     1       0.452  15.414  19.694  0.00  0.00    +0.000 C 
ATOM     14  C   UNL     1      -0.237  16.422  18.760  0.00  0.00    +0.000 C 
ATOM     15  C   UNL     1       0.721  16.119  21.038  0.00  0.00    +0.000 C 
ATOM     16  C   UNL     1       1.814  14.998  19.111  0.00  0.00    +0.000 C 
ENDBRANCH  11  13
ENDBRANCH   1   9
BRANCH   1  17
ATOM     17  N   UNL     1      -0.959  10.819  19.286  0.00  0.00    +0.000 N 
ATOM     18  C   UNL     1       0.455  10.820  19.437  0.00  0.00    +0.000 C 
ATOM     19  O   UNL     1       1.057  11.713  20.024  0.00  0.00    +0.000 OA
BRANCH  18  20
ATOM     20  C   UNL     1       1.257   9.684  18.927  0.00  0.00    +0.000 A 
ATOM     21  C   UNL     1       1.537   8.564  19.695  0.00  0.00    +0.000 A 
ATOM     22  S   UNL     1       2.477   7.491  18.749  0.00  0.00    +0.000 S 
ATOM     23  N   UNL     1       2.503   8.527  17.439  0.00  0.00    +0.000 NA
ATOM     24  N   UNL     1       1.856   9.653  17.664  0.00  0.00    +0.000 NA
ENDBRANCH  18  20
BRANCH  17  25
ATOM     25  C   UNL     1      -1.578   9.769  18.484  0.00  0.00    +0.000 C 
BRANCH  25  26
ATOM     26  C   UNL     1      -2.574  10.145  17.425  0.00  0.00    +0.000 A 
ATOM     27  C   UNL     1      -2.372  10.358  16.073  0.00  0.00    +0.000 A 
ATOM     28  C   UNL     1      -3.460  11.057  15.468  0.00  0.00    +0.000 A 
ATOM     29  C   UNL     1      -4.477  11.305  16.362  0.00  0.00    +0.000 A 
ATOM     30  S   UNL     1      -4.152  10.638  17.899  0.00  0.00    +0.000 S 
ENDBRANCH  25  26
ENDBRANCH  17  25
ENDBRANCH   1  17
TORSDOF 7
ENDMDL
MODEL 9
REMARK VINA RESULT:      -6.2      2.746      6.394
REMARK  Name = 
REMARK  11 active torsions:
REMARK  status: ('A' for Active; 'I' for Inactive)
REMARK    1  A    between atoms: C_1  and  C_2
REMARK    2  A    between atoms: C_5  and  C_6
REMARK    3  A    between atoms: C_6  and  C_7
REMARK    4  A    between atoms: C_6  and  N_14
REMARK    5  A    between atoms: N_9  and  C_10
REMARK    6  A    between atoms: C_10  and  C_11
REMARK    7  A    between atoms: C_10  and  C_12
REMARK    8  A    between atoms: C_10  and  C_13
REMARK    9  A    between atoms: N_14  and  C_15
REMARK   10  A    between atoms: C_15  and  C_16
REMARK   11  A    between atoms: C_21  and  C_23
REMARK                            x       y       z     vdW  Elec       q    Type
REMARK                         _______ _______ _______ _____ _____    ______ ____
ROOT
ATOM      1  C   UNL     1      -1.724  12.077  19.553  0.00  0.00    +0.000 C 
ENDROOT
BRANCH   1   6
ATOM      2  C   UNL     1      -4.382  12.558  24.747  0.00  0.00    +0.000 C 
ATOM      3  C   UNL     1      -3.611  12.604  23.461  0.00  0.00    +0.000 A 
ATOM      4  C   UNL     1      -2.348  12.012  23.352  0.00  0.00    +0.000 A 
ATOM      5  C   UNL     1      -1.719  11.895  22.104  0.00  0.00    +0.000 A 
ATOM      6  C   UNL     1      -2.352  12.346  20.934  0.00  0.00    +0.000 A 
ATOM      7  C   UNL     1      -3.579  13.019  21.072  0.00  0.00    +0.000 A 
ATOM      8  C   UNL     1      -4.201  13.146  22.317  0.00  0.00    +0.000 A 
ENDBRANCH   1   6
BRANCH   1   9
ATOM      9  C   UNL     1      -0.855  13.268  19.030  0.00  0.00    +0.000 C 
ATOM     10  O   UNL     1      -0.499  13.357  17.857  0.00  0.00    +0.000 OA
ATOM     11  N   UNL     1      -0.492  14.206  19.993  0.00  0.00    +0.000 N 
ATOM     12  H   UNL     1      -0.934  14.146  20.902  0.00  0.00    +0.000 HD
BRANCH  11  13
ATOM     13  C   UNL     1       0.372  15.380  19.737  0.00  0.00    +0.000 C 
ATOM     14  C   UNL     1       0.664  16.144  21.038  0.00  0.00    +0.000 C 
ATOM     15  C   UNL     1       1.717  14.896  19.159  0.00  0.00    +0.000 C 
ATOM     16  C   UNL     1      -0.263  16.323  18.700  0.00  0.00    +0.000 C 
ENDBRANCH  11  13
ENDBRANCH   1   9
BRANCH   1  17
ATOM     17  N   UNL     1      -1.019  10.770  19.433  0.00  0.00    +0.000 N 
ATOM     18  C   UNL     1       0.380  10.764  19.691  0.00  0.00    +0.000 C 
ATOM     19  O   UNL     1       0.939  11.651  20.327  0.00  0.00    +0.000 OA
BRANCH  18  20
ATOM     20  C   UNL     1       1.214   9.626  19.238  0.00  0.00    +0.000 A 
ATOM     21  C   UNL     1       1.788   9.579  17.977  0.00  0.00    +0.000 A 
ATOM     22  S   UNL     1       2.668   8.116  17.849  0.00  0.00    +0.000 S 
ATOM     23  N   UNL     1       2.235   7.617  19.383  0.00  0.00    +0.000 NA
ATOM     24  N   UNL     1       1.450   8.477  19.998  0.00  0.00    +0.000 NA
ENDBRANCH  18  20
BRANCH  17  25
ATOM     25  C   UNL     1      -1.579   9.726  18.581  0.00  0.00    +0.000 C 
BRANCH  25  26
ATOM     26  C   UNL     1      -2.547  10.103  17.498  0.00  0.00    +0.000 A 
ATOM     27  C   UNL     1      -2.307  10.328  16.153  0.00  0.00    +0.000 A 
ATOM     28  C   UNL     1      -3.381  11.024  15.522  0.00  0.00    +0.000 A 
ATOM     29  C   UNL     1      -4.425  11.260  16.388  0.00  0.00    +0.000 A 
ATOM     30  S   UNL     1      -4.140  10.584  17.929  0.00  0.00    +0.000 S 
ENDBRANCH  25  26
ENDBRANCH  17  25
ENDBRANCH   1  17
TORSDOF 7
ENDMDL
