MODEL 1
REMARK VINA RESULT:      -8.2      0.000      0.000
REMARK  Name = 
REMARK  6 active torsions:
REMARK  status: ('A' for Active; 'I' for Inactive)
REMARK    1  A    between atoms: C_1  and  C_2
REMARK    2  A    between atoms: C_5  and  N_6
REMARK    3  A    between atoms: N_9  and  C_10
REMARK    4  A    between atoms: C_10  and  C_11
REMARK    5  A    between atoms: C_11  and  N_12
REMARK    6  A    between atoms: C_14  and  C_15
REMARK                            x       y       z     vdW  Elec       q    Type
REMARK                         _______ _______ _______ _____ _____    ______ ____
ROOT
ATOM      1  C   UNL     1       5.506   5.326  19.265  0.00  0.00    +0.000 C 
ENDROOT
BRANCH   1   2
ATOM      2  N   UNL     1       6.239   4.973  18.066  0.00  0.00    +0.000 N 
ATOM      3  C   UNL     1       5.812   5.072  16.777  0.00  0.00    +0.000 A 
ATOM      4  C   UNL     1       6.894   4.650  16.033  0.00  0.00    +0.000 A 
ATOM      5  N   UNL     1       7.909   4.292  16.886  0.00  0.00    +0.000 NA
ATOM      6  N   UNL     1       7.492   4.487  18.130  0.00  0.00    +0.000 NA
BRANCH   4   7
ATOM      7  C   UNL     1       6.977   4.594  14.585  0.00  0.00    +0.000 A 
ATOM      8  C   UNL     1       6.206   3.684  13.867  0.00  0.00    +0.000 A 
ATOM      9  C   UNL     1       6.331   3.644  12.480  0.00  0.00    +0.000 A 
ATOM     10  C   UNL     1       7.219   4.509  11.852  0.00  0.00    +0.000 A 
ATOM     11  C   UNL     1       7.944   5.388  12.639  0.00  0.00    +0.000 A 
ATOM     12  N   UNL     1       7.844   5.452  13.986  0.00  0.00    +0.000 NA
ENDBRANCH   4   7
ENDBRANCH   1   2
BRANCH   1  13
ATOM     13  C   UNL     1       4.489   4.268  19.690  0.00  0.00    +0.000 C 
BRANCH  13  19
ATOM     14  C   UNL     1       3.603   1.648  18.306  0.00  0.00    +0.000 C 
ATOM     15  C   UNL     1       2.923   2.965  18.182  0.00  0.00    +0.000 A 
ATOM     16  N   UNL     1       1.803   3.171  17.515  0.00  0.00    +0.000 NA
ATOM     17  C   UNL     1       1.477   4.490  17.701  0.00  0.00    +0.000 A 
ATOM     18  C   UNL     1       2.438   5.095  18.462  0.00  0.00    +0.000 A 
ATOM     19  N   UNL     1       3.364   4.137  18.776  0.00  0.00    +0.000 N 
BRANCH  18  20
ATOM     20  N   UNL     1       2.499   6.439  18.894  0.00  0.00    +0.000 N 
ATOM     21  O   UNL     1       2.905   7.268  18.077  0.00  0.00    +0.000 OA
ATOM     22  O   UNL     1       2.133   6.661  20.053  0.00  0.00    +0.000 OA
ENDBRANCH  18  20
ENDBRANCH  13  19
ENDBRANCH   1  13
TORSDOF 5
ENDMDL
MODEL 2
REMARK VINA RESULT:      -8.0      2.037      2.568
REMARK  Name = 
REMARK  6 active torsions:
REMARK  status: ('A' for Active; 'I' for Inactive)
REMARK    1  A    between atoms: C_1  and  C_2
REMARK    2  A    between atoms: C_5  and  N_6
REMARK    3  A    between atoms: N_9  and  C_10
REMARK    4  A    between atoms: C_10  and  C_11
REMARK    5  A    between atoms: C_11  and  N_12
REMARK    6  A    between atoms: C_14  and  C_15
REMARK                            x       y       z     vdW  Elec       q    Type
REMARK                         _______ _______ _______ _____ _____    ______ ____
ROOT
ATOM      1  C   UNL     1       4.916   5.233  19.073  0.00  0.00    +0.000 C 
ENDROOT
BRANCH   1   2
ATOM      2  N   UNL     1       5.788   4.943  17.952  0.00  0.00    +0.000 N 
ATOM      3  C   UNL     1       5.481   5.010  16.628  0.00  0.00    +0.000 A 
ATOM      4  C   UNL     1       6.660   4.679  15.994  0.00  0.00    +0.000 A 
ATOM      5  N   UNL     1       7.613   4.403  16.942  0.00  0.00    +0.000 NA
ATOM      6  N   UNL     1       7.064   4.561  18.139  0.00  0.00    +0.000 NA
BRANCH   4   7
ATOM      7  C   UNL     1       6.886   4.633  14.560  0.00  0.00    +0.000 A 
ATOM      8  C   UNL     1       6.191   3.727  13.763  0.00  0.00    +0.000 A 
ATOM      9  C   UNL     1       6.454   3.697  12.395  0.00  0.00    +0.000 A 
ATOM     10  C   UNL     1       7.398   4.566  11.865  0.00  0.00    +0.000 A 
ATOM     11  C   UNL     1       8.040   5.440  12.725  0.00  0.00    +0.000 A 
ATOM     12  N   UNL     1       7.807   5.496  14.056  0.00  0.00    +0.000 NA
ENDBRANCH   4   7
ENDBRANCH   1   2
BRANCH   1  13
ATOM     13  C   UNL     1       3.443   5.344  18.686  0.00  0.00    +0.000 C 
BRANCH  13  19
ATOM     14  C   UNL     1       1.635   6.238  21.031  0.00  0.00    +0.000 C 
ATOM     15  C   UNL     1       1.717   4.860  20.477  0.00  0.00    +0.000 A 
ATOM     16  N   UNL     1       0.970   3.848  20.873  0.00  0.00    +0.000 NA
ATOM     17  C   UNL     1       1.303   2.782  20.076  0.00  0.00    +0.000 A 
ATOM     18  C   UNL     1       2.295   3.153  19.212  0.00  0.00    +0.000 A 
ATOM     19  N   UNL     1       2.568   4.472  19.454  0.00  0.00    +0.000 N 
BRANCH  18  20
ATOM     20  N   UNL     1       2.931   2.374  18.219  0.00  0.00    +0.000 N 
ATOM     21  O   UNL     1       2.517   2.499  17.064  0.00  0.00    +0.000 OA
ATOM     22  O   UNL     1       3.852   1.643  18.599  0.00  0.00    +0.000 OA
ENDBRANCH  18  20
ENDBRANCH  13  19
ENDBRANCH   1  13
TORSDOF 5
ENDMDL
MODEL 3
REMARK VINA RESULT:      -7.9      1.925      2.668
REMARK  Name = 
REMARK  6 active torsions:
REMARK  status: ('A' for Active; 'I' for Inactive)
REMARK    1  A    between atoms: C_1  and  C_2
REMARK    2  A    between atoms: C_5  and  N_6
REMARK    3  A    between atoms: N_9  and  C_10
REMARK    4  A    between atoms: C_10  and  C_11
REMARK    5  A    between atoms: C_11  and  N_12
REMARK    6  A    between atoms: C_14  and  C_15
REMARK                            x       y       z     vdW  Elec       q    Type
REMARK                         _______ _______ _______ _____ _____    ______ ____
ROOT
ATOM      1  C   UNL     1       4.885   3.758  18.976  0.00  0.00    +0.000 C 
ENDROOT
BRANCH   1   2
ATOM      2  N   UNL     1       5.716   4.160  17.859  0.00  0.00    +0.000 N 
ATOM      3  C   UNL     1       5.540   3.852  16.545  0.00  0.00    +0.000 A 
ATOM      4  C   UNL     1       6.571   4.508  15.906  0.00  0.00    +0.000 A 
ATOM      5  N   UNL     1       7.334   5.158  16.844  0.00  0.00    +0.000 NA
ATOM      6  N   UNL     1       6.805   4.930  18.039  0.00  0.00    +0.000 NA
BRANCH   4   7
ATOM      7  C   UNL     1       6.823   4.535  14.477  0.00  0.00    +0.000 A 
ATOM      8  C   UNL     1       6.166   3.650  13.626  0.00  0.00    +0.000 A 
ATOM      9  C   UNL     1       6.453   3.690  12.263  0.00  0.00    +0.000 A 
ATOM     10  C   UNL     1       7.383   4.607  11.791  0.00  0.00    +0.000 A 
ATOM     11  C   UNL     1       7.987   5.456  12.703  0.00  0.00    +0.000 A 
ATOM     12  N   UNL     1       7.729   5.443  14.030  0.00  0.00    +0.000 NA
ENDBRANCH   4   7
ENDBRANCH   1   2
BRANCH   1  13
ATOM     13  C   UNL     1       3.390   3.938  18.720  0.00  0.00    +0.000 C 
BRANCH  13  19
ATOM     14  C   UNL     1       3.386   6.963  18.076  0.00  0.00    +0.000 C 
ATOM     15  C   UNL     1       2.723   6.325  19.245  0.00  0.00    +0.000 A 
ATOM     16  N   UNL     1       1.982   6.967  20.127  0.00  0.00    +0.000 NA
ATOM     17  C   UNL     1       1.505   6.019  20.997  0.00  0.00    +0.000 A 
ATOM     18  C   UNL     1       2.000   4.793  20.652  0.00  0.00    +0.000 A 
ATOM     19  N   UNL     1       2.776   4.972  19.538  0.00  0.00    +0.000 N 
BRANCH  18  20
ATOM     20  N   UNL     1       1.766   3.545  21.271  0.00  0.00    +0.000 N 
ATOM     21  O   UNL     1       2.477   3.262  22.238  0.00  0.00    +0.000 OA
ATOM     22  O   UNL     1       0.863   2.852  20.789  0.00  0.00    +0.000 OA
ENDBRANCH  18  20
ENDBRANCH  13  19
ENDBRANCH   1  13
TORSDOF 5
ENDMDL
MODEL 4
REMARK VINA RESULT:      -7.8      1.972      2.593
REMARK  Name = 
REMARK  6 active torsions:
REMARK  status: ('A' for Active; 'I' for Inactive)
REMARK    1  A    between atoms: C_1  and  C_2
REMARK    2  A    between atoms: C_5  and  N_6
REMARK    3  A    between atoms: N_9  and  C_10
REMARK    4  A    between atoms: C_10  and  C_11
REMARK    5  A    between atoms: C_11  and  N_12
REMARK    6  A    between atoms: C_14  and  C_15
REMARK                            x       y       z     vdW  Elec       q    Type
REMARK                         _______ _______ _______ _____ _____    ______ ____
ROOT
ATOM      1  C   UNL     1       5.526   5.109  19.380  0.00  0.00    +0.000 C 
ENDROOT
BRANCH   1   2
ATOM      2  N   UNL     1       5.768   5.417  17.985  0.00  0.00    +0.000 N 
ATOM      3  C   UNL     1       6.096   4.546  16.992  0.00  0.00    +0.000 A 
ATOM      4  C   UNL     1       6.174   5.338  15.865  0.00  0.00    +0.000 A 
ATOM      5  N   UNL     1       5.919   6.640  16.217  0.00  0.00    +0.000 NA
ATOM      6  N   UNL     1       5.680   6.677  17.521  0.00  0.00    +0.000 NA
BRANCH   4   7
ATOM      7  C   UNL     1       6.463   4.892  14.514  0.00  0.00    +0.000 A 
ATOM      8  C   UNL     1       5.667   3.927  13.902  0.00  0.00    +0.000 A 
ATOM      9  C   UNL     1       5.990   3.507  12.614  0.00  0.00    +0.000 A 
ATOM     10  C   UNL     1       7.093   4.059  11.976  0.00  0.00    +0.000 A 
ATOM     11  C   UNL     1       7.829   5.017  12.652  0.00  0.00    +0.000 A 
ATOM     12  N   UNL     1       7.540   5.447  13.901  0.00  0.00    +0.000 NA
ENDBRANCH   4   7
ENDBRANCH   1   2
BRANCH   1  13
ATOM     13  C   UNL     1       4.067   5.288  19.798  0.00  0.00    +0.000 C 
BRANCH  13  19
ATOM     14  C   UNL     1       2.103   5.876  17.483  0.00  0.00    +0.000 C 
ATOM     15  C   UNL     1       2.308   4.552  18.129  0.00  0.00    +0.000 A 
ATOM     16  N   UNL     1       1.724   3.433  17.746  0.00  0.00    +0.000 NA
ATOM     17  C   UNL     1       2.226   2.439  18.546  0.00  0.00    +0.000 A 
ATOM     18  C   UNL     1       3.099   2.978  19.450  0.00  0.00    +0.000 A 
ATOM     19  N   UNL     1       3.162   4.321  19.196  0.00  0.00    +0.000 N 
BRANCH  18  20
ATOM     20  N   UNL     1       3.842   2.318  20.455  0.00  0.00    +0.000 N 
ATOM     21  O   UNL     1       3.355   2.306  21.588  0.00  0.00    +0.000 OA
ATOM     22  O   UNL     1       4.910   1.808  20.104  0.00  0.00    +0.000 OA
ENDBRANCH  18  20
ENDBRANCH  13  19
ENDBRANCH   1  13
TORSDOF 5
ENDMDL
MODEL 5
REMARK VINA RESULT:      -7.7      2.365      2.988
REMARK  Name = 
REMARK  6 active torsions:
REMARK  status: ('A' for Active; 'I' for Inactive)
REMARK    1  A    between atoms: C_1  and  C_2
REMARK    2  A    between atoms: C_5  and  N_6
REMARK    3  A    between atoms: N_9  and  C_10
REMARK    4  A    between atoms: C_10  and  C_11
REMARK    5  A    between atoms: C_11  and  N_12
REMARK    6  A    between atoms: C_14  and  C_15
REMARK                            x       y       z     vdW  Elec       q    Type
REMARK                         _______ _______ _______ _____ _____    ______ ____
ROOT
ATOM      1  C   UNL     1       4.368   5.761  18.784  0.00  0.00    +0.000 C 
ENDROOT
BRANCH   1   2
ATOM      2  N   UNL     1       5.311   5.670  17.688  0.00  0.00    +0.000 N 
ATOM      3  C   UNL     1       5.121   5.067  16.482  0.00  0.00    +0.000 A 
ATOM      4  C   UNL     1       6.298   5.301  15.802  0.00  0.00    +0.000 A 
ATOM      5  N   UNL     1       7.151   6.003  16.617  0.00  0.00    +0.000 NA
ATOM      6  N   UNL     1       6.538   6.216  17.773  0.00  0.00    +0.000 NA
BRANCH   4   7
ATOM      7  C   UNL     1       6.606   4.894  14.443  0.00  0.00    +0.000 A 
ATOM      8  C   UNL     1       5.851   3.909  13.812  0.00  0.00    +0.000 A 
ATOM      9  C   UNL     1       6.192   3.528  12.516  0.00  0.00    +0.000 A 
ATOM     10  C   UNL     1       7.272   4.137  11.890  0.00  0.00    +0.000 A 
ATOM     11  C   UNL     1       7.966   5.113  12.585  0.00  0.00    +0.000 A 
ATOM     12  N   UNL     1       7.660   5.506  13.842  0.00  0.00    +0.000 NA
ENDBRANCH   4   7
ENDBRANCH   1   2
BRANCH   1  13
ATOM     13  C   UNL     1       3.220   4.758  18.684  0.00  0.00    +0.000 C 
BRANCH  13  19
ATOM     14  C   UNL     1       1.375   5.902  20.888  0.00  0.00    +0.000 C 
ATOM     15  C   UNL     1       2.046   4.575  20.923  0.00  0.00    +0.000 A 
ATOM     16  N   UNL     1       1.882   3.678  21.876  0.00  0.00    +0.000 NA
ATOM     17  C   UNL     1       2.613   2.578  21.505  0.00  0.00    +0.000 A 
ATOM     18  C   UNL     1       3.257   2.835  20.327  0.00  0.00    +0.000 A 
ATOM     19  N   UNL     1       2.905   4.101  19.944  0.00  0.00    +0.000 N 
BRANCH  18  20
ATOM     20  N   UNL     1       4.110   1.984  19.588  0.00  0.00    +0.000 N 
ATOM     21  O   UNL     1       3.622   1.429  18.601  0.00  0.00    +0.000 OA
ATOM     22  O   UNL     1       5.271   1.879  19.996  0.00  0.00    +0.000 OA
ENDBRANCH  18  20
ENDBRANCH  13  19
ENDBRANCH   1  13
TORSDOF 5
ENDMDL
MODEL 6
REMARK VINA RESULT:      -7.5      1.729      2.048
REMARK  Name = 
REMARK  6 active torsions:
REMARK  status: ('A' for Active; 'I' for Inactive)
REMARK    1  A    between atoms: C_1  and  C_2
REMARK    2  A    between atoms: C_5  and  N_6
REMARK    3  A    between atoms: N_9  and  C_10
REMARK    4  A    between atoms: C_10  and  C_11
REMARK    5  A    between atoms: C_11  and  N_12
REMARK    6  A    between atoms: C_14  and  C_15
REMARK                            x       y       z     vdW  Elec       q    Type
REMARK                         _______ _______ _______ _____ _____    ______ ____
ROOT
ATOM      1  C   UNL     1       5.010   4.639  19.173  0.00  0.00    +0.000 C 
ENDROOT
BRANCH   1   2
ATOM      2  N   UNL     1       5.709   4.969  17.946  0.00  0.00    +0.000 N 
ATOM      3  C   UNL     1       5.659   4.300  16.762  0.00  0.00    +0.000 A 
ATOM      4  C   UNL     1       6.465   5.042  15.924  0.00  0.00    +0.000 A 
ATOM      5  N   UNL     1       6.983   6.101  16.628  0.00  0.00    +0.000 NA
ATOM      6  N   UNL     1       6.519   6.040  17.869  0.00  0.00    +0.000 NA
BRANCH   4   7
ATOM      7  C   UNL     1       6.729   4.778  14.521  0.00  0.00    +0.000 A 
ATOM      8  C   UNL     1       6.032   3.779  13.847  0.00  0.00    +0.000 A 
ATOM      9  C   UNL     1       6.330   3.539  12.507  0.00  0.00    +0.000 A 
ATOM     10  C   UNL     1       7.310   4.298  11.882  0.00  0.00    +0.000 A 
ATOM     11  C   UNL     1       7.952   5.277  12.623  0.00  0.00    +0.000 A 
ATOM     12  N   UNL     1       7.685   5.536  13.923  0.00  0.00    +0.000 NA
ENDBRANCH   4   7
ENDBRANCH   1   2
BRANCH   1  13
ATOM     13  C   UNL     1       4.431   3.226  19.183  0.00  0.00    +0.000 C 
BRANCH  13  19
ATOM     14  C   UNL     1       2.830   2.791  16.572  0.00  0.00    +0.000 C 
ATOM     15  C   UNL     1       2.245   2.948  17.930  0.00  0.00    +0.000 A 
ATOM     16  N   UNL     1       0.959   2.850  18.208  0.00  0.00    +0.000 NA
ATOM     17  C   UNL     1       0.843   2.989  19.567  0.00  0.00    +0.000 A 
ATOM     18  C   UNL     1       2.078   3.211  20.110  0.00  0.00    +0.000 A 
ATOM     19  N   UNL     1       2.980   3.187  19.081  0.00  0.00    +0.000 N 
BRANCH  18  20
ATOM     20  N   UNL     1       2.419   3.406  21.468  0.00  0.00    +0.000 N 
ATOM     21  O   UNL     1       2.416   4.568  21.881  0.00  0.00    +0.000 OA
ATOM     22  O   UNL     1       2.683   2.390  22.120  0.00  0.00    +0.000 OA
ENDBRANCH  18  20
ENDBRANCH  13  19
ENDBRANCH   1  13
TORSDOF 5
ENDMDL
MODEL 7
REMARK VINA RESULT:      -7.5      2.062      2.685
REMARK  Name = 
REMARK  6 active torsions:
REMARK  status: ('A' for Active; 'I' for Inactive)
REMARK    1  A    between atoms: C_1  and  C_2
REMARK    2  A    between atoms: C_5  and  N_6
REMARK    3  A    between atoms: N_9  and  C_10
REMARK    4  A    between atoms: C_10  and  C_11
REMARK    5  A    between atoms: C_11  and  N_12
REMARK    6  A    between atoms: C_14  and  C_15
REMARK                            x       y       z     vdW  Elec       q    Type
REMARK                         _______ _______ _______ _____ _____    ______ ____
ROOT
ATOM      1  C   UNL     1       4.962   5.022  19.084  0.00  0.00    +0.000 C 
ENDROOT
BRANCH   1   2
ATOM      2  N   UNL     1       5.829   4.827  17.939  0.00  0.00    +0.000 N 
ATOM      3  C   UNL     1       5.462   4.735  16.631  0.00  0.00    +0.000 A 
ATOM      4  C   UNL     1       6.657   4.596  15.958  0.00  0.00    +0.000 A 
ATOM      5  N   UNL     1       7.684   4.583  16.870  0.00  0.00    +0.000 NA
ATOM      6  N   UNL     1       7.162   4.718  18.081  0.00  0.00    +0.000 NA
BRANCH   4   7
ATOM      7  C   UNL     1       6.832   4.490  14.520  0.00  0.00    +0.000 A 
ATOM      8  C   UNL     1       7.724   5.324  13.853  0.00  0.00    +0.000 A 
ATOM      9  C   UNL     1       7.846   5.209  12.470  0.00  0.00    +0.000 A 
ATOM     10  C   UNL     1       7.077   4.269  11.795  0.00  0.00    +0.000 A 
ATOM     11  C   UNL     1       6.218   3.474  12.535  0.00  0.00    +0.000 A 
ATOM     12  N   UNL     1       6.078   3.560  13.877  0.00  0.00    +0.000 NA
ENDBRANCH   4   7
ENDBRANCH   1   2
BRANCH   1  13
ATOM     13  C   UNL     1       3.553   5.479  18.710  0.00  0.00    +0.000 C 
BRANCH  13  19
ATOM     14  C   UNL     1       1.709   6.426  21.006  0.00  0.00    +0.000 C 
ATOM     15  C   UNL     1       1.633   5.108  20.322  0.00  0.00    +0.000 A 
ATOM     16  N   UNL     1       0.714   4.192  20.561  0.00  0.00    +0.000 NA
ATOM     17  C   UNL     1       0.952   3.164  19.685  0.00  0.00    +0.000 A 
ATOM     18  C   UNL     1       2.056   3.452  18.932  0.00  0.00    +0.000 A 
ATOM     19  N   UNL     1       2.499   4.687  19.325  0.00  0.00    +0.000 N 
BRANCH  18  20
ATOM     20  N   UNL     1       2.650   2.677  17.911  0.00  0.00    +0.000 N 
ATOM     21  O   UNL     1       2.312   2.930  16.753  0.00  0.00    +0.000 OA
ATOM     22  O   UNL     1       3.462   1.819  18.274  0.00  0.00    +0.000 OA
ENDBRANCH  18  20
ENDBRANCH  13  19
ENDBRANCH   1  13
TORSDOF 5
ENDMDL
MODEL 8
REMARK VINA RESULT:      -7.4      1.772      2.168
REMARK  Name = 
REMARK  6 active torsions:
REMARK  status: ('A' for Active; 'I' for Inactive)
REMARK    1  A    between atoms: C_1  and  C_2
REMARK    2  A    between atoms: C_5  and  N_6
REMARK    3  A    between atoms: N_9  and  C_10
REMARK    4  A    between atoms: C_10  and  C_11
REMARK    5  A    between atoms: C_11  and  N_12
REMARK    6  A    between atoms: C_14  and  C_15
REMARK                            x       y       z     vdW  Elec       q    Type
REMARK                         _______ _______ _______ _____ _____    ______ ____
ROOT
ATOM      1  C   UNL     1       4.529   5.268  19.026  0.00  0.00    +0.000 C 
ENDROOT
BRANCH   1   2
ATOM      2  N   UNL     1       4.973   5.539  17.673  0.00  0.00    +0.000 N 
ATOM      3  C   UNL     1       5.511   4.656  16.788  0.00  0.00    +0.000 A 
ATOM      4  C   UNL     1       5.718   5.407  15.650  0.00  0.00    +0.000 A 
ATOM      5  N   UNL     1       5.328   6.701  15.893  0.00  0.00    +0.000 NA
ATOM      6  N   UNL     1       4.881   6.770  17.140  0.00  0.00    +0.000 NA
BRANCH   4   7
ATOM      7  C   UNL     1       6.248   4.930  14.385  0.00  0.00    +0.000 A 
ATOM      8  C   UNL     1       5.586   3.936  13.670  0.00  0.00    +0.000 A 
ATOM      9  C   UNL     1       6.138   3.488  12.473  0.00  0.00    +0.000 A 
ATOM     10  C   UNL     1       7.330   4.042  12.024  0.00  0.00    +0.000 A 
ATOM     11  C   UNL     1       7.922   5.032  12.791  0.00  0.00    +0.000 A 
ATOM     12  N   UNL     1       7.410   5.489  13.957  0.00  0.00    +0.000 NA
ENDBRANCH   4   7
ENDBRANCH   1   2
BRANCH   1  13
ATOM     13  C   UNL     1       4.254   3.789  19.292  0.00  0.00    +0.000 C 
BRANCH  13  19
ATOM     14  C   UNL     1       2.934   2.406  16.860  0.00  0.00    +0.000 C 
ATOM     15  C   UNL     1       2.247   2.767  18.129  0.00  0.00    +0.000 A 
ATOM     16  N   UNL     1       0.992   2.477  18.410  0.00  0.00    +0.000 NA
ATOM     17  C   UNL     1       0.767   2.917  19.689  0.00  0.00    +0.000 A 
ATOM     18  C   UNL     1       1.898   3.516  20.170  0.00  0.00    +0.000 A 
ATOM     19  N   UNL     1       2.849   3.427  19.189  0.00  0.00    +0.000 N 
BRANCH  18  20
ATOM     20  N   UNL     1       2.109   4.104  21.438  0.00  0.00    +0.000 N 
ATOM     21  O   UNL     1       2.360   3.337  22.371  0.00  0.00    +0.000 OA
ATOM     22  O   UNL     1       2.031   5.335  21.494  0.00  0.00    +0.000 OA
ENDBRANCH  18  20
ENDBRANCH  13  19
ENDBRANCH   1  13
TORSDOF 5
ENDMDL
MODEL 9
REMARK VINA RESULT:      -7.3      0.965      1.069
REMARK  Name = 
REMARK  6 active torsions:
REMARK  status: ('A' for Active; 'I' for Inactive)
REMARK    1  A    between atoms: C_1  and  C_2
REMARK    2  A    between atoms: C_5  and  N_6
REMARK    3  A    between atoms: N_9  and  C_10
REMARK    4  A    between atoms: C_10  and  C_11
REMARK    5  A    between atoms: C_11  and  N_12
REMARK    6  A    between atoms: C_14  and  C_15
REMARK                            x       y       z     vdW  Elec       q    Type
REMARK                         _______ _______ _______ _____ _____    ______ ____
ROOT
ATOM      1  C   UNL     1       6.111   4.632  19.280  0.00  0.00    +0.000 C 
ENDROOT
BRANCH   1   2
ATOM      2  N   UNL     1       6.525   5.008  17.943  0.00  0.00    +0.000 N 
ATOM      3  C   UNL     1       6.385   4.283  16.800  0.00  0.00    +0.000 A 
ATOM      4  C   UNL     1       6.901   5.102  15.818  0.00  0.00    +0.000 A 
ATOM      5  N   UNL     1       7.350   6.263  16.398  0.00  0.00    +0.000 NA
ATOM      6  N   UNL     1       7.122   6.190  17.702  0.00  0.00    +0.000 NA
BRANCH   4   7
ATOM      7  C   UNL     1       6.961   4.815  14.396  0.00  0.00    +0.000 A 
ATOM      8  C   UNL     1       6.158   3.822  13.841  0.00  0.00    +0.000 A 
ATOM      9  C   UNL     1       6.261   3.559  12.477  0.00  0.00    +0.000 A 
ATOM     10  C   UNL     1       7.158   4.291  11.709  0.00  0.00    +0.000 A 
ATOM     11  C   UNL     1       7.915   5.265  12.338  0.00  0.00    +0.000 A 
ATOM     12  N   UNL     1       7.838   5.545  13.658  0.00  0.00    +0.000 NA
ENDBRANCH   4   7
ENDBRANCH   1   2
BRANCH   1  13
ATOM     13  C   UNL     1       4.778   5.248  19.700  0.00  0.00    +0.000 C 
BRANCH  13  19
ATOM     14  C   UNL     1       3.613   2.388  19.874  0.00  0.00    +0.000 C 
ATOM     15  C   UNL     1       3.074   3.493  19.036  0.00  0.00    +0.000 A 
ATOM     16  N   UNL     1       1.978   3.414  18.306  0.00  0.00    +0.000 NA
ATOM     17  C   UNL     1       1.793   4.653  17.748  0.00  0.00    +0.000 A 
ATOM     18  C   UNL     1       2.817   5.478  18.118  0.00  0.00    +0.000 A 
ATOM     19  N   UNL     1       3.640   4.755  18.940  0.00  0.00    +0.000 N 
BRANCH  18  20
ATOM     20  N   UNL     1       3.022   6.834  17.775  0.00  0.00    +0.000 N 
ATOM     21  O   UNL     1       3.943   7.076  16.991  0.00  0.00    +0.000 OA
ATOM     22  O   UNL     1       2.253   7.653  18.287  0.00  0.00    +0.000 OA
ENDBRANCH  18  20
ENDBRANCH  13  19
ENDBRANCH   1  13
TORSDOF 5
ENDMDL
